REMARK  17 active torsions:
REMARK  status: ('A' for Active; 'I' for Inactive)
REMARK       I    between atoms: C1_1  and  N3_3 
REMARK       I    between atoms: C1_1  and  N11_11 
REMARK    1  A    between atoms: N3_3  and  C4_4 
REMARK    2  A    between atoms: C4_4  and  C5_5 
REMARK    3  A    between atoms: N11_11  and  C12_12 
REMARK    4  A    between atoms: C12_12  and  C13_13 
REMARK    5  A    between atoms: C12_12  and  C17_17 
REMARK    6  A    between atoms: C13_13  and  C14_14 
REMARK    7  A    between atoms: C13_13  and  C15_15 
REMARK    8  A    between atoms: C13_13  and  C16_16 
REMARK       I    between atoms: C17_17  and  N19_19 
REMARK    9  A    between atoms: C21_21  and  C27_27 
REMARK   10  A    between atoms: C24_24  and  C25_25 
REMARK   11  A    between atoms: C24_24  and  C26_26 
REMARK       I    between atoms: C27_27  and  N29_29 
REMARK   12  A    between atoms: N29_29  and  C30_30 
REMARK   13  A    between atoms: C30_30  and  C31_31 
REMARK   14  A    between atoms: C30_30  and  C37_37 
REMARK   15  A    between atoms: C31_31  and  C32_32 
REMARK   16  A    between atoms: C37_37  and  O36_36 
REMARK   17  A    between atoms: C37_37  and  C40_40 
REMARK       I    between atoms: C40_40  and  N39_39 
ROOT
ATOM      1  C17 MCX d   1     194.575  -8.735  49.340  0.00  0.00     0.244 C 
ATOM      2  O18 MCX d   1     194.230  -7.560  49.473  0.00  0.00    -0.271 OA
ATOM      3  N19 MCX d   1     195.246  -9.392  50.298  0.00  0.00    -0.336 N 
ATOM      4  C20 MCX d   1     195.567 -10.826  50.382  0.00  0.00     0.003 C 
ATOM      5  C21 MCX d   1     195.699  -8.665  51.484  0.00  0.00     0.096 C 
ATOM      6  C22 MCX d   1     196.228  -9.653  52.436  0.00  0.00    -0.013 A 
ATOM      7  C23 MCX d   1     196.355 -10.906  51.649  0.00  0.00    -0.025 A 
ATOM      8  C24 MCX d   1     195.498 -10.866  52.925  0.00  0.00    -0.036 A 
ATOM      9  H   MCX d   1     196.115 -11.193  49.514  0.00  0.00     0.065 H 
ATOM     10  H   MCX d   1     194.682 -11.463  50.388  0.00  0.00     0.065 H 
ATOM     11  H   MCX d   1     194.898  -8.123  51.987  0.00  0.00     0.088 H 
ATOM     12  H   MCX d   1     196.779  -8.942  53.052  0.00  0.00     0.045 H 
ATOM     13  H   MCX d   1     197.164 -11.544  51.295  0.00  0.00     0.044 H 
ENDROOT
BRANCH   1  14
ATOM     14  C12 MCX d   1     194.132  -9.536  48.124  0.00  0.00     0.097 C 
ATOM     15  H   MCX d   1     194.510 -10.555  48.205  0.00  0.00     0.088 H 
BRANCH  14  16
ATOM     16  N11 MCX d   1     192.676  -9.558  48.090  0.00  0.00    -0.329 N 
ATOM     17  C1  MCX d   1     191.984 -10.555  48.629  0.00  0.00     0.317 C 
ATOM     18  O2  MCX d   1     192.524 -11.602  49.019  0.00  0.00    -0.247 OA
ATOM     19  N3  MCX d   1     190.672 -10.340  48.707  0.00  0.00    -0.334 N 
ATOM     20  H   MCX d   1     190.306  -9.446  48.380  0.00  0.00     0.165 HD
ATOM     21  H   MCX d   1     192.176  -8.790  47.642  0.00  0.00     0.165 HD
BRANCH  19  22
ATOM     22  C4  MCX d   1     189.720 -11.336  49.246  0.00  0.00     0.031 C 
ATOM     23  C6  MCX d   1     188.307 -10.710  49.359  0.00  0.00    -0.042 C 
ATOM     24  C7  MCX d   1     188.271  -9.681  50.465  0.00  0.00    -0.063 C 
ATOM     25  H   MCX d   1     187.588 -11.497  49.584  0.00  0.00     0.036 H 
ATOM     26  H   MCX d   1     188.058 -10.225  48.415  0.00  0.00     0.036 H 
ATOM     27  C8  MCX d   1     188.644 -10.327  51.793  0.00  0.00    -0.065 C 
ATOM     28  H   MCX d   1     187.264  -9.269  50.538  0.00  0.00     0.033 H 
ATOM     29  H   MCX d   1     188.985  -8.889  50.240  0.00  0.00     0.033 H 
ATOM     30  C9  MCX d   1     190.038 -10.951  51.725  0.00  0.00    -0.063 C 
ATOM     31  H   MCX d   1     187.920 -11.111  52.017  0.00  0.00     0.033 H 
ATOM     32  H   MCX d   1     188.641  -9.561  52.568  0.00  0.00     0.033 H 
ATOM     33  C10 MCX d   1     190.124 -11.967  50.602  0.00  0.00    -0.042 C 
ATOM     34  H   MCX d   1     190.242 -11.455  52.669  0.00  0.00     0.033 H 
ATOM     35  H   MCX d   1     190.766 -10.161  51.539  0.00  0.00     0.033 H 
ATOM     36  H   MCX d   1     191.153 -12.320  50.529  0.00  0.00     0.036 H 
ATOM     37  H   MCX d   1     189.441 -12.788  50.822  0.00  0.00     0.036 H 
BRANCH  22  38
ATOM     38  C5  MCX d   1     189.626 -12.486  48.259  0.00  0.00    -0.053 C 
ATOM     39  H   MCX d   1     190.593 -12.983  48.189  0.00  0.00     0.030 H 
ATOM     40  H   MCX d   1     188.874 -13.197  48.602  0.00  0.00     0.030 H 
ATOM     41  H   MCX d   1     189.343 -12.100  47.280  0.00  0.00     0.030 H 
ENDBRANCH  22  38
ENDBRANCH  19  22
ENDBRANCH  14  16
BRANCH  14  42
ATOM     42  C13 MCX d   1     194.725  -8.953  46.805  0.00  0.00    -0.022 C 
BRANCH  42  43
ATOM     43  C14 MCX d   1     196.252  -8.866  46.959  0.00  0.00    -0.067 C 
ATOM     44  H   MCX d   1     196.495  -8.214  47.798  0.00  0.00     0.028 H 
ATOM     45  H   MCX d   1     196.655  -9.862  47.142  0.00  0.00     0.028 H 
ATOM     46  H   MCX d   1     196.685  -8.460  46.045  0.00  0.00     0.028 H 
ENDBRANCH  42  43
BRANCH  42  47
ATOM     47  C15 MCX d   1     194.376  -9.934  45.668  0.00  0.00    -0.067 C 
ATOM     48  H   MCX d   1     194.812 -10.909  45.885  0.00  0.00     0.028 H 
ATOM     49  H   MCX d   1     193.293 -10.028  45.591  0.00  0.00     0.028 H 
ATOM     50  H   MCX d   1     194.777  -9.556  44.728  0.00  0.00     0.028 H 
ENDBRANCH  42  47
BRANCH  42  51
ATOM     51  C16 MCX d   1     194.215  -7.551  46.377  0.00  0.00    -0.067 C 
ATOM     52  H   MCX d   1     193.136  -7.588  46.228  0.00  0.00     0.028 H 
ATOM     53  H   MCX d   1     194.451  -6.826  47.156  0.00  0.00     0.028 H 
ATOM     54  H   MCX d   1     194.701  -7.257  45.447  0.00  0.00     0.028 H 
ENDBRANCH  42  51
ENDBRANCH  14  42
ENDBRANCH   1  14
BRANCH   5  55
ATOM     55  C27 MCX d   1     196.721  -7.635  51.042  0.00  0.00     0.241 C 
ATOM     56  O28 MCX d   1     197.706  -7.978  50.389  0.00  0.00    -0.271 OA
ATOM     57  N29 MCX d   1     196.466  -6.372  51.373  0.00  0.00    -0.352 N 
ATOM     58  H   MCX d   1     195.628  -6.163  51.916  0.00  0.00     0.163 HD
BRANCH  57  59
ATOM     59  C30 MCX d   1     197.345  -5.279  50.984  0.00  0.00     0.046 C 
ATOM     60  H   MCX d   1     198.128  -5.716  50.364  0.00  0.00     0.077 H 
BRANCH  59  61
ATOM     61  C31 MCX d   1     196.550  -4.243  50.185  0.00  0.00    -0.040 C 
ATOM     62  H   MCX d   1     197.250  -3.441  49.949  0.00  0.00     0.036 H 
ATOM     63  H   MCX d   1     195.695  -3.974  50.805  0.00  0.00     0.036 H 
BRANCH  61  64
ATOM     64  C32 MCX d   1     195.965  -4.717  48.828  0.00  0.00    -0.052 C 
ATOM     65  C33 MCX d   1     196.924  -4.911  47.617  0.00  0.00    -0.062 C 
ATOM     66  C35 MCX d   1     195.971  -4.065  46.749  0.00  0.00    -0.064 C 
ATOM     67  H   MCX d   1     197.216  -5.912  47.300  0.00  0.00     0.033 H 
ATOM     68  H   MCX d   1     197.977  -4.644  47.700  0.00  0.00     0.033 H 
ATOM     69  C34 MCX d   1     195.203  -3.651  48.015  0.00  0.00    -0.062 C 
ATOM     70  H   MCX d   1     195.443  -4.520  45.911  0.00  0.00     0.033 H 
ATOM     71  H   MCX d   1     196.370  -3.306  46.076  0.00  0.00     0.033 H 
ATOM     72  H   MCX d   1     195.210  -2.611  48.340  0.00  0.00     0.033 H 
ATOM     73  H   MCX d   1     194.113  -3.644  48.013  0.00  0.00     0.033 H 
ATOM     74  H   MCX d   1     195.468  -5.587  49.257  0.00  0.00     0.040 H 
ENDBRANCH  61  64
ENDBRANCH  59  61
BRANCH  59  75
ATOM     75  C37 MCX d   1     198.092  -4.608  52.168  0.00  0.00     0.131 C 
ATOM     76  H   MCX d   1     197.442  -3.961  52.757  0.00  0.00     0.101 H 
BRANCH  75  77
ATOM     77  O36 MCX d   1     198.609  -5.653  53.043  0.00  0.00    -0.384 OA
ATOM     78  H   MCX d   1     197.879  -6.182  53.374  0.00  0.00     0.210 HD
ENDBRANCH  75  77
BRANCH  75  79
ATOM     79  C40 MCX d   1     199.251  -3.782  51.548  0.00  0.00     0.246 C 
ATOM     80  O38 MCX d   1     199.023  -2.596  51.336  0.00  0.00    -0.271 OA
ATOM     81  N39 MCX d   1     200.421  -4.339  51.258  0.00  0.00    -0.368 N 
ATOM     82  H   MCX d   1     201.165  -3.777  50.845  0.00  0.00     0.159 HD
ATOM     83  H   MCX d   1     200.576  -5.329  51.448  0.00  0.00     0.159 HD
ENDBRANCH  75  79
ENDBRANCH  59  75
ENDBRANCH  57  59
ENDBRANCH   5  55
BRANCH   8  84
ATOM     84  C25 MCX d   1     196.051 -11.524  54.130  0.00  0.00    -0.068 C 
ATOM     85  H   MCX d   1     197.072 -11.849  53.929  0.00  0.00     0.028 H 
ATOM     86  H   MCX d   1     196.050 -10.818  54.961  0.00  0.00     0.028 H 
ATOM     87  H   MCX d   1     195.437 -12.388  54.385  0.00  0.00     0.028 H 
ENDBRANCH   8  84
BRANCH   8  88
ATOM     88  C26 MCX d   1     193.983 -10.878  52.828  0.00  0.00    -0.068 C 
ATOM     89  H   MCX d   1     193.576 -10.050  53.409  0.00  0.00     0.028 H 
ATOM     90  H   MCX d   1     193.686 -10.771  51.785  0.00  0.00     0.028 H 
ATOM     91  H   MCX d   1     193.602 -11.821  53.221  0.00  0.00     0.028 H 
ENDBRANCH   8  88
TORSDOF 17
