REMARK  7 active torsions:
REMARK  status: ('A' for Active; 'I' for Inactive)
REMARK    1  A    between atoms: C8_11  and  O_3 
REMARK    2  A    between atoms: N5_8  and  O9_12 
REMARK    3  A    between atoms: C6_9  and  O10_13 
REMARK    4  A    between atoms: C7_10  and  C11_14 
REMARK    5  A    between atoms: C11_14  and  O13_16 
REMARK    6  A    between atoms: O13_16  and  C14_17 
REMARK    7  A    between atoms: C14_17  and  C15_18 
ROOT
ATOM      1  C   LP7 d   1      -2.041  70.981  30.627  0.00  0.00    -0.065 A 
ATOM      2  N   LP7 d   1      -3.960  72.039  31.646  0.00  0.00    -0.241 NA
ATOM      3  C1  LP7 d   1      -3.413  71.128  30.804  0.00  0.00     0.005 A 
ATOM      4  C2  LP7 d   1      -1.209  71.823  31.362  0.00  0.00    -0.069 A 
ATOM      5  C3  LP7 d   1      -1.730  72.775  32.240  0.00  0.00     0.024 A 
ATOM      6  C4  LP7 d   1      -3.124  72.845  32.347  0.00  0.00     0.166 A 
ATOM      7  N5  LP7 d   1      -3.642  73.770  33.199  0.00  0.00    -0.182 N 
ATOM      8  C6  LP7 d   1      -2.937  74.644  33.969  0.00  0.00     0.184 A 
ATOM      9  C7  LP7 d   1      -1.539  74.578  33.865  0.00  0.00     0.103 A 
ATOM     10  C8  LP7 d   1      -0.947  73.644  33.003  0.00  0.00     0.100 A 
ATOM     11  H   LP7 d   1      -1.634  70.238  29.942  0.00  0.00     0.085 H 
ATOM     12  H   LP7 d   1      -4.081  70.479  30.238  0.00  0.00     0.114 H 
ATOM     13  H   LP7 d   1      -0.128  71.737  31.249  0.00  0.00     0.084 H 
ATOM     14  H   LP7 d   1      -1.249  74.424  33.702  0.00  0.00     0.099 H 
ENDROOT
BRANCH   9  15
ATOM     15  C11 LP7 d   1      -0.656  75.490  34.670  0.00  0.00     0.296 C 
ATOM     16  O12 LP7 d   1      -0.849  76.689  34.810  0.00  0.00    -0.259 OA
BRANCH  15  17
ATOM     17  O13 LP7 d   1       0.354  74.794  35.207  0.00  0.00    -0.318 OA
BRANCH  17  18
ATOM     18  C14 LP7 d   1       0.063  74.048  36.422  0.00  0.00     0.026 C 
ATOM     19  H   LP7 d   1      -0.911  73.567  36.334  0.00  0.00     0.074 H 
ATOM     20  H   LP7 d   1       0.047  74.726  37.275  0.00  0.00     0.074 H 
BRANCH  18  21
ATOM     21  C15 LP7 d   1       1.148  72.987  36.625  0.00  0.00    -0.056 C 
ATOM     22  H   LP7 d   1       1.157  72.311  35.770  0.00  0.00     0.030 H 
ATOM     23  H   LP7 d   1       2.119  73.475  36.715  0.00  0.00     0.030 H 
ATOM     24  H   LP7 d   1       0.938  72.423  37.534  0.00  0.00     0.030 H 
ENDBRANCH  18  21
ENDBRANCH  17  18
ENDBRANCH  15  17
ENDBRANCH   9  15
BRANCH   8  25
ATOM     25  O10 LP7 d   1      -3.515  75.524  34.785  0.00  0.00    -0.344 OA
ATOM     26  H   LP7 d   1      -4.080  76.109  34.275  0.00  0.00     0.219 HD
ENDBRANCH   8  25
BRANCH  10  27
ATOM     27  O   LP7 d   1       0.375  73.550  32.880  0.00  0.00    -0.386 OA
ATOM     28  H   LP7 d   1       0.795  74.196  33.452  0.00  0.00     0.210 HD
ENDBRANCH  10  27
BRANCH   7  29
ATOM     29  O9  LP7 d   1      -5.031  73.816  33.286  0.00  0.00    -0.279 OA
ATOM     30  H   LP7 d   1      -5.409  73.156  32.700  0.00  0.00     0.245 HD
ENDBRANCH   7  29
TORSDOF 7
