REMARK  3 active torsions:
REMARK  status: ('A' for Active; 'I' for Inactive)
REMARK    1  A    between atoms: C_1  and  O3_6 
REMARK    2  A    between atoms: C1_4  and  O10_13 
REMARK    3  A    between atoms: C2_5  and  C11_14 
ROOT
ATOM      1  C   LP8 d   1      -3.677  74.270  34.267  0.00  0.00     0.182 A 
ATOM      2  N   LP8 d   1      -4.166  73.339  33.411  0.00  0.00    -0.146 N 
ATOM      3  O   LP8 d   1      -5.548  73.228  33.313  0.00  0.00    -0.076 OA
ATOM      4  C1  LP8 d   1      -1.493  73.522  33.585  0.00  0.00     0.090 A 
ATOM      5  C2  LP8 d   1      -2.280  74.379  34.366  0.00  0.00     0.033 A 
ATOM      6  C4  LP8 d   1      -3.452  72.491  32.635  0.00  0.00     0.173 A 
ATOM      7  C5  LP8 d   1      -2.061  72.583  32.723  0.00  0.00     0.046 A 
ATOM      8  C6  LP8 d   1      -1.315  71.714  31.925  0.00  0.00    -0.065 A 
ATOM      9  C7  LP8 d   1      -1.942  70.798  31.083  0.00  0.00    -0.065 A 
ATOM     10  C8  LP8 d   1      -3.334  70.784  31.069  0.00  0.00     0.005 A 
ATOM     11  N9  LP8 d   1      -4.092  71.611  31.827  0.00  0.00    -0.240 NA
ATOM     12  H2  LP8 d   1      -0.232  71.752  31.961  0.00  0.00     0.085 H 
ATOM     13  H3  LP8 d   1      -1.367  70.121  30.462  0.00  0.00     0.085 H 
ATOM     14  H4  LP8 d   1      -3.836  70.076  30.419  0.00  0.00     0.114 H 
ENDROOT
BRANCH   5  15
ATOM     15  C11 LP8 d   1      -1.732  75.416  35.331  0.00  0.00    -0.022 C 
ATOM     16  C12 LP8 d   1      -1.259  74.860  36.678  0.00  0.00    -0.058 C 
ATOM     17  C13 LP8 d   1       0.147  75.415  36.906  0.00  0.00    -0.064 C 
ATOM     18  H7  LP8 d   1      -1.233  73.761  36.648  0.00  0.00     0.034 H 
ATOM     19  H8  LP8 d   1      -1.933  75.189  37.483  0.00  0.00     0.034 H 
ATOM     20  C14 LP8 d   1       0.191  76.690  36.062  0.00  0.00    -0.064 C 
ATOM     21  H9  LP8 d   1       0.909  74.697  36.568  0.00  0.00     0.033 H 
ATOM     22  H10 LP8 d   1       0.307  75.646  37.969  0.00  0.00     0.033 H 
ATOM     23  C15 LP8 d   1      -0.596  76.304  34.807  0.00  0.00    -0.058 C 
ATOM     24  H11 LP8 d   1       1.227  76.961  35.810  0.00  0.00     0.033 H 
ATOM     25  H12 LP8 d   1      -0.290  77.528  36.587  0.00  0.00     0.033 H 
ATOM     26  H13 LP8 d   1      -0.999  77.198  34.309  0.00  0.00     0.034 H 
ATOM     27  H14 LP8 d   1       0.041  75.748  34.103  0.00  0.00     0.034 H 
ATOM     28  H6  LP8 d   1      -2.580  76.084  35.541  0.00  0.00     0.047 H 
ENDBRANCH   5  15
BRANCH   1  29
ATOM     29  O3  LP8 d   1      -4.498  75.045  34.975  0.00  0.00    -0.344 OA
ATOM     30  H1  LP8 d   1      -5.043  75.550  34.383  0.00  0.00     0.219 HD
ENDBRANCH   1  29
BRANCH   4  31
ATOM     31  O10 LP8 d   1      -0.161  73.511  33.581  0.00  0.00    -0.359 OA
ATOM     32  H5  LP8 d   1       0.162  74.169  34.185  0.00  0.00     0.217 HD
ENDBRANCH   4  31
TORSDOF 3
