REMARK  13 active torsions:
REMARK  status: ('A' for Active; 'I' for Inactive)
REMARK    1  A    between atoms: C8_11  and  O_3 
REMARK    2  A    between atoms: C1_4  and  O13_16 
REMARK    3  A    between atoms: C6_9  and  O11_14 
REMARK    4  A    between atoms: C7_10  and  C9_12 
REMARK    5  A    between atoms: C9_12  and  O25_28 
REMARK    6  A    between atoms: O13_16  and  C14_17 
REMARK    7  A    between atoms: C17_20  and  N20_23 
REMARK    8  A    between atoms: N20_23  and  C21_24 
REMARK    9  A    between atoms: N20_23  and  C23_26 
REMARK   10  A    between atoms: C21_24  and  C22_25 
REMARK   11  A    between atoms: C23_26  and  C24_27 
REMARK   12  A    between atoms: O25_28  and  C27_30 
REMARK   13  A    between atoms: C27_30  and  C26_29 
ROOT
ATOM      1  C   LP9 d   1       9.136   8.357  25.221  0.00  0.00    -0.032 A 
ATOM      2  N   LP9 d   1      10.628   9.503  27.180  0.00  0.00    -0.237 NA
ATOM      3  C1  LP9 d   1      10.139   9.261  24.870  0.00  0.00     0.094 A 
ATOM      4  C2  LP9 d   1      10.897   9.829  25.894  0.00  0.00     0.037 A 
ATOM      5  C3  LP9 d   1       9.655   8.632  27.539  0.00  0.00     0.173 A 
ATOM      6  C4  LP9 d   1       8.868   8.029  26.554  0.00  0.00     0.049 A 
ATOM      7  N5  LP9 d   1       9.417   8.329  28.838  0.00  0.00    -0.145 N 
ATOM      8  C6  LP9 d   1       8.467   7.477  29.298  0.00  0.00     0.192 A 
ATOM      9  C7  LP9 d   1       7.665   6.856  28.327  0.00  0.00     0.126 A 
ATOM     10  C8  LP9 d   1       7.868   7.139  26.963  0.00  0.00     0.100 A 
ATOM     11  O12 LP9 d   1      10.234   8.965  29.769  0.00  0.00    -0.076 OA
ATOM     12  H1  LP9 d   1       8.547   7.895  24.437  0.00  0.00     0.089 H 
ATOM     13  H3  LP9 d   1      11.695  10.525  25.662  0.00  0.00     0.119 H 
ENDROOT
BRANCH   3  14
ATOM     14  O13 LP9 d   1      10.405   9.575  23.596  0.00  0.00    -0.309 OA
BRANCH  14  15
ATOM     15  C14 LP9 d   1      10.835  10.782  23.219  0.00  0.00     0.076 A 
ATOM     16  C15 LP9 d   1       9.874  11.757  22.974  0.00  0.00    -0.048 A 
ATOM     17  C16 LP9 d   1      10.270  13.031  22.571  0.00  0.00    -0.055 A 
ATOM     18  H5  LP9 d   1       8.822  11.527  23.096  0.00  0.00     0.087 H 
ATOM     19  C17 LP9 d   1      11.601  13.403  22.374  0.00  0.00     0.030 A 
ATOM     20  H6  LP9 d   1       9.501  13.775  22.401  0.00  0.00     0.087 H 
ATOM     21  C18 LP9 d   1      12.538  12.393  22.626  0.00  0.00    -0.055 A 
ATOM     22  C19 LP9 d   1      12.181  11.105  23.031  0.00  0.00    -0.048 A 
ATOM     23  H7  LP9 d   1      13.590  12.622  22.501  0.00  0.00     0.087 H 
ATOM     24  H8  LP9 d   1      12.947  10.357  23.199  0.00  0.00     0.087 H 
BRANCH  19  25
ATOM     25  N20 LP9 d   1      11.924  14.660  21.994  0.00  0.00    -0.382 N 
BRANCH  25  26
ATOM     26  C21 LP9 d   1      11.062  15.458  21.112  0.00  0.00    -0.008 C 
ATOM     27  H9  LP9 d   1      11.201  16.520  21.363  0.00  0.00     0.063 H 
ATOM     28  H10 LP9 d   1      10.017  15.171  21.300  0.00  0.00     0.063 H 
BRANCH  26  29
ATOM     29  C22 LP9 d   1      11.348  15.276  19.621  0.00  0.00    -0.061 C 
ATOM     30  H11 LP9 d   1      10.662  15.906  19.036  0.00  0.00     0.029 H 
ATOM     31  H12 LP9 d   1      11.202  14.221  19.346  0.00  0.00     0.029 H 
ATOM     32  H13 LP9 d   1      12.386  15.570  19.408  0.00  0.00     0.029 H 
ENDBRANCH  26  29
ENDBRANCH  25  26
BRANCH  25  33
ATOM     33  C23 LP9 d   1      13.116  15.354  22.507  0.00  0.00    -0.008 C 
ATOM     34  H14 LP9 d   1      13.286  15.021  23.541  0.00  0.00     0.063 H 
ATOM     35  H15 LP9 d   1      12.912  16.435  22.499  0.00  0.00     0.063 H 
BRANCH  33  36
ATOM     36  C24 LP9 d   1      14.400  15.108  21.712  0.00  0.00    -0.061 C 
ATOM     37  H16 LP9 d   1      15.229  15.666  22.172  0.00  0.00     0.029 H 
ATOM     38  H17 LP9 d   1      14.260  15.447  20.675  0.00  0.00     0.029 H 
ATOM     39  H18 LP9 d   1      14.635  14.033  21.718  0.00  0.00     0.029 H 
ENDBRANCH  33  36
ENDBRANCH  25  33
ENDBRANCH  19  25
ENDBRANCH  14  15
ENDBRANCH   3  14
BRANCH  10  40
ATOM     40  O   LP9 d   1       7.127   6.573  26.008  0.00  0.00    -0.358 OA
ATOM     41  H2  LP9 d   1       6.488   5.994  26.406  0.00  0.00     0.217 HD
ENDBRANCH  10  40
BRANCH   9  42
ATOM     42  C9  LP9 d   1       6.581   5.898  28.742  0.00  0.00     0.300 C 
ATOM     43  O10 LP9 d   1       5.746   6.167  29.595  0.00  0.00    -0.259 OA
BRANCH  42  44
ATOM     44  O25 LP9 d   1       6.679   4.747  28.064  0.00  0.00    -0.318 OA
BRANCH  44  45
ATOM     45  C27 LP9 d   1       5.451   3.996  27.848  0.00  0.00     0.026 C 
ATOM     46  H22 LP9 d   1       4.639   4.441  28.442  0.00  0.00     0.074 H 
ATOM     47  H23 LP9 d   1       5.601   2.951  28.157  0.00  0.00     0.074 H 
BRANCH  45  48
ATOM     48  C26 LP9 d   1       5.082   4.042  26.360  0.00  0.00    -0.056 C 
ATOM     49  H19 LP9 d   1       4.154   3.475  26.195  0.00  0.00     0.030 H 
ATOM     50  H20 LP9 d   1       5.894   3.597  25.767  0.00  0.00     0.030 H 
ATOM     51  H21 LP9 d   1       4.933   5.087  26.051  0.00  0.00     0.030 H 
ENDBRANCH  45  48
ENDBRANCH  44  45
ENDBRANCH  42  44
ENDBRANCH   9  42
BRANCH   8  52
ATOM     52  O11 LP9 d   1       8.301   7.237  30.598  0.00  0.00    -0.344 OA
ATOM     53  H4  LP9 d   1       7.591   6.617  30.716  0.00  0.00     0.219 HD
ENDBRANCH   8  52
TORSDOF 13
