REMARK  11 active torsions:
REMARK  status: ('A' for Active; 'I' for Inactive)
REMARK    1  A    between atoms: S1_1  and  N4_4 
REMARK    2  A    between atoms: S1_1  and  C10_6 
REMARK    3  A    between atoms: N4_4  and  C6_5 
REMARK    4  A    between atoms: C15_9  and  C20_12 
REMARK    5  A    between atoms: C23_15  and  C34_22 
REMARK    6  A    between atoms: C37_24  and  O52_32 
REMARK    7  A    between atoms: C38_25  and  O47_30 
REMARK    8  A    between atoms: C39_26  and  O42_28 
REMARK    9  A    between atoms: O42_28  and  C43_29 
REMARK   10  A    between atoms: O47_30  and  C48_31 
REMARK   11  A    between atoms: O52_32  and  C53_33 
ROOT
ATOM      1  C20 NVB d   1     116.906  66.085   8.327  0.00  0.00     0.005 A 
ATOM      2  C21 NVB d   1     117.109  66.801   9.509  0.00  0.00     0.097 A 
ATOM      3  N22 NVB d   1     116.158  66.823  10.469  0.00  0.00    -0.244 NA
ATOM      4  C23 NVB d   1     116.337  67.572  11.587  0.00  0.00     0.085 A 
ATOM      5  C24 NVB d   1     117.516  68.296  11.766  0.00  0.00     0.031 A 
ATOM      6  N26 NVB d   1     118.452  68.278  10.798  0.00  0.00    -0.256 NA
ATOM      7  C27 NVB d   1     118.274  67.568   9.666  0.00  0.00     0.086 A 
ATOM      8  C28 NVB d   1     119.275  67.565   8.672  0.00  0.00    -0.053 A 
ATOM      9  C30 NVB d   1     119.105  66.813   7.498  0.00  0.00    -0.080 A 
ATOM     10  C32 NVB d   1     117.913  66.090   7.328  0.00  0.00    -0.070 A 
ATOM     11  H   NVB d   1     117.678  68.870  12.679  0.00  0.00     0.118 H 
ATOM     12  H   NVB d   1     120.184  68.149   8.816  0.00  0.00     0.087 H 
ATOM     13  H   NVB d   1     119.882  66.791   6.734  0.00  0.00     0.083 H 
ATOM     14  H   NVB d   1     117.759  65.522   6.411  0.00  0.00     0.084 H 
ENDROOT
BRANCH   4  15
ATOM     15  C34 NVB d   1     115.255  67.514  12.607  0.00  0.00    -0.000 A 
ATOM     16  C35 NVB d   1     114.051  66.916  12.294  0.00  0.00    -0.036 A 
ATOM     17  C37 NVB d   1     113.024  66.834  13.252  0.00  0.00     0.105 A 
ATOM     18  H   NVB d   1     113.895  66.504  11.297  0.00  0.00     0.089 H 
ATOM     19  C38 NVB d   1     113.242  67.315  14.546  0.00  0.00     0.135 A 
ATOM     20  C39 NVB d   1     114.459  67.879  14.882  0.00  0.00     0.105 A 
ATOM     21  C40 NVB d   1     115.482  67.980  13.905  0.00  0.00    -0.036 A 
ATOM     22  H   NVB d   1     116.444  68.421  14.166  0.00  0.00     0.089 H 
BRANCH  17  23
ATOM     23  O52 NVB d   1     111.779  66.283  12.967  0.00  0.00    -0.353 OA
BRANCH  23  24
ATOM     24  C53 NVB d   1     111.340  65.848  11.645  0.00  0.00     0.010 C 
ATOM     25  H   NVB d   1     111.361  66.695  10.960  0.00  0.00     0.066 H 
ATOM     26  H   NVB d   1     112.008  65.067  11.280  0.00  0.00     0.066 H 
ATOM     27  H   NVB d   1     110.325  65.457  11.711  0.00  0.00     0.066 H 
ENDBRANCH  23  24
ENDBRANCH  17  23
BRANCH  19  28
ATOM     28  O47 NVB d   1     112.254  67.206  15.511  0.00  0.00    -0.351 OA
BRANCH  28  29
ATOM     29  C48 NVB d   1     112.169  65.959  16.247  0.00  0.00     0.011 C 
ATOM     30  H   NVB d   1     111.984  65.140  15.552  0.00  0.00     0.067 H 
ATOM     31  H   NVB d   1     113.107  65.785  16.774  0.00  0.00     0.067 H 
ATOM     32  H   NVB d   1     111.352  66.018  16.966  0.00  0.00     0.067 H 
ENDBRANCH  28  29
ENDBRANCH  19  28
BRANCH  20  33
ATOM     33  O42 NVB d   1     114.618  68.365  16.172  0.00  0.00    -0.353 OA
BRANCH  33  34
ATOM     34  C43 NVB d   1     115.489  69.461  16.486  0.00  0.00     0.010 C 
ATOM     35  H   NVB d   1     116.510  69.205  16.202  0.00  0.00     0.066 H 
ATOM     36  H   NVB d   1     115.169  70.347  15.937  0.00  0.00     0.066 H 
ATOM     37  H   NVB d   1     115.448  69.661  17.557  0.00  0.00     0.066 H 
ENDBRANCH  33  34
ENDBRANCH  20  33
ENDBRANCH   4  15
BRANCH   1  38
ATOM     38  C15 NVB d   1     115.678  65.280   8.097  0.00  0.00    -0.024 A 
ATOM     39  C13 NVB d   1     115.045  64.556   9.144  0.00  0.00    -0.071 A 
ATOM     40  C11 NVB d   1     113.895  63.816   8.873  0.00  0.00    -0.059 A 
ATOM     41  H   NVB d   1     115.457  64.579  10.153  0.00  0.00     0.084 H 
ATOM     42  C10 NVB d   1     113.393  63.740   7.565  0.00  0.00     0.079 A 
ATOM     43  H   NVB d   1     113.383  63.294   9.681  0.00  0.00     0.085 H 
ATOM     44  C18 NVB d   1     114.021  64.447   6.511  0.00  0.00    -0.059 A 
ATOM     45  C16 NVB d   1     115.156  65.222   6.789  0.00  0.00    -0.071 A 
ATOM     46  H   NVB d   1     113.627  64.389   5.496  0.00  0.00     0.085 H 
ATOM     47  H   NVB d   1     115.638  65.783   5.988  0.00  0.00     0.084 H 
BRANCH  42  48
ATOM     48  S1  NVB d   1     111.954  62.743   7.258  0.00  0.00     0.258 S 
ATOM     49  O2  NVB d   1     111.095  62.662   8.410  0.00  0.00    -0.201 OA
ATOM     50  O3  NVB d   1     112.360  61.532   6.627  0.00  0.00    -0.201 OA
BRANCH  48  51
ATOM     51  N4  NVB d   1     111.097  63.616   6.203  0.00  0.00    -0.320 N 
ATOM     52  H   NVB d   1     111.155  63.422   5.203  0.00  0.00     0.171 HD
BRANCH  51  53
ATOM     53  C6  NVB d   1     110.242  64.681   6.698  0.00  0.00    -0.011 C 
ATOM     54  H   NVB d   1     109.497  64.262   7.375  0.00  0.00     0.057 H 
ATOM     55  H   NVB d   1     110.848  65.414   7.231  0.00  0.00     0.057 H 
ATOM     56  H   NVB d   1     109.741  65.163   5.858  0.00  0.00     0.057 H 
ENDBRANCH  51  53
ENDBRANCH  48  51
ENDBRANCH  42  48
ENDBRANCH   1  38
TORSDOF 11
