REMARK  11 active torsions:
REMARK  status: ('A' for Active; 'I' for Inactive)
REMARK    1  A    between atoms: CAT_21  and  N1_1 
REMARK    2  A    between atoms: N1_1  and  CAW_24 
REMARK    3  A    between atoms: N2_2  and  CAO_18 
REMARK    4  A    between atoms: CAP_19  and  N2_2 
REMARK    5  A    between atoms: OAS_20  and  CAA_4 
REMARK    6  A    between atoms: CAU_22  and  CAB_5 
REMARK    7  A    between atoms: CAV_23  and  CAC_6 
REMARK    8  A    between atoms: CAN_17  and  OAE_8 
REMARK    9  A    between atoms: CAO_18  and  CAN_17 
REMARK   10  A    between atoms: CAY_26  and  CAP_19 
REMARK   11  A    between atoms: CAX_25  and  OAS_20 
ROOT
ATOM      1  N2  Z77 d   1     -24.477   6.626  -4.108  0.00  0.00    -0.352 N 
ATOM      2  SAF Z77 d   1     -24.905   5.435  -1.814  0.00  0.00    -0.041 SA
ATOM      3  CAT Z77 d   1     -24.555   5.419  -3.503  0.00  0.00     0.174 C 
ENDROOT
BRANCH   1   4
ATOM      4  CAO Z77 d   1     -24.572   7.830  -3.241  0.00  0.00     0.017 C 
ATOM      5  H   Z77 d   1     -23.613   8.344  -3.306  0.00  0.00     0.067 H 
ATOM      6  H   Z77 d   1     -24.835   7.482  -2.242  0.00  0.00     0.067 H 
BRANCH   4   7
ATOM      7  CAN Z77 d   1     -25.646   8.836  -3.660  0.00  0.00     0.032 C 
ATOM      8  H   Z77 d   1     -25.457   9.194  -4.672  0.00  0.00     0.076 H 
ATOM      9  H   Z77 d   1     -26.629   8.366  -3.654  0.00  0.00     0.076 H 
BRANCH   7  10
ATOM     10  OAE Z77 d   1     -25.608   9.923  -2.732  0.00  0.00    -0.399 OA
ATOM     11  H   Z77 d   1     -25.785   9.594  -1.848  0.00  0.00     0.209 HD
ENDBRANCH   7  10
ENDBRANCH   4   7
ENDBRANCH   1   4
BRANCH   1  12
ATOM     12  CAP Z77 d   1     -24.081   6.776  -5.531  0.00  0.00     0.026 C 
ATOM     13  H   Z77 d   1     -23.669   5.808  -5.815  0.00  0.00     0.071 H 
ATOM     14  H   Z77 d   1     -23.427   7.648  -5.553  0.00  0.00     0.071 H 
BRANCH  12  15
ATOM     15  CAY Z77 d   1     -25.182   7.070  -6.580  0.00  0.00     0.029 A 
ATOM     16  CAM Z77 d   1     -25.231   8.350  -7.170  0.00  0.00    -0.058 A 
ATOM     17  CBA Z77 d   1     -26.194   8.670  -8.148  0.00  0.00    -0.008 A 
ATOM     18  H   Z77 d   1     -24.509   9.107  -6.863  0.00  0.00     0.086 H 
ATOM     19  CAK Z77 d   1     -26.253   9.931  -8.746  0.00  0.00    -0.065 A 
ATOM     20  CBB Z77 d   1     -27.105   7.691  -8.551  0.00  0.00     0.045 A 
ATOM     21  CAU Z77 d   1     -27.216  10.214  -9.718  0.00  0.00    -0.055 A 
ATOM     22  H   Z77 d   1     -25.541  10.702  -8.451  0.00  0.00     0.085 H 
ATOM     23  CAV Z77 d   1     -28.137   9.231 -10.101  0.00  0.00    -0.054 A 
ATOM     24  CAL Z77 d   1     -28.071   7.970  -9.516  0.00  0.00    -0.050 A 
ATOM     25  H   Z77 d   1     -28.779   7.196  -9.814  0.00  0.00     0.087 H 
ATOM     26  N3  Z77 d   1     -27.061   6.419  -7.964  0.00  0.00    -0.322 N 
ATOM     27  CAZ Z77 d   1     -26.099   6.101  -6.984  0.00  0.00     0.253 A 
ATOM     28  H   Z77 d   1     -27.737   5.711  -8.251  0.00  0.00     0.169 HD
ATOM     29  OAD Z77 d   1     -26.062   4.964  -6.479  0.00  0.00    -0.268 OA
BRANCH  21  30
ATOM     30  CAB Z77 d   1     -27.285  11.603 -10.356  0.00  0.00    -0.051 C 
ATOM     31  H   Z77 d   1     -27.149  11.514 -11.434  0.00  0.00     0.033 H 
ATOM     32  H   Z77 d   1     -28.257  12.050 -10.147  0.00  0.00     0.033 H 
ATOM     33  H   Z77 d   1     -26.498  12.232  -9.940  0.00  0.00     0.033 H 
ENDBRANCH  21  30
BRANCH  23  34
ATOM     34  CAC Z77 d   1     -29.222   9.505 -11.171  0.00  0.00    -0.051 C 
ATOM     35  H   Z77 d   1     -29.859  10.325 -10.839  0.00  0.00     0.033 H 
ATOM     36  H   Z77 d   1     -28.742   9.774 -12.112  0.00  0.00     0.033 H 
ATOM     37  H   Z77 d   1     -29.825   8.608 -11.313  0.00  0.00     0.033 H 
ENDBRANCH  23  34
ENDBRANCH  12  15
ENDBRANCH   1  12
BRANCH   3  38
ATOM     38  N1  Z77 d   1     -24.386   4.249  -4.166  0.00  0.00    -0.333 N 
ATOM     39  H   Z77 d   1     -24.141   4.313  -5.154  0.00  0.00     0.168 HD
BRANCH  38  40
ATOM     40  CAW Z77 d   1     -24.510   3.004  -3.648  0.00  0.00     0.036 A 
ATOM     41  CAH Z77 d   1     -24.806   1.943  -4.513  0.00  0.00    -0.057 A 
ATOM     42  CAG Z77 d   1     -24.948   0.639  -4.034  0.00  0.00    -0.078 A 
ATOM     43  H   Z77 d   1     -24.928   2.139  -5.578  0.00  0.00     0.086 H 
ATOM     44  CAI Z77 d   1     -24.796   0.378  -2.675  0.00  0.00    -0.051 A 
ATOM     45  H   Z77 d   1     -25.178  -0.173  -4.723  0.00  0.00     0.083 H 
ATOM     46  CAX Z77 d   1     -24.501   1.423  -1.795  0.00  0.00     0.070 A 
ATOM     47  H   Z77 d   1     -24.907  -0.639  -2.298  0.00  0.00     0.087 H 
ATOM     48  CAJ Z77 d   1     -24.357   2.727  -2.281  0.00  0.00    -0.025 A 
ATOM     49  H   Z77 d   1     -24.123   3.537  -1.590  0.00  0.00     0.091 H 
BRANCH  46  50
ATOM     50  OAS Z77 d   1     -24.352   1.158  -0.465  0.00  0.00    -0.356 OA
BRANCH  50  51
ATOM     51  CAA Z77 d   1     -23.152   0.358  -0.235  0.00  0.00     0.010 C 
ATOM     52  H   Z77 d   1     -23.235  -0.584  -0.777  0.00  0.00     0.066 H 
ATOM     53  H   Z77 d   1     -22.278   0.906  -0.588  0.00  0.00     0.066 H 
ATOM     54  H   Z77 d   1     -23.050   0.157   0.831  0.00  0.00     0.066 H 
ENDBRANCH  50  51
ENDBRANCH  46  50
ENDBRANCH  38  40
ENDBRANCH   3  38
TORSDOF 11
