REMARK  7 active torsions:
REMARK  status: ('A' for Active; 'I' for Inactive)
REMARK    1  A    between atoms: N2_2  and  CAO_18 
REMARK    2  A    between atoms: CAP_19  and  N2_2 
REMARK       I    between atoms: N2_2  and  CAS_20 
REMARK       I    between atoms: CAS_20  and  N3_3 
REMARK    3  A    between atoms: N3_3  and  CAW_24 
REMARK    4  A    between atoms: CAT_21  and  CAA_4 
REMARK    5  A    between atoms: CAN_17  and  OAD_7 
REMARK    6  A    between atoms: CAO_18  and  CAN_17 
REMARK    7  A    between atoms: CAP_19  and  CAV_23 
ROOT
ATOM      1  N2  Z78 d   1     -25.070   7.643  -4.082  0.00  0.00    -0.228 NA
ATOM      2  N3  Z78 d   1     -24.481   5.211  -3.642  0.00  0.00    -0.311 N 
ATOM      3  OAB Z78 d   1     -24.549   6.808  -2.024  0.00  0.00    -0.254 OA
ATOM      4  CAS Z78 d   1     -24.527   6.605  -3.195  0.00  0.00     0.301 C 
ATOM      5  H   Z78 d   1     -24.227   5.331  -4.622  0.00  0.00     0.170 HD
ENDROOT
BRANCH   1   6
ATOM      6  CAO Z78 d   1     -24.730   8.955  -3.593  0.00  0.00     0.007 C 
ATOM      7  H   Z78 d   1     -23.854   9.283  -4.153  0.00  0.00     0.059 H 
ATOM      8  H   Z78 d   1     -24.580   8.861  -2.518  0.00  0.00     0.059 H 
BRANCH   6   9
ATOM      9  CAN Z78 d   1     -25.806  10.016  -3.797  0.00  0.00     0.028 C 
ATOM     10  H   Z78 d   1     -25.974  10.097  -4.881  0.00  0.00     0.075 H 
ATOM     11  H   Z78 d   1     -26.720   9.643  -3.311  0.00  0.00     0.075 H 
BRANCH   9  12
ATOM     12  OAD Z78 d   1     -25.624  11.118  -3.392  0.00  0.00    -0.400 OA
ATOM     13  H   Z78 d   1     -26.379  11.657  -3.595  0.00  0.00     0.209 HD
ENDBRANCH   9  12
ENDBRANCH   6   9
ENDBRANCH   1   6
BRANCH   1  14
ATOM     14  CAP Z78 d   1     -24.543   7.494  -5.430  0.00  0.00     0.016 C 
ATOM     15  H   Z78 d   1     -24.352   6.428  -5.558  0.00  0.00     0.064 H 
ATOM     16  H   Z78 d   1     -23.684   8.162  -5.489  0.00  0.00     0.064 H 
BRANCH  14  17
ATOM     17  CAV Z78 d   1     -25.472   7.899  -6.597  0.00  0.00     0.010 A 
ATOM     18  CAM Z78 d   1     -25.491   9.207  -7.121  0.00  0.00    -0.059 A 
ATOM     19  CAY Z78 d   1     -26.355   9.512  -8.193  0.00  0.00    -0.008 A 
ATOM     20  H   Z78 d   1     -24.843   9.977  -6.701  0.00  0.00     0.086 H 
ATOM     21  CAL Z78 d   1     -26.396  10.895  -8.782  0.00  0.00    -0.065 A 
ATOM     22  CAZ Z78 d   1     -27.205   8.484  -8.738  0.00  0.00     0.044 A 
ATOM     23  CAT Z78 d   1     -27.266  11.172  -9.861  0.00  0.00    -0.061 A 
ATOM     24  H   Z78 d   1     -25.757  11.681  -8.379  0.00  0.00     0.085 H 
ATOM     25  CAJ Z78 d   1     -28.127  10.136 -10.393  0.00  0.00    -0.075 A 
ATOM     26  CAK Z78 d   1     -28.083   8.769  -9.817  0.00  0.00    -0.056 A 
ATOM     27  H   Z78 d   1     -28.806  10.360 -11.215  0.00  0.00     0.084 H 
ATOM     28  H   Z78 d   1     -28.724   7.985 -10.221  0.00  0.00     0.087 H 
ATOM     29  N1  Z78 d   1     -27.183   7.220  -8.218  0.00  0.00    -0.334 N 
ATOM     30  CAX Z78 d   1     -26.318   6.909  -7.125  0.00  0.00     0.186 A 
ATOM     31  H1  Z78 d   1     -27.774   6.511  -8.604  0.00  0.00     0.168 HD
ATOM     32  OAC Z78 d   1     -26.302   5.607  -6.588  0.00  0.00    -0.172 OA
BRANCH  23  33
ATOM     33  CAA Z78 d   1     -27.330  12.567 -10.481  0.00  0.00    -0.051 C 
ATOM     34  H   Z78 d   1     -27.070  12.506 -11.538  0.00  0.00     0.033 H 
ATOM     35  H   Z78 d   1     -28.340  12.964 -10.376  0.00  0.00     0.033 H 
ATOM     36  H   Z78 d   1     -26.625  13.223  -9.970  0.00  0.00     0.033 H 
ENDBRANCH  23  33
ENDBRANCH  14  17
ENDBRANCH   1  14
BRANCH   2  37
ATOM     37  CAW Z78 d   1     -24.573   3.756  -3.556  0.00  0.00     0.074 A 
ATOM     38  CAI Z78 d   1     -24.554   3.139  -2.339  0.00  0.00    -0.054 A 
ATOM     39  CAG Z78 d   1     -24.684   1.728  -2.246  0.00  0.00    -0.081 A 
ATOM     40  H   Z78 d   1     -24.438   3.733  -1.433  0.00  0.00     0.087 H 
ATOM     41  CAF Z78 d   1     -24.852   0.919  -3.466  0.00  0.00    -0.080 A 
ATOM     42  H   Z78 d   1     -24.660   1.242  -1.270  0.00  0.00     0.083 H 
ATOM     43  CAH Z78 d   1     -24.891   1.555  -4.726  0.00  0.00    -0.043 A 
ATOM     44  H   Z78 d   1     -24.946  -0.165  -3.396  0.00  0.00     0.083 H 
ATOM     45  CAU Z78 d   1     -24.766   2.919  -4.816  0.00  0.00     0.143 A 
ATOM     46  H   Z78 d   1     -25.021   0.961  -5.630  0.00  0.00     0.088 H 
ATOM     47  FAE Z78 d   1     -24.816   3.545  -6.028  0.00  0.00    -0.204 F 
ENDBRANCH   2  37
TORSDOF 7
