REMARK  17 active torsions:
REMARK  status: ('A' for Active; 'I' for Inactive)
REMARK       I    between atoms: C7_16  and  N1_3 
REMARK    1  A    between atoms: N1_3  and  C8_17 
REMARK    2  A    between atoms: N1_3  and  C9_18 
REMARK    3  A    between atoms: C2_5  and  C7_16 
REMARK       I    between atoms: N2_7  and  C15_24 
REMARK    4  A    between atoms: C16_25  and  N2_7 
REMARK    5  A    between atoms: C17_26  and  O3_11 
REMARK    6  A    between atoms: C15_24  and  C4_12 
REMARK    7  A    between atoms: N4_13  and  C30_38 
REMARK    8  A    between atoms: C6_15  and  C14_23 
REMARK    9  A    between atoms: C8_17  and  C12_21 
REMARK   10  A    between atoms: C9_18  and  C10_19 
REMARK   11  A    between atoms: C10_19  and  C11_20 
REMARK   12  A    between atoms: C12_21  and  C13_22 
REMARK   13  A    between atoms: C17_26  and  C16_25 
REMARK   14  A    between atoms: C16_25  and  C18_27 
REMARK   15  A    between atoms: C25_34  and  C17_26 
REMARK   16  A    between atoms: C18_27  and  C19_28 
REMARK   17  A    between atoms: C30_38  and  C31_39 
ROOT
ATOM      1  C16 Z75 d   1      22.477  10.766  23.039  0.00  0.00     0.043 C 
ATOM      2  H26 Z75 d   1      21.615  11.320  22.640  0.00  0.00     0.077 H 
ENDROOT
BRANCH   1   3
ATOM      3  N2  Z75 d   1      23.545  11.742  23.374  0.00  0.00    -0.349 N 
ATOM      4  C15 Z75 d   1      23.321  13.086  23.554  0.00  0.00     0.252 C 
ATOM      5  O2  Z75 d   1      22.196  13.570  23.463  0.00  0.00    -0.268 OA
ATOM      6  H2  Z75 d   1      24.480  11.402  23.474  0.00  0.00     0.163 HD
BRANCH   4   7
ATOM      7  C4  Z75 d   1      24.506  13.910  23.861  0.00  0.00     0.033 A 
ATOM      8  C3  Z75 d   1      25.792  13.527  23.441  0.00  0.00    -0.052 A 
ATOM      9  C2  Z75 d   1      26.929  14.335  23.727  0.00  0.00     0.033 A 
ATOM     10  H3  Z75 d   1      25.920  12.602  22.891  0.00  0.00     0.086 H 
ATOM     11  C1  Z75 d   1      26.772  15.539  24.453  0.00  0.00    -0.062 A 
ATOM     12  C6  Z75 d   1      25.483  15.943  24.885  0.00  0.00    -0.060 A 
ATOM     13  H1  Z75 d   1      27.637  16.152  24.679  0.00  0.00     0.085 H 
ATOM     14  C5  Z75 d   1      24.355  15.124  24.583  0.00  0.00    -0.062 A 
ATOM     15  H8  Z75 d   1      23.368  15.432  24.909  0.00  0.00     0.085 H 
BRANCH   9  16
ATOM     16  C7  Z75 d   1      28.251  13.879  23.281  0.00  0.00     0.253 C 
ATOM     17  N1  Z75 d   1      28.559  13.658  21.919  0.00  0.00    -0.348 N 
ATOM     18  O1  Z75 d   1      29.083  13.671  24.149  0.00  0.00    -0.267 OA
BRANCH  17  19
ATOM     19  C8  Z75 d   1      29.926  13.171  21.612  0.00  0.00    -0.002 C 
ATOM     20  H9  Z75 d   1      30.544  13.234  22.520  0.00  0.00     0.064 H 
ATOM     21  H10 Z75 d   1      30.365  13.802  20.825  0.00  0.00     0.064 H 
BRANCH  19  22
ATOM     22  C12 Z75 d   1      29.890  11.685  21.118  0.00  0.00    -0.053 C 
ATOM     23  H18 Z75 d   1      30.927  11.335  21.012  0.00  0.00     0.034 H 
ATOM     24  H19 Z75 d   1      29.393  11.662  20.137  0.00  0.00     0.034 H 
BRANCH  22  25
ATOM     25  C13 Z75 d   1      29.142  10.702  22.062  0.00  0.00    -0.075 C 
ATOM     26  H20 Z75 d   1      29.170   9.689  21.633  0.00  0.00     0.027 H 
ATOM     27  H21 Z75 d   1      28.096  11.024  22.173  0.00  0.00     0.027 H 
ATOM     28  H22 Z75 d   1      29.631  10.697  23.047  0.00  0.00     0.027 H 
ENDBRANCH  22  25
ENDBRANCH  19  22
ENDBRANCH  17  19
BRANCH  17  29
ATOM     29  C9  Z75 d   1      27.651  13.871  20.753  0.00  0.00    -0.002 C 
ATOM     30  H11 Z75 d   1      26.647  14.124  21.124  0.00  0.00     0.064 H 
ATOM     31  H12 Z75 d   1      27.601  12.943  20.165  0.00  0.00     0.064 H 
BRANCH  29  32
ATOM     32  C10 Z75 d   1      28.153  15.014  19.845  0.00  0.00    -0.053 C 
ATOM     33  H13 Z75 d   1      27.412  15.181  19.049  0.00  0.00     0.034 H 
ATOM     34  H14 Z75 d   1      29.111  14.711  19.397  0.00  0.00     0.034 H 
BRANCH  32  35
ATOM     35  C11 Z75 d   1      28.363  16.338  20.607  0.00  0.00    -0.075 C 
ATOM     36  H15 Z75 d   1      28.719  17.110  19.909  0.00  0.00     0.027 H 
ATOM     37  H16 Z75 d   1      29.109  16.189  21.402  0.00  0.00     0.027 H 
ATOM     38  H17 Z75 d   1      27.410  16.659  21.054  0.00  0.00     0.027 H 
ENDBRANCH  32  35
ENDBRANCH  29  32
ENDBRANCH  17  29
ENDBRANCH   9  16
BRANCH  12  39
ATOM     39  C14 Z75 d   1      25.311  17.232  25.654  0.00  0.00    -0.051 C 
ATOM     40  H23 Z75 d   1      26.291  17.715  25.784  0.00  0.00     0.033 H 
ATOM     41  H24 Z75 d   1      24.875  17.015  26.640  0.00  0.00     0.033 H 
ATOM     42  H25 Z75 d   1      24.642  17.905  25.097  0.00  0.00     0.033 H 
ENDBRANCH  12  39
ENDBRANCH   4   7
ENDBRANCH   1   3
BRANCH   1  43
ATOM     43  C17 Z75 d   1      21.987   9.967  24.262  0.00  0.00     0.084 C 
ATOM     44  H27 Z75 d   1      22.857   9.479  24.725  0.00  0.00     0.089 H 
BRANCH  43  45
ATOM     45  O3  Z75 d   1      21.052   8.980  23.839  0.00  0.00    -0.391 OA
ATOM     46  H6  Z75 d   1      21.472   8.392  23.223  0.00  0.00     0.210 HD
ENDBRANCH  43  45
BRANCH  43  47
ATOM     47  C25 Z75 d   1      21.277  10.824  25.324  0.00  0.00     0.151 C 
ATOM     48  N3  Z75 d   1      21.031   9.967  26.507  0.00  0.00    -0.065 N 
ATOM     49  C29 Z75 d   1      20.375  10.717  27.599  0.00  0.00     0.105 C 
ATOM     50  H4  Z75 d   1      21.913   9.609  26.840  0.00  0.00     0.277 HD
ATOM     51  H5  Z75 d   1      20.437   9.199  26.236  0.00  0.00     0.277 HD
ATOM     52  C28 Z75 d   1      19.016  11.253  27.114  0.00  0.00     0.106 C 
ATOM     53  H38 Z75 d   1      21.015  11.560  27.900  0.00  0.00     0.078 H 
ATOM     54  H39 Z75 d   1      20.219  10.050  28.459  0.00  0.00     0.078 H 
ATOM     55  N4  Z75 d   1      19.127  12.090  25.876  0.00  0.00    -0.064 N 
ATOM     56  H36 Z75 d   1      18.357  10.398  26.902  0.00  0.00     0.078 H 
ATOM     57  H37 Z75 d   1      18.575  11.866  27.914  0.00  0.00     0.078 H 
ATOM     58  C26 Z75 d   1      19.933  11.431  24.806  0.00  0.00     0.113 C 
ATOM     59  H7  Z75 d   1      19.618  12.931  26.138  0.00  0.00     0.280 HD
ATOM     60  H34 Z75 d   1      20.164  12.179  24.033  0.00  0.00     0.079 H 
ATOM     61  H35 Z75 d   1      19.332  10.622  24.366  0.00  0.00     0.079 H 
ATOM     62  H33 Z75 d   1      21.941  11.653  25.610  0.00  0.00     0.091 H 
BRANCH  55  63
ATOM     63  C30 Z75 d   1      17.762  12.517  25.341  0.00  0.00     0.107 C 
ATOM     64  H40 Z75 d   1      17.928  13.083  24.413  0.00  0.00     0.083 H 
ATOM     65  H41 Z75 d   1      17.297  13.172  26.092  0.00  0.00     0.083 H 
BRANCH  63  66
ATOM     66  C31 Z75 d   1      16.765  11.381  25.027  0.00  0.00    -0.033 A 
ATOM     67  C32 Z75 d   1      15.797  10.970  25.995  0.00  0.00    -0.075 A 
ATOM     68  C33 Z75 d   1      14.886   9.925  25.712  0.00  0.00    -0.082 A 
ATOM     69  H42 Z75 d   1      15.760  11.465  26.959  0.00  0.00     0.084 H 
ATOM     70  C34 Z75 d   1      14.925   9.274  24.453  0.00  0.00    -0.083 A 
ATOM     71  H43 Z75 d   1      14.159   9.622  26.457  0.00  0.00     0.083 H 
ATOM     72  C35 Z75 d   1      15.877   9.669  23.483  0.00  0.00    -0.082 A 
ATOM     73  H44 Z75 d   1      14.226   8.475  24.234  0.00  0.00     0.083 H 
ATOM     74  C36 Z75 d   1      16.785  10.712  23.767  0.00  0.00    -0.075 A 
ATOM     75  H45 Z75 d   1      15.909   9.170  22.521  0.00  0.00     0.083 H 
ATOM     76  H46 Z75 d   1      17.508  11.009  23.016  0.00  0.00     0.084 H 
ENDBRANCH  63  66
ENDBRANCH  55  63
ENDBRANCH  43  47
ENDBRANCH   1  43
BRANCH   1  77
ATOM     77  C18 Z75 d   1      23.026   9.840  21.926  0.00  0.00    -0.020 C 
ATOM     78  H28 Z75 d   1      22.187   9.271  21.498  0.00  0.00     0.043 H 
ATOM     79  H29 Z75 d   1      23.750   9.144  22.375  0.00  0.00     0.043 H 
BRANCH  77  80
ATOM     80  C19 Z75 d   1      23.714  10.597  20.809  0.00  0.00    -0.050 A 
ATOM     81  C20 Z75 d   1      25.050  10.285  20.469  0.00  0.00    -0.039 A 
ATOM     82  C21 Z75 d   1      25.690  10.991  19.426  0.00  0.00     0.119 A 
ATOM     83  H30 Z75 d   1      25.581   9.508  21.006  0.00  0.00     0.089 H 
ATOM     84  F1  Z75 d   1      26.944  10.681  19.123  0.00  0.00    -0.206 F 
ATOM     85  C22 Z75 d   1      25.052  12.009  18.698  0.00  0.00    -0.009 A 
ATOM     86  C23 Z75 d   1      23.724  12.313  19.044  0.00  0.00     0.119 A 
ATOM     87  H31 Z75 d   1      25.563  12.539  17.902  0.00  0.00     0.092 H 
ATOM     88  F2  Z75 d   1      23.096  13.267  18.377  0.00  0.00    -0.206 F 
ATOM     89  C24 Z75 d   1      23.039  11.633  20.079  0.00  0.00    -0.039 A 
ATOM     90  H32 Z75 d   1      22.014  11.892  20.319  0.00  0.00     0.089 H 
ENDBRANCH  77  80
ENDBRANCH   1  77
TORSDOF 17
