REMARK  15 active torsions:
REMARK  status: ('A' for Active; 'I' for Inactive)
REMARK    1  A    between atoms: N_1  and  CA_2 
REMARK    2  A    between atoms: CA_2  and  C_3 
REMARK    3  A    between atoms: CA_2  and  CB_5 
REMARK       I    between atoms: C_3  and  N_6 
REMARK    4  A    between atoms: N_6  and  CA_7 
REMARK    5  A    between atoms: CA_7  and  C_8 
REMARK    6  A    between atoms: CA_7  and  CB_10 
REMARK       I    between atoms: C_8  and  N_11 
REMARK    7  A    between atoms: CA_12  and  C_13 
REMARK       I    between atoms: C_13  and  N_18 
REMARK    8  A    between atoms: N_18  and  CA_19 
REMARK    9  A    between atoms: CA_19  and  CB_20 
REMARK   10  A    between atoms: CA_19  and  B_24 
REMARK   11  A    between atoms: CB_20  and  CG_21 
REMARK   12  A    between atoms: CG_21  and  CD_22 
REMARK   13  A    between atoms: CD_22  and  CE_23 
REMARK   14  A    between atoms: B_24  and  O1_25 
REMARK   15  A    between atoms: B_24  and  O2_26 
ROOT
ATOM      1  C   ALA d   1      13.657  36.183  17.402  0.00  0.00     0.243 C 
ATOM      2  O   ALA d   1      14.493  36.469  16.550  0.00  0.00    -0.271 OA
ATOM      3  N   PRO d   1      13.418  35.031  17.969  0.00  0.00    -0.337 N 
ATOM      4  CA  PRO d   1      14.192  33.835  17.637  0.00  0.00     0.091 C 
ATOM      5  CB  PRO d   1      13.577  32.733  18.506  0.00  0.00    -0.036 C 
ATOM      6  CG  PRO d   1      12.789  33.430  19.577  0.00  0.00    -0.048 C 
ATOM      7  CD  PRO d   1      12.352  34.773  18.969  0.00  0.00    -0.001 C 
ATOM      8  H13 PRO d   1      15.262  33.973  17.854  0.00  0.00     0.087 H 
ATOM      9  H14 PRO d   1      14.369  32.117  18.956  0.00  0.00     0.036 H 
ATOM     10  H15 PRO d   1      12.916  32.096  17.901  0.00  0.00     0.036 H 
ATOM     11  H16 PRO d   1      13.415  33.598  20.466  0.00  0.00     0.035 H 
ATOM     12  H17 PRO d   1      11.909  32.832  19.856  0.00  0.00     0.035 H 
ATOM     13  H18 PRO d   1      11.366  34.690  18.488  0.00  0.00     0.064 H 
ATOM     14  H19 PRO d   1      12.322  35.565  19.732  0.00  0.00     0.064 H 
ENDROOT
BRANCH   4  15
ATOM     15  C   PRO d   1      13.982  33.480  16.159  0.00  0.00     0.240 C 
ATOM     16  O   PRO d   1      12.875  33.755  15.666  0.00  0.00    -0.271 OA
ATOM     17  N   BNO d   1      14.958  32.880  15.502  0.00  0.00    -0.358 N 
ATOM     18  H20 BNO d   1      15.814  32.701  15.988  0.00  0.00     0.162 HD
BRANCH  17  19
ATOM     19  CA  BNO d   1      14.858  32.462  14.104  0.00  0.00     0.046 C 
ATOM     20  H21 BNO d   1      13.861  32.738  13.730  0.00  0.00     0.064 H 
BRANCH  19  21
ATOM     21  CB  BNO d   1      15.883  33.189  13.219  0.00  0.00    -0.049 C 
ATOM     22  H22 BNO d   1      15.928  32.673  12.249  0.00  0.00     0.035 H 
ATOM     23  H23 BNO d   1      16.865  33.131  13.711  0.00  0.00     0.035 H 
BRANCH  21  24
ATOM     24  CG  BNO d   1      15.559  34.676  12.961  0.00  0.00    -0.064 C 
ATOM     25  H24 BNO d   1      15.384  35.191  13.917  0.00  0.00     0.033 H 
ATOM     26  H25 BNO d   1      14.661  34.758  12.331  0.00  0.00     0.033 H 
BRANCH  24  27
ATOM     27  CD  BNO d   1      16.752  35.305  12.245  0.00  0.00    -0.069 C 
ATOM     28  H26 BNO d   1      16.768  34.923  11.213  0.00  0.00     0.032 H 
ATOM     29  H27 BNO d   1      17.666  34.987  12.768  0.00  0.00     0.032 H 
BRANCH  27  30
ATOM     30  CE  BNO d   1      16.753  36.838  12.181  0.00  0.00    -0.077 C 
ATOM     31  H28 BNO d   1      17.651  37.182  11.647  0.00  0.00     0.027 H 
ATOM     32  H29 BNO d   1      16.754  37.248  13.202  0.00  0.00     0.027 H 
ATOM     33  H30 BNO d   1      15.855  37.183  11.648  0.00  0.00     0.027 H 
ENDBRANCH  27  30
ENDBRANCH  24  27
ENDBRANCH  21  24
ENDBRANCH  19  21
BRANCH  19  34
ATOM     34  B   BNO d   1      14.960  30.893  14.080  0.00  0.00     0.515 B 
BRANCH  34  35
ATOM     35  O1  BNO d   1      14.941  30.304  12.717  0.00  0.00    -0.436 OA
ATOM     36  H31 BNO d   1      15.194  29.390  12.765  0.00  0.00     0.184 HD
ENDBRANCH  34  35
BRANCH  34  37
ATOM     37  O2  BNO d   1      14.024  30.207  15.015  0.00  0.00    -0.436 OA
ATOM     38  H32 BNO d   1      14.073  30.619  15.870  0.00  0.00     0.184 HD
ENDBRANCH  34  37
ENDBRANCH  19  34
ENDBRANCH  17  19
ENDBRANCH   4  15
BRANCH   1  39
ATOM     39  CA  ALA d   1      12.737  37.327  17.802  0.00  0.00     0.086 C 
ATOM     40  H9  ALA d   1      12.405  37.206  18.844  0.00  0.00     0.086 H 
BRANCH  39  41
ATOM     41  N   ALA d   1      13.479  38.601  17.618  0.00  0.00    -0.346 N 
ATOM     42  C   ALA d   1      13.286  39.559  18.510  0.00  0.00     0.248 C 
ATOM     43  O   ALA d   1      12.554  39.495  19.533  0.00  0.00    -0.271 OA
ATOM     44  H8  ALA d   1      14.102  38.730  16.847  0.00  0.00     0.163 HD
BRANCH  42  45
ATOM     45  CA  ALA d   1      14.074  40.837  18.188  0.00  0.00     0.172 C 
ATOM     46  H4  ALA d   1      14.336  40.817  17.120  0.00  0.00     0.098 H 
BRANCH  45  47
ATOM     47  N   ALA d   1      13.395  42.123  18.439  0.00  0.00    -0.067 N 
ATOM     48  H1  ALA d   1      14.010  42.882  18.190  0.00  0.00     0.275 HD
ATOM     49  H2  ALA d   1      13.155  42.191  19.416  0.00  0.00     0.275 HD
ATOM     50  H3  ALA d   1      12.556  42.174  17.883  0.00  0.00     0.275 HD
ENDBRANCH  45  47
BRANCH  45  51
ATOM     51  CB  ALA d   1      15.345  40.719  19.022  0.00  0.00    -0.042 C 
ATOM     52  H5  ALA d   1      15.830  39.754  18.816  0.00  0.00     0.030 H 
ATOM     53  H6  ALA d   1      15.090  40.781  20.090  0.00  0.00     0.030 H 
ATOM     54  H7  ALA d   1      16.032  41.538  18.761  0.00  0.00     0.030 H 
ENDBRANCH  45  51
ENDBRANCH  42  45
ENDBRANCH  39  41
BRANCH  39  55
ATOM     55  CB  ALA d   1      11.535  37.397  16.852  0.00  0.00    -0.049 C 
ATOM     56  H10 ALA d   1      10.942  36.475  16.943  0.00  0.00     0.030 H 
ATOM     57  H11 ALA d   1      11.892  37.503  15.817  0.00  0.00     0.030 H 
ATOM     58  H12 ALA d   1      10.909  38.263  17.115  0.00  0.00     0.030 H 
ENDBRANCH  39  55
ENDBRANCH   1  39
TORSDOF 15
