REMARK  3 active torsions:
REMARK  status: ('A' for Active; 'I' for Inactive)
REMARK    1  A    between atoms: C1_3  and  C2_5 
REMARK    2  A    between atoms: C2_5  and  C17_22 
REMARK    3  A    between atoms: C3_7  and  C4_9 
ROOT
ATOM      1  N   723 d   1      37.175  33.537   5.466  0.00  0.00    -0.322 N 
ATOM      2 CL   723 d   1      39.785  28.251   6.194  0.00  0.00    -0.084 Cl
ATOM      3  C1  723 d   1      35.001  32.698   6.291  0.00  0.00     0.032 A 
ATOM      4  O1  723 d   1      35.436  34.937   5.572  0.00  0.00    -0.268 OA
ATOM      5  C3  723 d   1      35.580  31.357   6.518  0.00  0.00    -0.001 A 
ATOM      6  C5  723 d   1      37.008  31.172   6.158  0.00  0.00     0.004 A 
ATOM      7  C6  723 d   1      37.768  32.342   5.628  0.00  0.00     0.046 A 
ATOM      8  C7  723 d   1      35.885  33.781   5.760  0.00  0.00     0.253 A 
ATOM      9  C13 723 d   1      37.643  29.951   6.319  0.00  0.00    -0.049 A 
ATOM     10  C14 723 d   1      38.988  29.837   5.975  0.00  0.00     0.035 A 
ATOM     11  C15 723 d   1      39.711  30.925   5.475  0.00  0.00    -0.060 A 
ATOM     12  C16 723 d   1      39.116  32.176   5.303  0.00  0.00    -0.055 A 
ATOM     13  H   723 d   1      37.736  34.305   5.098  0.00  0.00     0.169 HD
ATOM     14  H   723 d   1      37.098  29.092   6.709  0.00  0.00     0.087 H 
ATOM     15  H   723 d   1      40.761  30.793   5.214  0.00  0.00     0.086 H 
ATOM     16  H   723 d   1      39.697  33.014   4.919  0.00  0.00     0.087 H 
ENDROOT
BRANCH   5  17
ATOM     17  C4  723 d   1      34.766  30.220   7.009  0.00  0.00    -0.024 A 
ATOM     18  C8  723 d   1      34.652  29.889   8.353  0.00  0.00    -0.072 A 
ATOM     19  C9  723 d   1      33.860  28.796   8.706  0.00  0.00    -0.082 A 
ATOM     20  H   723 d   1      35.170  30.471   9.116  0.00  0.00     0.084 H 
ATOM     21  C10 723 d   1      33.198  28.041   7.736  0.00  0.00    -0.083 A 
ATOM     22  H   723 d   1      33.756  28.527   9.757  0.00  0.00     0.083 H 
ATOM     23  C11 723 d   1      33.317  28.376   6.391  0.00  0.00    -0.082 A 
ATOM     24  H   723 d   1      32.587  27.188   8.033  0.00  0.00     0.083 H 
ATOM     25  C12 723 d   1      34.106  29.467   6.032  0.00  0.00    -0.072 A 
ATOM     26  H   723 d   1      32.800  27.793   5.629  0.00  0.00     0.083 H 
ATOM     27  H   723 d   1      34.210  29.736   4.981  0.00  0.00     0.084 H 
ENDBRANCH   5  17
BRANCH   3  28
ATOM     28  C2  723 d   1      33.555  32.965   6.645  0.00  0.00     0.045 C 
ATOM     29  H   723 d   1      32.970  32.046   6.601  0.00  0.00     0.056 H 
ATOM     30  H   723 d   1      33.105  33.660   5.936  0.00  0.00     0.056 H 
BRANCH  28  31
ATOM     31  C17 723 d   1      33.544  33.545   8.050  0.00  0.00     0.177 C 
ATOM     32  O2  723 d   1      34.476  33.287   8.851  0.00  0.00    -0.648 OA
ATOM     33  O3  723 d   1      32.604  34.285   8.378  0.00  0.00    -0.648 OA
ENDBRANCH  28  31
ENDBRANCH   3  28
TORSDOF 3
