REMARK  7 active torsions:
REMARK  status: ('A' for Active; 'I' for Inactive)
REMARK    1  A    between atoms: C7_11  and  C16_20 
REMARK    2  A    between atoms: C11_15  and  C8_12 
REMARK    3  A    between atoms: C9_13  and  C10_14 
REMARK    4  A    between atoms: C11_15  and  C12_16 
REMARK    5  A    between atoms: C11_15  and  C13_17 
REMARK    6  A    between atoms: C13_17  and  C14_18 
REMARK    7  A    between atoms: C14_18  and  C15_19 
ROOT
ATOM      1  N   976 d   1      37.440  33.969   5.673  0.00  0.00    -0.253 NA
ATOM      2 CL   976 d   1      39.814  28.522   6.101  0.00  0.00    -0.084 Cl
ATOM      3  C1  976 d   1      39.111  30.159   5.964  0.00  0.00     0.035 A 
ATOM      4  C2  976 d   1      39.905  31.258   5.639  0.00  0.00    -0.060 A 
ATOM      5  C3  976 d   1      39.365  32.541   5.539  0.00  0.00    -0.053 A 
ATOM      6  C4  976 d   1      38.006  32.737   5.762  0.00  0.00     0.068 A 
ATOM      7  C5  976 d   1      37.182  31.549   6.105  0.00  0.00     0.006 A 
ATOM      8  C6  976 d   1      37.752  30.295   6.197  0.00  0.00    -0.049 A 
ATOM      9  C7  976 d   1      36.112  34.189   5.891  0.00  0.00     0.039 A 
ATOM     10  C8  976 d   1      35.189  33.080   6.239  0.00  0.00    -0.007 A 
ATOM     11  C9  976 d   1      35.739  31.727   6.360  0.00  0.00    -0.004 A 
ATOM     12  H   976 d   1      40.970  31.112   5.459  0.00  0.00     0.086 H 
ATOM     13  H   976 d   1      40.006  33.386   5.287  0.00  0.00     0.087 H 
ATOM     14  H   976 d   1      37.143  29.427   6.449  0.00  0.00     0.087 H 
ENDROOT
BRANCH  10  15
ATOM     15  C11 976 d   1      33.747  33.284   6.484  0.00  0.00     0.059 C 
ATOM     16  H   976 d   1      33.212  32.336   6.538  0.00  0.00     0.064 H 
BRANCH  15  17
ATOM     17  C12 976 d   1      33.601  33.995   7.804  0.00  0.00     0.181 C 
ATOM     18  O1  976 d   1      34.375  33.776   8.719  0.00  0.00    -0.647 OA
ATOM     19  O2  976 d   1      32.637  34.875   8.022  0.00  0.00    -0.647 OA
ENDBRANCH  15  17
BRANCH  15  20
ATOM     20  C13 976 d   1      33.134  34.070   5.324  0.00  0.00    -0.049 C 
ATOM     21  H   976 d   1      33.837  34.845   5.019  0.00  0.00     0.034 H 
ATOM     22  H   976 d   1      32.191  34.502   5.657  0.00  0.00     0.034 H 
BRANCH  20  23
ATOM     23  C14 976 d   1      32.858  33.163   4.125  0.00  0.00    -0.067 C 
ATOM     24  H   976 d   1      33.797  32.698   3.824  0.00  0.00     0.032 H 
ATOM     25  H   976 d   1      32.432  33.771   3.326  0.00  0.00     0.032 H 
BRANCH  23  26
ATOM     26  C15 976 d   1      31.870  32.064   4.466  0.00  0.00    -0.076 C 
ATOM     27  H   976 d   1      32.273  31.452   5.273  0.00  0.00     0.027 H 
ATOM     28  H   976 d   1      30.927  32.510   4.783  0.00  0.00     0.027 H 
ATOM     29  H   976 d   1      31.702  31.442   3.587  0.00  0.00     0.027 H 
ENDBRANCH  23  26
ENDBRANCH  20  23
ENDBRANCH  15  20
ENDBRANCH  10  15
BRANCH   9  30
ATOM     30  C16 976 d   1      35.557  35.583   5.775  0.00  0.00    -0.035 C 
ATOM     31  H   976 d   1      34.793  35.605   4.998  0.00  0.00     0.035 H 
ATOM     32  H   976 d   1      35.117  35.878   6.728  0.00  0.00     0.035 H 
ATOM     33  H   976 d   1      36.361  36.272   5.516  0.00  0.00     0.035 H 
ENDBRANCH   9  30
BRANCH  11  34
ATOM     34  C10 976 d   1      34.885  30.567   6.685  0.00  0.00    -0.024 A 
ATOM     35  C17 976 d   1      34.510  30.286   7.990  0.00  0.00    -0.072 A 
ATOM     36  C18 976 d   1      33.711  29.177   8.235  0.00  0.00    -0.082 A 
ATOM     37  H   976 d   1      34.837  30.925   8.810  0.00  0.00     0.084 H 
ATOM     38  C19 976 d   1      33.293  28.354   7.192  0.00  0.00    -0.083 A 
ATOM     39  H   976 d   1      33.407  28.948   9.256  0.00  0.00     0.083 H 
ATOM     40  C20 976 d   1      33.672  28.645   5.887  0.00  0.00    -0.082 A 
ATOM     41  H   976 d   1      32.670  27.484   7.399  0.00  0.00     0.083 H 
ATOM     42  C21 976 d   1      34.473  29.754   5.637  0.00  0.00    -0.072 A 
ATOM     43  H   976 d   1      33.344  28.009   5.065  0.00  0.00     0.083 H 
ATOM     44  H   976 d   1      34.778  29.986   4.617  0.00  0.00     0.084 H 
ENDBRANCH  11  34
TORSDOF 7
