REMARK  10 active torsions:
REMARK  status: ('A' for Active; 'I' for Inactive)
REMARK    1  A    between atoms: C2'_2  and  C2A_3 
REMARK    2  A    between atoms: C5'_7  and  C35_9 
REMARK    3  A    between atoms: C35_9  and  N3_10 
REMARK    4  A    between atoms: C5_13  and  C5A_16 
REMARK    5  A    between atoms: C4_14  and  C4A_15 
REMARK    6  A    between atoms: C5A_16  and  C5B_17 
REMARK    7  A    between atoms: C5B_17  and  O5G_18 
REMARK    8  A    between atoms: O5G_18  and  P1_19 
REMARK    9  A    between atoms: P1_19  and  O11_20 
REMARK   10  A    between atoms: O11_20  and  P2_23 
ROOT
ATOM      1  N3  TDP d   1      22.892 -63.293  -0.214  0.00  0.00    -0.349 N 
ATOM      2  C2  TDP d   1      22.277 -63.630  -1.334  0.00  0.00     0.018 A 
ATOM      3  S1  TDP d   1      20.762 -64.279  -1.076  0.00  0.00    -0.087 SA
ATOM      4  C5  TDP d   1      20.919 -64.104   0.632  0.00  0.00     0.008 A 
ATOM      5  C4  TDP d   1      22.133 -63.554   0.951  0.00  0.00     0.021 A 
ATOM      6  H9  TDP d   1      22.714 -63.498  -2.323  0.00  0.00     0.123 H 
ENDROOT
BRANCH   1   7
ATOM      7  C35 TDP d   1      24.299 -62.722  -0.176  0.00  0.00     0.028 C 
ATOM      8  H7  TDP d   1      24.843 -63.203   0.650  0.00  0.00     0.072 H 
ATOM      9  H8  TDP d   1      24.793 -62.962  -1.129  0.00  0.00     0.072 H 
BRANCH   7  10
ATOM     10  C5' TDP d   1      24.364 -61.217   0.026  0.00  0.00     0.023 A 
ATOM     11  C4' TDP d   1      23.902 -60.219  -0.967  0.00  0.00     0.132 A 
ATOM     12  N3' TDP d   1      24.036 -58.851  -0.699  0.00  0.00    -0.216 NA
ATOM     13  N4' TDP d   1      23.363 -60.532  -2.130  0.00  0.00    -0.383 N 
ATOM     14  C2' TDP d   1      24.583 -58.466   0.455  0.00  0.00     0.124 A 
ATOM     15  N1' TDP d   1      25.028 -59.364   1.406  0.00  0.00    -0.245 NA
ATOM     16  C6' TDP d   1      24.915 -60.725   1.186  0.00  0.00     0.015 A 
ATOM     17  H6  TDP d   1      25.267 -61.417   1.942  0.00  0.00     0.116 H 
ATOM     18  H4  TDP d   1      23.236 -61.521  -2.389  0.00  0.00     0.157 HD
ATOM     19  H5  TDP d   1      23.069 -59.788  -2.779  0.00  0.00     0.157 HD
BRANCH  14  20
ATOM     20  C2A TDP d   1      24.726 -57.014   0.763  0.00  0.00    -0.019 C 
ATOM     21  H1  TDP d   1      25.195 -56.893   1.751  0.00  0.00     0.037 H 
ATOM     22  H2  TDP d   1      23.733 -56.541   0.768  0.00  0.00     0.037 H 
ATOM     23  H3  TDP d   1      25.356 -56.537  -0.002  0.00  0.00     0.037 H 
ENDBRANCH  14  20
ENDBRANCH   7  10
ENDBRANCH   1   7
BRANCH   5  24
ATOM     24  C4A TDP d   1      22.670 -63.251   2.319  0.00  0.00    -0.036 C 
ATOM     25  H10 TDP d   1      21.922 -63.529   3.076  0.00  0.00     0.035 H 
ATOM     26  H11 TDP d   1      22.889 -62.176   2.397  0.00  0.00     0.035 H 
ATOM     27  H12 TDP d   1      23.593 -63.826   2.486  0.00  0.00     0.035 H 
ENDBRANCH   5  24
BRANCH   4  28
ATOM     28  C5A TDP d   1      19.816 -64.511   1.564  0.00  0.00    -0.013 C 
ATOM     29  H13 TDP d   1      19.921 -63.947   2.502  0.00  0.00     0.044 H 
ATOM     30  H14 TDP d   1      19.908 -65.587   1.771  0.00  0.00     0.044 H 
BRANCH  28  31
ATOM     31  C5B TDP d   1      18.446 -64.244   0.989  0.00  0.00     0.036 C 
ATOM     32  H15 TDP d   1      18.229 -64.966   0.188  0.00  0.00     0.075 H 
ATOM     33  H16 TDP d   1      18.403 -63.222   0.584  0.00  0.00     0.075 H 
BRANCH  31  34
ATOM     34  O5G TDP d   1      17.476 -64.392   2.065  0.00  0.00    -0.289 OA
BRANCH  34  35
ATOM     35  P1  TDP d   1      16.068 -63.595   2.073  0.00  0.00     0.418 P 
ATOM     36  O12 TDP d   1      15.335 -63.993   3.293  0.00  0.00    -0.624 OA
ATOM     37  O13 TDP d   1      16.329 -62.146   1.841  0.00  0.00    -0.624 OA
BRANCH  35  38
ATOM     38  O11 TDP d   1      15.280 -64.177   0.787  0.00  0.00    -0.173 OA
BRANCH  38  39
ATOM     39  P2  TDP d   1      14.891 -65.637   0.217  0.00  0.00     0.431 P 
ATOM     40  O21 TDP d   1      13.460 -65.502  -0.390  0.00  0.00    -0.616 OA
ATOM     41  O22 TDP d   1      15.847 -65.945  -0.876  0.00  0.00    -0.616 OA
ATOM     42  O23 TDP d   1      14.843 -66.579   1.366  0.00  0.00    -0.616 OA
ENDBRANCH  38  39
ENDBRANCH  35  38
ENDBRANCH  34  35
ENDBRANCH  31  34
ENDBRANCH  28  31
ENDBRANCH   4  28
TORSDOF 10
