REMARK  13 active torsions:
REMARK  status: ('A' for Active; 'I' for Inactive)
REMARK    1  A    between atoms: C15_20  and  O1_2 
REMARK    2  A    between atoms: C2_3  and  N2_4 
REMARK    3  A    between atoms: N2_4  and  C12_17 
REMARK    4  A    between atoms: N6_9  and  C6_8 
REMARK    5  A    between atoms: CA'_32  and  N6_9 
REMARK    6  A    between atoms: N9_13  and  C9_12 
REMARK    7  A    between atoms: C9_12  and  C10_15 
REMARK    8  A    between atoms: C9_12  and  C11_16 
REMARK    9  A    between atoms: C1'_14  and  CA'_32 
REMARK   10  A    between atoms: C12_17  and  C13_18 
REMARK   11  A    between atoms: C12_17  and  C15_20 
REMARK   12  A    between atoms: C13_18  and  C14_19 
REMARK   13  A    between atoms: C4'_27  and  C1B_21 
ROOT
ATOM      1  N1  SLQ d   1      55.336 -17.504 -11.365  0.00  0.00    -0.043 NA
ATOM      2  C2  SLQ d   1      53.986 -17.467 -11.485  0.00  0.00     0.726 A 
ATOM      3  N3  SLQ d   1      53.386 -16.335 -11.937  0.00  0.00    -0.042 NA
ATOM      4  C4  SLQ d   1      54.122 -15.261 -12.274  0.00  0.00     0.183 A 
ATOM      5  C5  SLQ d   1      55.473 -15.304 -12.161  0.00  0.00     0.151 A 
ATOM      6  C6  SLQ d   1      56.067 -16.441 -11.700  0.00  0.00     0.176 A 
ATOM      7  N7  SLQ d   1      55.961 -14.132 -12.560  0.00  0.00    -0.236 NA
ATOM      8  C8  SLQ d   1      54.916 -13.357 -12.926  0.00  0.00     0.069 A 
ATOM      9  N9  SLQ d   1      53.781 -14.061 -12.744  0.00  0.00    -0.320 N 
ATOM     10  H   SLQ d   1      54.980 -12.337 -13.304  0.00  0.00     0.143 H 
ENDROOT
BRANCH   6  11
ATOM     11  N6  SLQ d   1      57.489 -16.504 -11.496  0.00  0.00    -0.368 N 
ATOM     12  H   SLQ d   1      57.810 -15.663 -11.975  0.00  0.00     0.161 HD
BRANCH  11  13
ATOM     13  CA' SLQ d   1      58.725 -17.063 -11.009  0.00  0.00     0.018 C 
ATOM     14  H   SLQ d   1      58.523 -17.725 -10.167  0.00  0.00     0.071 H 
ATOM     15  H   SLQ d   1      59.386 -16.262 -10.678  0.00  0.00     0.071 H 
BRANCH  13  16
ATOM     16  C1' SLQ d   1      59.382 -17.839 -12.121  0.00  0.00    -0.041 A 
ATOM     17  C2' SLQ d   1      60.165 -17.110 -13.012  0.00  0.00    -0.074 A 
ATOM     18  C3' SLQ d   1      60.736 -17.767 -14.095  0.00  0.00    -0.070 A 
ATOM     19  H   SLQ d   1      60.327 -16.043 -12.863  0.00  0.00     0.084 H 
ATOM     20  C4' SLQ d   1      60.515 -19.137 -14.284  0.00  0.00    -0.007 A 
ATOM     21  H   SLQ d   1      61.358 -17.215 -14.800  0.00  0.00     0.084 H 
ATOM     22  C5' SLQ d   1      59.706 -19.863 -13.383  0.00  0.00    -0.070 A 
ATOM     23  C6' SLQ d   1      59.125 -19.207 -12.289  0.00  0.00    -0.074 A 
ATOM     24  H   SLQ d   1      59.534 -20.928 -13.537  0.00  0.00     0.084 H 
ATOM     25  H   SLQ d   1      58.490 -19.747 -11.587  0.00  0.00     0.084 H 
BRANCH  20  26
ATOM     26  C1B SLQ d   1      61.102 -19.734 -15.393  0.00  0.00     0.066 A 
ATOM     27  N1B SLQ d   1      61.824 -18.944 -16.267  0.00  0.00    -0.260 NA
ATOM     28  C5B SLQ d   1      62.399 -19.498 -17.376  0.00  0.00     0.003 A 
ATOM     29  C4B SLQ d   1      62.237 -20.874 -17.609  0.00  0.00    -0.066 A 
ATOM     30  H   SLQ d   1      62.974 -18.883 -18.068  0.00  0.00     0.114 H 
ATOM     31  C3B SLQ d   1      61.513 -21.667 -16.746  0.00  0.00    -0.079 A 
ATOM     32  H   SLQ d   1      62.694 -21.323 -18.491  0.00  0.00     0.085 H 
ATOM     33  C2B SLQ d   1      60.934 -21.108 -15.634  0.00  0.00    -0.054 A 
ATOM     34  H   SLQ d   1      61.401 -22.733 -16.945  0.00  0.00     0.083 H 
ATOM     35  H   SLQ d   1      60.352 -21.722 -14.947  0.00  0.00     0.087 H 
ENDBRANCH  20  26
ENDBRANCH  13  16
ENDBRANCH  11  13
ENDBRANCH   6  11
BRANCH   2  36
ATOM     36  N2  SLQ d   1      53.185 -18.583 -11.030  0.00  0.00    -0.216 N 
ATOM     37  H   SLQ d   1      53.812 -19.360 -11.240  0.00  0.00     0.178 HD
BRANCH  36  38
ATOM     38  C12 SLQ d   1      52.057 -19.299 -10.465  0.00  0.00     0.046 C 
ATOM     39  H   SLQ d   1      52.234 -19.532  -9.415  0.00  0.00     0.076 H 
BRANCH  38  40
ATOM     40  C13 SLQ d   1      50.789 -18.439 -10.557  0.00  0.00    -0.047 C 
ATOM     41  H   SLQ d   1      50.681 -18.170 -11.608  0.00  0.00     0.035 H 
ATOM     42  H   SLQ d   1      50.931 -17.615  -9.858  0.00  0.00     0.035 H 
BRANCH  40  43
ATOM     43  C14 SLQ d   1      49.479 -19.114 -10.156  0.00  0.00    -0.075 C 
ATOM     44  H   SLQ d   1      49.303 -19.976 -10.800  0.00  0.00     0.027 H 
ATOM     45  H   SLQ d   1      49.543 -19.442  -9.118  0.00  0.00     0.027 H 
ATOM     46  H   SLQ d   1      48.658 -18.405 -10.264  0.00  0.00     0.027 H 
ENDBRANCH  40  43
ENDBRANCH  38  40
BRANCH  38  47
ATOM     47  C15 SLQ d   1      51.879 -20.558 -11.275  0.00  0.00     0.036 C 
ATOM     48  H   SLQ d   1      52.277 -21.366 -10.661  0.00  0.00     0.077 H 
ATOM     49  H   SLQ d   1      50.819 -20.604 -11.525  0.00  0.00     0.077 H 
BRANCH  47  50
ATOM     50  O1  SLQ d   1      52.564 -20.630 -12.495  0.00  0.00    -0.399 OA
ATOM     51  H   SLQ d   1      52.375 -21.471 -12.918  0.00  0.00     0.209 HD
ENDBRANCH  47  50
ENDBRANCH  38  47
ENDBRANCH  36  38
ENDBRANCH   2  36
BRANCH   9  52
ATOM     52  C9  SLQ d   1      52.420 -13.606 -12.980  0.00  0.00     0.012 C 
ATOM     53  H   SLQ d   1      52.553 -12.594 -13.362  0.00  0.00     0.072 H 
BRANCH  52  54
ATOM     54  C10 SLQ d   1      51.679 -14.328 -14.104  0.00  0.00    -0.057 C 
ATOM     55  H   SLQ d   1      52.220 -14.191 -15.040  0.00  0.00     0.030 H 
ATOM     56  H   SLQ d   1      51.616 -15.391 -13.872  0.00  0.00     0.030 H 
ATOM     57  H   SLQ d   1      50.675 -13.915 -14.199  0.00  0.00     0.030 H 
ENDBRANCH  52  54
BRANCH  52  58
ATOM     58  C11 SLQ d   1      51.593 -13.467 -11.705  0.00  0.00    -0.057 C 
ATOM     59  H   SLQ d   1      51.532 -14.434 -11.206  0.00  0.00     0.030 H 
ATOM     60  H   SLQ d   1      52.068 -12.744 -11.042  0.00  0.00     0.030 H 
ATOM     61  H   SLQ d   1      50.590 -13.124 -11.960  0.00  0.00     0.030 H 
ENDBRANCH  52  58
ENDBRANCH   9  52
TORSDOF 13
