REMARK  13 active torsions:
REMARK  status: ('A' for Active; 'I' for Inactive)
REMARK    1  A    between atoms: C1_1  and  O11_11 
REMARK    2  A    between atoms: C2_2  and  O13_13 
REMARK    3  A    between atoms: C10_10  and  O14_14 
REMARK    4  A    between atoms: O11_11  and  C12_12 
REMARK    5  A    between atoms: O13_13  and  C23_23 
REMARK    6  A    between atoms: O14_14  and  C15_15 
REMARK    7  A    between atoms: C18_18  and  N22_22 
REMARK       I    between atoms: N22_22  and  C32_32 
REMARK    8  A    between atoms: C23_23  and  C24_24 
REMARK    9  A    between atoms: C24_24  and  C25_25 
REMARK   10  A    between atoms: C25_25  and  N26_26 
REMARK   11  A    between atoms: C32_32  and  C33_33 
REMARK   12  A    between atoms: C33_33  and  C34_34 
REMARK       I    between atoms: C34_34  and  N35_35 
REMARK   13  A    between atoms: N35_35  and  C38_38 
ROOT
ATOM      1  C1  88Z d   1      -4.127   3.138  30.704  0.00  0.00     0.102 A 
ATOM      2  C2  88Z d   1      -5.010   4.301  30.513  0.00  0.00     0.104 A 
ATOM      3  C3  88Z d   1      -4.507   5.601  30.367  0.00  0.00    -0.019 A 
ATOM      4  C4  88Z d   1      -3.131   5.795  30.381  0.00  0.00     0.072 A 
ATOM      5  C5  88Z d   1      -2.250   4.613  30.582  0.00  0.00     0.029 A 
ATOM      6  C6  88Z d   1      -2.738   3.330  30.741  0.00  0.00    -0.033 A 
ATOM      7  N7  88Z d   1      -2.588   7.019  30.229  0.00  0.00    -0.260 NA
ATOM      8  C8  88Z d   1      -1.258   7.250  30.217  0.00  0.00     0.005 A 
ATOM      9  C9  88Z d   1      -0.354   6.181  30.453  0.00  0.00    -0.032 A 
ATOM     10  C10 88Z d   1      -0.822   4.860  30.612  0.00  0.00     0.090 A 
ATOM     11  H1  88Z d   1      -5.181   6.442  30.245  0.00  0.00     0.091 H 
ATOM     12  H2  88Z d   1      -2.065   2.494  30.890  0.00  0.00     0.089 H 
ATOM     13  H3  88Z d   1      -0.881   8.249  30.028  0.00  0.00     0.114 H 
ATOM     14  H4  88Z d   1       0.710   6.383  30.512  0.00  0.00     0.090 H 
ENDROOT
BRANCH  10  15
ATOM     15  O14 88Z d   1      -0.010   3.751  30.761  0.00  0.00    -0.307 OA
BRANCH  15  16
ATOM     16  C15 88Z d   1       1.282   3.834  30.326  0.00  0.00     0.114 A 
ATOM     17  C16 88Z d   1       1.658   3.771  28.999  0.00  0.00    -0.045 A 
ATOM     18  C17 88Z d   1       2.992   3.871  28.673  0.00  0.00    -0.054 A 
ATOM     19  H8  88Z d   1       0.912   3.644  28.223  0.00  0.00     0.088 H 
ATOM     20  C18 88Z d   1       3.986   4.049  29.649  0.00  0.00     0.037 A 
ATOM     21  H9  88Z d   1       3.284   3.811  27.631  0.00  0.00     0.087 H 
ATOM     22  C19 88Z d   1       3.653   4.091  30.998  0.00  0.00    -0.017 A 
ATOM     23  C20 88Z d   1       2.308   4.002  31.361  0.00  0.00     0.152 A 
ATOM     24  H10 88Z d   1       4.423   4.191  31.754  0.00  0.00     0.091 H 
ATOM     25  F21 88Z d   1       1.857   4.067  32.625  0.00  0.00    -0.203 F 
BRANCH  20  26
ATOM     26  N22 88Z d   1       5.266   4.151  29.226  0.00  0.00    -0.326 N 
ATOM     27  C32 88Z d   1       6.411   3.854  29.876  0.00  0.00     0.240 C 
ATOM     28  O36 88Z d   1       6.469   3.506  31.031  0.00  0.00    -0.272 OA
ATOM     29  H11 88Z d   1       5.381   4.497  28.295  0.00  0.00     0.169 HD
BRANCH  27  30
ATOM     30  C33 88Z d   1       7.714   3.928  29.101  0.00  0.00     0.122 A 
ATOM     31  C45 88Z d   1       8.678   2.846  29.627  0.00  0.00    -0.040 A 
ATOM     32  C46 88Z d   1       8.986   4.319  29.884  0.00  0.00    -0.040 A 
ATOM     33  H32 88Z d   1       9.296   2.271  28.921  0.00  0.00     0.035 H 
ATOM     34  H33 88Z d   1       8.372   2.196  30.460  0.00  0.00     0.035 H 
ATOM     35  H34 88Z d   1       8.901   4.729  30.901  0.00  0.00     0.035 H 
ATOM     36  H35 88Z d   1       9.825   4.804  29.363  0.00  0.00     0.035 H 
BRANCH  30  37
ATOM     37  C34 88Z d   1       7.644   4.176  27.577  0.00  0.00     0.240 C 
ATOM     38  N35 88Z d   1       8.774   4.373  26.871  0.00  0.00    -0.326 N 
ATOM     39  H27 88Z d   1       9.653   4.387  27.348  0.00  0.00     0.169 HD
ATOM     40  O37 88Z d   1       6.580   4.587  27.098  0.00  0.00    -0.272 OA
BRANCH  38  41
ATOM     41  C38 88Z d   1       8.745   4.555  25.510  0.00  0.00     0.034 A 
ATOM     42  C39 88Z d   1       8.172   5.706  24.934  0.00  0.00    -0.054 A 
ATOM     43  C40 88Z d   1       8.118   5.905  23.548  0.00  0.00    -0.044 A 
ATOM     44  H28 88Z d   1       7.758   6.466  25.587  0.00  0.00     0.087 H 
ATOM     45  C41 88Z d   1       8.712   4.909  22.735  0.00  0.00     0.116 A 
ATOM     46  H29 88Z d   1       7.644   6.780  23.118  0.00  0.00     0.088 H 
ATOM     47  C42 88Z d   1       9.293   3.769  23.298  0.00  0.00    -0.044 A 
ATOM     48  F44 88Z d   1       8.723   5.043  21.391  0.00  0.00    -0.206 F 
ATOM     49  C43 88Z d   1       9.347   3.581  24.685  0.00  0.00    -0.054 A 
ATOM     50  H30 88Z d   1       9.712   3.012  22.645  0.00  0.00     0.088 H 
ATOM     51  H31 88Z d   1       9.837   2.713  25.112  0.00  0.00     0.087 H 
ENDBRANCH  38  41
ENDBRANCH  30  37
ENDBRANCH  27  30
ENDBRANCH  20  26
ENDBRANCH  15  16
ENDBRANCH  10  15
BRANCH   1  52
ATOM     52  O11 88Z d   1      -4.766   1.909  30.815  0.00  0.00    -0.353 OA
BRANCH  52  53
ATOM     53  C12 88Z d   1      -4.097   0.665  31.033  0.00  0.00     0.010 C 
ATOM     54  H5  88Z d   1      -4.838  -0.146  31.081  0.00  0.00     0.066 H 
ATOM     55  H6  88Z d   1      -3.540   0.709  31.981  0.00  0.00     0.066 H 
ATOM     56  H7  88Z d   1      -3.398   0.475  30.206  0.00  0.00     0.066 H 
ENDBRANCH  52  53
ENDBRANCH   1  52
BRANCH   2  57
ATOM     57  O13 88Z d   1      -6.328   3.979  30.502  0.00  0.00    -0.348 OA
BRANCH  57  58
ATOM     58  C23 88Z d   1      -7.387   4.935  30.628  0.00  0.00     0.028 C 
ATOM     59  H12 88Z d   1      -7.447   5.560  29.725  0.00  0.00     0.075 H 
ATOM     60  H13 88Z d   1      -7.221   5.575  31.507  0.00  0.00     0.075 H 
BRANCH  58  61
ATOM     61  C24 88Z d   1      -8.672   4.124  30.798  0.00  0.00    -0.022 C 
ATOM     62  H14 88Z d   1      -9.420   4.699  31.364  0.00  0.00     0.038 H 
ATOM     63  H15 88Z d   1      -8.466   3.178  31.319  0.00  0.00     0.038 H 
BRANCH  61  64
ATOM     64  C25 88Z d   1      -9.157   3.861  29.392  0.00  0.00     0.086 C 
ATOM     65  H16 88Z d   1      -8.348   3.365  28.835  0.00  0.00     0.076 H 
ATOM     66  H17 88Z d   1      -9.388   4.827  28.920  0.00  0.00     0.076 H 
BRANCH  64  67
ATOM     67  N26 88Z d   1     -10.338   3.026  29.318  0.00  0.00    -0.067 N 
ATOM     68  C27 88Z d   1     -10.624   2.509  27.974  0.00  0.00     0.103 C 
ATOM     69  C28 88Z d   1     -12.123   2.218  27.866  0.00  0.00     0.042 C 
ATOM     70  H19 88Z d   1     -10.055   1.583  27.805  0.00  0.00     0.079 H 
ATOM     71  H20 88Z d   1     -10.338   3.258  27.221  0.00  0.00     0.079 H 
ATOM     72  O29 88Z d   1     -12.434   1.397  28.982  0.00  0.00    -0.388 OA
ATOM     73  H21 88Z d   1     -12.345   1.690  26.927  0.00  0.00     0.076 H 
ATOM     74  H22 88Z d   1     -12.700   3.154  27.905  0.00  0.00     0.076 H 
ATOM     75  C30 88Z d   1     -12.336   2.212  30.159  0.00  0.00     0.042 C 
ATOM     76  C31 88Z d   1     -10.838   2.314  30.491  0.00  0.00     0.103 C 
ATOM     77  H23 88Z d   1     -12.880   1.744  30.993  0.00  0.00     0.076 H 
ATOM     78  H24 88Z d   1     -12.752   3.212  29.965  0.00  0.00     0.076 H 
ATOM     79  H25 88Z d   1     -10.667   2.887  31.414  0.00  0.00     0.079 H 
ATOM     80  H26 88Z d   1     -10.377   1.320  30.586  0.00  0.00     0.079 H 
ATOM     81  H18 88Z d   1     -11.024   3.764  29.331  0.00  0.00     0.280 HD
ENDBRANCH  64  67
ENDBRANCH  61  64
ENDBRANCH  58  61
ENDBRANCH  57  58
ENDBRANCH   2  57
TORSDOF 13
