REMARK WARNING: 32 MAX_TORS EXCEEDED!!!
REMARK  49 active torsions:
REMARK  status: ('A' for Active; 'I' for Inactive)
REMARK    1  A    between atoms: N_1  and  CA_2 
REMARK    2  A    between atoms: CA_2  and  C_3 
REMARK    3  A    between atoms: CA_2  and  CB_5 
REMARK       I    between atoms: C_3  and  N_6 
REMARK    4  A    between atoms: N_6  and  CA_7 
REMARK    5  A    between atoms: CA_7  and  C_8 
REMARK    6  A    between atoms: CA_7  and  CB_10 
REMARK       I    between atoms: C_8  and  N_17 
REMARK    7  A    between atoms: CB_10  and  CG_11 
REMARK    8  A    between atoms: CG_11  and  CD_12 
REMARK    9  A    between atoms: CD_12  and  NE_13 
REMARK       I    between atoms: NE_13  and  CZ_14 
REMARK       I    between atoms: CZ_14  and  NH1_15 
REMARK       I    between atoms: CZ_14  and  NH2_16 
REMARK   10  A    between atoms: N_17  and  CA_18 
REMARK   11  A    between atoms: CA_18  and  C_19 
REMARK   12  A    between atoms: CA_18  and  CB_21 
REMARK       I    between atoms: C_19  and  N_24 
REMARK   13  A    between atoms: CB_21  and  OG1_22 
REMARK   14  A    between atoms: CB_21  and  CG2_23 
REMARK   15  A    between atoms: N_24  and  CA_25 
REMARK   16  A    between atoms: CA_25  and  CB_26 
REMARK   17  A    between atoms: CA_25  and  C_33 
REMARK   18  A    between atoms: CB_26  and  CG_27 
REMARK   19  A    between atoms: CG_27  and  CD_28 
REMARK   20  A    between atoms: CD_28  and  CE_29 
REMARK   21  A    between atoms: CE_29  and  NZ_30 
REMARK   22  A    between atoms: NZ_30  and  CH1_31 
REMARK   23  A    between atoms: NZ_30  and  CH2_32 
REMARK       I    between atoms: C_33  and  N_35 
REMARK   24  A    between atoms: N_35  and  CA_36 
REMARK   25  A    between atoms: CA_36  and  C_37 
REMARK   26  A    between atoms: CA_36  and  CB_39 
REMARK       I    between atoms: C_37  and  N_44 
REMARK   27  A    between atoms: CB_39  and  CG_40 
REMARK   28  A    between atoms: CG_40  and  CD_41 
REMARK       I    between atoms: CD_41  and  NE2_43 
REMARK   29  A    between atoms: N_44  and  CA_45 
REMARK   30  A    between atoms: CA_45  and  C_46 
REMARK   31  A    between atoms: CA_45  and  CB_48 
REMARK       I    between atoms: C_46  and  N_51 
REMARK   32  A    between atoms: CB_48  and  OG1_49 
REMARK   33  A    between atoms: CB_48  and  CG2_50 
REMARK   34  A    between atoms: N_51  and  CA_52 
REMARK   35  A    between atoms: CA_52  and  C_53 
REMARK   36  A    between atoms: CA_52  and  CB_55 
REMARK       I    between atoms: C_53  and  N_56 
REMARK   37  A    between atoms: N_56  and  CA_57 
REMARK   38  A    between atoms: CA_57  and  C_58 
REMARK   39  A    between atoms: CA_57  and  CB_60 
REMARK       I    between atoms: C_58  and  N_67 
REMARK   40  A    between atoms: CB_60  and  CG_61 
REMARK   41  A    between atoms: CG_61  and  CD_62 
REMARK   42  A    between atoms: CD_62  and  NE_63 
REMARK       I    between atoms: NE_63  and  CZ_64 
REMARK       I    between atoms: CZ_64  and  NH1_65 
REMARK   43  A    between atoms: N_67  and  CA_68 
REMARK   44  A    between atoms: CA_68  and  C_69 
REMARK   45  A    between atoms: CA_68  and  CB_71 
REMARK   46  A    between atoms: CB_71  and  CG_72 
REMARK   47  A    between atoms: CG_72  and  CD_73 
REMARK   48  A    between atoms: CD_73  and  CE_74 
REMARK   49  A    between atoms: CE_74  and  NZ_75 
ROOT
ATOM      1  CA  NON d   1      36.077  -7.506 -28.772  0.00  0.00     0.090 C 
ATOM      2  H46 NON d   1      36.370  -6.885 -27.913  0.00  0.00     0.087 H 
ENDROOT
BRANCH   1   3
ATOM      3  N   NON d   1      36.161  -6.682 -29.975  0.00  0.00    -0.346 N 
ATOM      4  C   NON d   1      37.118  -5.767 -30.111  0.00  0.00     0.241 C 
ATOM      5  O   NON d   1      37.971  -5.562 -29.248  0.00  0.00    -0.271 OA
ATOM      6  H45 NON d   1      35.490  -6.807 -30.706  0.00  0.00     0.163 HD
BRANCH   4   7
ATOM      7  CA  NON d   1      37.123  -4.965 -31.413  0.00  0.00     0.089 C 
ATOM      8  H29 NON d   1      38.167  -4.842 -31.738  0.00  0.00     0.087 H 
BRANCH   7   9
ATOM      9  N   NON d   1      36.394  -5.656 -32.467  0.00  0.00    -0.346 N 
ATOM     10  C   NON d   1      36.767  -6.853 -32.901  0.00  0.00     0.243 C 
ATOM     11  O   NON d   1      37.739  -7.457 -32.448  0.00  0.00    -0.271 OA
ATOM     12  H28 NON d   1      35.593  -5.218 -32.874  0.00  0.00     0.163 HD
BRANCH  10  13
ATOM     13  CA  NON d   1      35.910  -7.458 -34.005  0.00  0.00     0.113 C 
ATOM     14  H22 NON d   1      35.807  -6.725 -34.819  0.00  0.00     0.091 H 
BRANCH  13  15
ATOM     15  N   NON d   1      36.519  -8.663 -34.548  0.00  0.00    -0.344 N 
ATOM     16  C   NON d   1      36.555  -8.902 -35.856  0.00  0.00     0.241 C 
ATOM     17  O   NON d   1      36.100  -8.122 -36.696  0.00  0.00    -0.271 OA
ATOM     18  H21 NON d   1      36.921  -9.330 -33.921  0.00  0.00     0.163 HD
BRANCH  16  19
ATOM     19  CA  NON d   1      37.214 -10.211 -36.279  0.00  0.00     0.089 C 
ATOM     20  H9  NON d   1      37.350 -10.840 -35.387  0.00  0.00     0.087 H 
BRANCH  19  21
ATOM     21  N   NON d   1      36.386 -10.941 -37.233  0.00  0.00    -0.346 N 
ATOM     22  C   NON d   1      35.814 -12.098 -36.911  0.00  0.00     0.248 C 
ATOM     23  O   NON d   1      35.942 -12.621 -35.804  0.00  0.00    -0.271 OA
ATOM     24  H8  NON d   1      36.245 -10.564 -38.148  0.00  0.00     0.163 HD
BRANCH  22  25
ATOM     25  CA  NON d   1      34.973 -12.763 -37.994  0.00  0.00     0.172 C 
ATOM     26  H4  NON d   1      35.454 -12.591 -38.968  0.00  0.00     0.098 H 
BRANCH  25  27
ATOM     27  N   NON d   1      34.875 -14.233 -37.762  0.00  0.00    -0.067 N 
ATOM     28  H1  NON d   1      34.316 -14.651 -38.489  0.00  0.00     0.275 HD
ATOM     29  H2  NON d   1      34.445 -14.404 -36.867  0.00  0.00     0.275 HD
ATOM     30  H3  NON d   1      35.798 -14.637 -37.774  0.00  0.00     0.275 HD
ENDBRANCH  25  27
BRANCH  25  31
ATOM     31  CB  NON d   1      33.584 -12.156 -38.018  0.00  0.00    -0.042 C 
ATOM     32  H5  NON d   1      33.660 -11.072 -38.189  0.00  0.00     0.030 H 
ATOM     33  H6  NON d   1      33.086 -12.341 -37.054  0.00  0.00     0.030 H 
ATOM     34  H7  NON d   1      32.997 -12.615 -38.828  0.00  0.00     0.030 H 
ENDBRANCH  25  31
ENDBRANCH  22  25
ENDBRANCH  19  21
BRANCH  19  35
ATOM     35  CB  NON d   1      38.584  -9.909 -36.882  0.00  0.00    -0.036 C 
ATOM     36  H10 NON d   1      38.456  -9.170 -37.687  0.00  0.00     0.036 H 
ATOM     37  H11 NON d   1      38.995 -10.840 -37.300  0.00  0.00     0.036 H 
BRANCH  35  38
ATOM     38  CG  NON d   1      39.574  -9.356 -35.873  0.00  0.00    -0.048 C 
ATOM     39  H12 NON d   1      39.816 -10.142 -35.143  0.00  0.00     0.035 H 
ATOM     40  H13 NON d   1      39.115  -8.502 -35.354  0.00  0.00     0.035 H 
BRANCH  38  41
ATOM     41  CD  NON d   1      40.852  -8.896 -36.543  0.00  0.00     0.009 C 
ATOM     42  H14 NON d   1      40.628  -8.026 -37.177  0.00  0.00     0.064 H 
ATOM     43  H15 NON d   1      41.241  -9.714 -37.167  0.00  0.00     0.064 H 
BRANCH  41  44
ATOM     44  NE  NON d   1      41.871  -8.520 -35.569  0.00  0.00    -0.227 N 
ATOM     45  CZ  NON d   1      42.646  -9.388 -34.926  0.00  0.00     0.665 C 
ATOM     46  NH1 NON d   1      43.545  -8.955 -34.052  0.00  0.00    -0.235 N 
ATOM     47  NH2 NON d   1      42.535 -10.687 -35.168  0.00  0.00    -0.235 N 
ATOM     48  H17 NON d   1      44.145  -9.628 -33.554  0.00  0.00     0.174 HD
ATOM     49  H18 NON d   1      43.643  -7.946 -33.871  0.00  0.00     0.174 HD
ATOM     50  H19 NON d   1      41.838 -11.027 -35.846  0.00  0.00     0.174 HD
ATOM     51  H20 NON d   1      43.146 -11.356 -34.678  0.00  0.00     0.174 HD
ATOM     52  H16 NON d   1      41.998  -7.518 -35.367  0.00  0.00     0.177 HD
ENDBRANCH  41  44
ENDBRANCH  38  41
ENDBRANCH  35  38
ENDBRANCH  19  35
ENDBRANCH  16  19
ENDBRANCH  13  15
BRANCH  13  53
ATOM     53  CB  NON d   1      34.513  -7.758 -33.421  0.00  0.00     0.060 C 
ATOM     54  H23 NON d   1      33.985  -6.809 -33.245  0.00  0.00     0.086 H 
BRANCH  53  55
ATOM     55  OG1 NON d   1      34.647  -8.465 -32.180  0.00  0.00    -0.393 OA
ATOM     56  H24 NON d   1      33.785  -8.647 -31.826  0.00  0.00     0.210 HD
ENDBRANCH  53  55
BRANCH  53  57
ATOM     57  CG2 NON d   1      33.710  -8.607 -34.387  0.00  0.00    -0.050 C 
ATOM     58  H25 NON d   1      32.718  -8.812 -33.958  0.00  0.00     0.031 H 
ATOM     59  H26 NON d   1      34.236  -9.556 -34.565  0.00  0.00     0.031 H 
ATOM     60  H27 NON d   1      33.593  -8.068 -35.339  0.00  0.00     0.031 H 
ENDBRANCH  53  57
ENDBRANCH  13  53
ENDBRANCH  10  13
ENDBRANCH   7   9
BRANCH   7  61
ATOM     61  CB  NON d   1      36.517  -3.577 -31.181  0.00  0.00    -0.038 C 
ATOM     62  H30 NON d   1      36.941  -3.165 -30.253  0.00  0.00     0.036 H 
ATOM     63  H31 NON d   1      35.429  -3.689 -31.069  0.00  0.00     0.036 H 
BRANCH  61  64
ATOM     64  CG  NON d   1      36.783  -2.585 -32.312  0.00  0.00    -0.061 C 
ATOM     65  H32 NON d   1      36.161  -1.691 -32.157  0.00  0.00     0.033 H 
ATOM     66  H33 NON d   1      36.517  -3.056 -33.270  0.00  0.00     0.033 H 
BRANCH  64  67
ATOM     67  CD  NON d   1      38.250  -2.166 -32.356  0.00  0.00    -0.042 C 
ATOM     68  H34 NON d   1      38.869  -3.052 -32.560  0.00  0.00     0.035 H 
ATOM     69  H35 NON d   1      38.530  -1.740 -31.381  0.00  0.00     0.035 H 
BRANCH  67  70
ATOM     70  CE  NON d   1      38.498  -1.128 -33.440  0.00  0.00     0.083 C 
ATOM     71  H36 NON d   1      37.696  -0.376 -33.394  0.00  0.00     0.075 H 
ATOM     72  H37 NON d   1      38.473  -1.631 -34.418  0.00  0.00     0.075 H 
BRANCH  70  73
ATOM     73  NZ  NON d   1      39.797  -0.438 -33.300  0.00  0.00    -0.079 N 
ATOM     74  H38 NON d   1      39.785   0.024 -32.404  0.00  0.00     0.278 HD
BRANCH  73  75
ATOM     75  CH1 NON d   1      41.011  -1.267 -33.323  0.00  0.00     0.066 C 
ATOM     76  H39 NON d   1      41.896  -0.624 -33.210  0.00  0.00     0.068 H 
ATOM     77  H40 NON d   1      41.069  -1.806 -34.280  0.00  0.00     0.068 H 
ATOM     78  H41 NON d   1      40.976  -1.992 -32.496  0.00  0.00     0.068 H 
ENDBRANCH  73  75
BRANCH  73  79
ATOM     79  CH2 NON d   1      39.876   0.588 -34.348  0.00  0.00     0.066 C 
ATOM     80  H42 NON d   1      38.966   1.205 -34.326  0.00  0.00     0.068 H 
ATOM     81  H43 NON d   1      39.966   0.102 -35.331  0.00  0.00     0.068 H 
ATOM     82  H44 NON d   1      40.755   1.225 -34.172  0.00  0.00     0.068 H 
ENDBRANCH  73  79
ENDBRANCH  70  73
ENDBRANCH  67  70
ENDBRANCH  64  67
ENDBRANCH  61  64
ENDBRANCH   7  61
ENDBRANCH   4   7
ENDBRANCH   1   3
BRANCH   1  83
ATOM     83  C   NON d   1      37.012  -8.709 -28.841  0.00  0.00     0.241 C 
ATOM     84  O   NON d   1      37.597  -9.106 -27.834  0.00  0.00    -0.271 OA
ATOM     85  N   NON d   1      37.150  -9.286 -30.030  0.00  0.00    -0.344 N 
ATOM     86  H53 NON d   1      36.658  -8.912 -30.816  0.00  0.00     0.163 HD
BRANCH  85  87
ATOM     87  CA  NON d   1      38.004 -10.454 -30.212  0.00  0.00     0.113 C 
ATOM     88  H54 NON d   1      37.987 -11.033 -29.276  0.00  0.00     0.091 H 
BRANCH  87  89
ATOM     89  C   NON d   1      39.447 -10.081 -30.523  0.00  0.00     0.243 C 
ATOM     90  O   NON d   1      40.374 -10.809 -30.172  0.00  0.00    -0.271 OA
ATOM     91  N   NON d   1      39.631  -8.945 -31.186  0.00  0.00    -0.346 N 
ATOM     92  H60 NON d   1      38.836  -8.393 -31.438  0.00  0.00     0.163 HD
BRANCH  91  93
ATOM     93  CA  NON d   1      40.963  -8.482 -31.555  0.00  0.00     0.086 C 
ATOM     94  H61 NON d   1      41.405  -9.220 -32.240  0.00  0.00     0.086 H 
BRANCH  93  95
ATOM     95  C   NON d   1      41.876  -8.351 -30.345  0.00  0.00     0.240 C 
ATOM     96  O   NON d   1      43.101  -8.380 -30.478  0.00  0.00    -0.271 OA
ATOM     97  N   NON d   1      41.284  -8.209 -29.163  0.00  0.00    -0.346 N 
ATOM     98  H65 NON d   1      40.286  -8.203 -29.104  0.00  0.00     0.163 HD
BRANCH  97  99
ATOM     99  CA  NON d   1      42.082  -8.062 -27.956  0.00  0.00     0.089 C 
ATOM    100  H66 NON d   1      42.871  -8.828 -27.976  0.00  0.00     0.087 H 
BRANCH  99 101
ATOM    101  C   NON d   1      41.274  -8.259 -26.672  0.00  0.00     0.241 C 
ATOM    102  O   NON d   1      40.078  -7.967 -26.629  0.00  0.00    -0.271 OA
ATOM    103  N   NON d   1      41.961  -8.768 -25.647  0.00  0.00    -0.345 N 
ATOM    104  H78 NON d   1      42.924  -8.985 -25.809  0.00  0.00     0.163 HD
BRANCH 103 105
ATOM    105  CA  NON d   1      41.435  -9.040 -24.302  0.00  0.00     0.096 C 
ATOM    106  H79 NON d   1      41.829  -8.264 -23.630  0.00  0.00     0.089 H 
BRANCH 105 107
ATOM    107  C   NON d   1      41.896 -10.396 -23.781  0.00  0.00     0.196 C 
ATOM    108  O   NON d   1      41.136 -11.029 -23.016  0.00  0.00    -0.646 OA
ATOM    109  OXT NON d   1      43.029 -10.794 -24.126  0.00  0.00    -0.646 OA
ENDBRANCH 105 107
BRANCH 105 110
ATOM    110  CB  NON d   1      39.903  -8.976 -24.252  0.00  0.00    -0.037 C 
ATOM    111  H80 NON d   1      39.553  -9.660 -23.465  0.00  0.00     0.036 H 
ATOM    112  H81 NON d   1      39.511  -9.306 -25.225  0.00  0.00     0.036 H 
BRANCH 110 113
ATOM    113  CG  NON d   1      39.351  -7.585 -23.959  0.00  0.00    -0.061 C 
ATOM    114  H82 NON d   1      39.466  -6.958 -24.855  0.00  0.00     0.033 H 
ATOM    115  H83 NON d   1      39.918  -7.143 -23.127  0.00  0.00     0.033 H 
BRANCH 113 116
ATOM    116  CD  NON d   1      37.885  -7.643 -23.582  0.00  0.00    -0.043 C 
ATOM    117  H84 NON d   1      37.788  -8.122 -22.597  0.00  0.00     0.035 H 
ATOM    118  H85 NON d   1      37.346  -8.238 -24.334  0.00  0.00     0.035 H 
BRANCH 116 119
ATOM    119  CE  NON d   1      37.271  -6.252 -23.518  0.00  0.00     0.080 C 
ATOM    120  H86 NON d   1      36.218  -6.347 -23.214  0.00  0.00     0.075 H 
ATOM    121  H87 NON d   1      37.324  -5.798 -24.519  0.00  0.00     0.075 H 
BRANCH 119 122
ATOM    122  NZ  NON d   1      37.966  -5.355 -22.552  0.00  0.00    -0.079 N 
ATOM    123  H88 NON d   1      37.519  -4.452 -22.551  0.00  0.00     0.274 HD
ATOM    124  H89 NON d   1      38.931  -5.252 -22.824  0.00  0.00     0.274 HD
ATOM    125  H90 NON d   1      37.918  -5.755 -21.628  0.00  0.00     0.274 HD
ENDBRANCH 119 122
ENDBRANCH 116 119
ENDBRANCH 113 116
ENDBRANCH 110 113
ENDBRANCH 105 110
ENDBRANCH 103 105
ENDBRANCH  99 101
BRANCH  99 126
ATOM    126  CB  NON d   1      42.743  -6.680 -27.956  0.00  0.00    -0.036 C 
ATOM    127  H67 NON d   1      41.971  -5.928 -27.736  0.00  0.00     0.036 H 
ATOM    128  H68 NON d   1      43.159  -6.496 -28.958  0.00  0.00     0.036 H 
BRANCH 126 129
ATOM    129  CG  NON d   1      43.855  -6.527 -26.946  0.00  0.00    -0.048 C 
ATOM    130  H69 NON d   1      44.629  -7.281 -27.153  0.00  0.00     0.035 H 
ATOM    131  H70 NON d   1      43.444  -6.689 -25.939  0.00  0.00     0.035 H 
BRANCH 129 132
ATOM    132  CD  NON d   1      44.489  -5.146 -27.001  0.00  0.00     0.009 C 
ATOM    133  H71 NON d   1      43.700  -4.387 -27.106  0.00  0.00     0.064 H 
ATOM    134  H72 NON d   1      45.167  -5.091 -27.865  0.00  0.00     0.064 H 
BRANCH 132 135
ATOM    135  NE  NON d   1      45.244  -4.891 -25.779  0.00  0.00    -0.227 N 
ATOM    136  CZ  NON d   1      46.022  -3.834 -25.571  0.00  0.00     0.665 C 
ATOM    137  NH1 NON d   1      46.167  -2.908 -26.510  0.00  0.00    -0.235 N 
ATOM    138  NH2 NON d   1      46.648  -3.702 -24.410  0.00  0.00    -0.235 N 
ATOM    139  H74 NON d   1      46.772  -2.092 -26.340  0.00  0.00     0.174 HD
ATOM    140  H75 NON d   1      45.674  -3.005 -27.409  0.00  0.00     0.174 HD
ATOM    141  H76 NON d   1      46.536  -4.420 -23.680  0.00  0.00     0.174 HD
ATOM    142  H77 NON d   1      47.246  -2.881 -24.238  0.00  0.00     0.174 HD
ATOM    143  H73 NON d   1      45.168  -5.583 -25.020  0.00  0.00     0.177 HD
ENDBRANCH 132 135
ENDBRANCH 129 132
ENDBRANCH 126 129
ENDBRANCH  99 126
ENDBRANCH  97  99
ENDBRANCH  93  95
BRANCH  93 144
ATOM    144  CB  NON d   1      40.869  -7.145 -32.278  0.00  0.00    -0.049 C 
ATOM    145  H62 NON d   1      41.879  -6.805 -32.552  0.00  0.00     0.030 H 
ATOM    146  H63 NON d   1      40.399  -6.403 -31.616  0.00  0.00     0.030 H 
ATOM    147  H64 NON d   1      40.262  -7.262 -33.188  0.00  0.00     0.030 H 
ENDBRANCH  93 144
ENDBRANCH  91  93
ENDBRANCH  87  89
BRANCH  87 148
ATOM    148  CB  NON d   1      37.493 -11.346 -31.354  0.00  0.00     0.060 C 
ATOM    149  H55 NON d   1      38.045 -12.298 -31.343  0.00  0.00     0.086 H 
BRANCH 148 150
ATOM    150  OG1 NON d   1      37.706 -10.687 -32.607  0.00  0.00    -0.393 OA
ATOM    151  H56 NON d   1      37.235  -9.862 -32.614  0.00  0.00     0.210 HD
ENDBRANCH 148 150
BRANCH 148 152
ATOM    152  CG2 NON d   1      36.005 -11.627 -31.184  0.00  0.00    -0.050 C 
ATOM    153  H57 NON d   1      35.656 -12.266 -32.009  0.00  0.00     0.031 H 
ATOM    154  H58 NON d   1      35.449 -10.678 -31.195  0.00  0.00     0.031 H 
ATOM    155  H59 NON d   1      35.836 -12.140 -30.226  0.00  0.00     0.031 H 
ENDBRANCH 148 152
ENDBRANCH  87 148
ENDBRANCH  85  87
ENDBRANCH   1  83
BRANCH   1 156
ATOM    156  CB  NON d   1      34.647  -8.008 -28.549  0.00  0.00    -0.030 C 
ATOM    157  H47 NON d   1      34.673  -8.771 -27.757  0.00  0.00     0.037 H 
ATOM    158  H48 NON d   1      34.296  -8.464 -29.486  0.00  0.00     0.037 H 
BRANCH 156 159
ATOM    159  CG  NON d   1      33.648  -6.942 -28.142  0.00  0.00     0.011 C 
ATOM    160  H49 NON d   1      33.334  -6.389 -29.040  0.00  0.00     0.047 H 
ATOM    161  H50 NON d   1      34.134  -6.252 -27.437  0.00  0.00     0.047 H 
BRANCH 159 162
ATOM    162  CD  NON d   1      32.419  -7.534 -27.478  0.00  0.00     0.215 C 
ATOM    163  OE1 NON d   1      32.213  -8.750 -27.498  0.00  0.00    -0.274 OA
ATOM    164  NE2 NON d   1      31.592  -6.676 -26.887  0.00  0.00    -0.370 N 
ATOM    165  H51 NON d   1      30.766  -7.010 -26.433  0.00  0.00     0.159 HD
ATOM    166  H52 NON d   1      31.797  -5.697 -26.896  0.00  0.00     0.159 HD
ENDBRANCH 159 162
ENDBRANCH 156 159
ENDBRANCH   1 156
TORSDOF 49
