REMARK WARNING: 32 MAX_TORS EXCEEDED!!!
REMARK  34 active torsions:
REMARK  status: ('A' for Active; 'I' for Inactive)
REMARK    1  A    between atoms: N_1  and  CA_2 
REMARK    2  A    between atoms: CA_2  and  C_3 
REMARK    3  A    between atoms: CA_2  and  CB_5 
REMARK       I    between atoms: C_3  and  N_6 
REMARK    4  A    between atoms: N_6  and  CA_7 
REMARK    5  A    between atoms: CA_7  and  C_8 
REMARK    6  A    between atoms: CA_7  and  CB_10 
REMARK       I    between atoms: C_8  and  N_17 
REMARK    7  A    between atoms: CB_10  and  CG_11 
REMARK    8  A    between atoms: CG_11  and  CD_12 
REMARK    9  A    between atoms: CD_12  and  NE_13 
REMARK       I    between atoms: NE_13  and  CZ_14 
REMARK       I    between atoms: CZ_14  and  NH1_15 
REMARK   10  A    between atoms: N_17  and  CA_18 
REMARK   11  A    between atoms: CA_18  and  C_19 
REMARK   12  A    between atoms: CA_18  and  CB_21 
REMARK       I    between atoms: C_19  and  N_24 
REMARK   13  A    between atoms: CB_21  and  OG1_22 
REMARK   14  A    between atoms: CB_21  and  CG2_23 
REMARK   15  A    between atoms: N_24  and  CA_25 
REMARK   16  A    between atoms: CA_25  and  CB_26 
REMARK   17  A    between atoms: CA_25  and  C_31 
REMARK   18  A    between atoms: CB_26  and  CG_27 
REMARK   19  A    between atoms: CG_27  and  CD_28 
REMARK   20  A    between atoms: CD_28  and  CE_29 
REMARK   21  A    between atoms: CE_29  and  NZ_30 
REMARK   22  A    between atoms: NZ_30  and  CM1_33 
REMARK   23  A    between atoms: NZ_30  and  CM2_34 
REMARK   24  A    between atoms: NZ_30  and  CM3_35 
REMARK       I    between atoms: C_31  and  N_36 
REMARK   25  A    between atoms: N_36  and  CA_37 
REMARK   26  A    between atoms: CA_37  and  C_38 
REMARK   27  A    between atoms: CA_37  and  CB_40 
REMARK       I    between atoms: C_38  and  N_45 
REMARK   28  A    between atoms: CB_40  and  CG_41 
REMARK   29  A    between atoms: CG_41  and  CD_42 
REMARK       I    between atoms: CD_42  and  NE2_44 
REMARK   30  A    between atoms: N_45  and  CA_46 
REMARK   31  A    between atoms: CA_46  and  C_47 
REMARK   32  A    between atoms: CA_46  and  CB_49 
REMARK   33  A    between atoms: CB_49  and  OG1_50 
REMARK   34  A    between atoms: CB_49  and  CG2_51 
ROOT
ATOM      1  CA  M3L d   1      57.239  28.150  16.185  0.00  0.00     0.089 C 
ATOM      2  H29 M3L d   1      57.470  28.954  15.471  0.00  0.00     0.087 H 
ENDROOT
BRANCH   1   3
ATOM      3  N   M3L d   1      57.869  28.442  17.467  0.00  0.00    -0.346 N 
ATOM      4  C   THR d   1      57.561  29.554  18.126  0.00  0.00     0.243 C 
ATOM      5  O   THR d   1      56.763  30.382  17.697  0.00  0.00    -0.271 OA
ATOM      6  H28 M3L d   1      58.535  27.803  17.852  0.00  0.00     0.163 HD
BRANCH   4   7
ATOM      7  CA  THR d   1      58.241  29.773  19.464  0.00  0.00     0.113 C 
ATOM      8  H22 THR d   1      59.330  29.657  19.364  0.00  0.00     0.091 H 
BRANCH   7   9
ATOM      9  N   THR d   1      57.933  31.132  19.907  0.00  0.00    -0.344 N 
ATOM     10  C   ARG d   1      58.882  31.934  20.385  0.00  0.00     0.241 C 
ATOM     11  O   ARG d   1      60.048  31.583  20.487  0.00  0.00    -0.271 OA
ATOM     12  H21 THR d   1      56.992  31.465  19.850  0.00  0.00     0.163 HD
BRANCH  10  13
ATOM     13  CA  ARG d   1      58.456  33.338  20.809  0.00  0.00     0.089 C 
ATOM     14  H9  ARG d   1      57.358  33.363  20.878  0.00  0.00     0.087 H 
BRANCH  13  15
ATOM     15  N   ARG d   1      59.006  33.704  22.114  0.00  0.00    -0.346 N 
ATOM     16  C   ALA d   1      58.364  33.395  23.235  0.00  0.00     0.248 C 
ATOM     17  O   ALA d   1      57.299  32.785  23.240  0.00  0.00    -0.271 OA
ATOM     18  H8  ARG d   1      59.877  34.193  22.163  0.00  0.00     0.163 HD
BRANCH  16  19
ATOM     19  CA  ALA d   1      59.011  33.829  24.542  0.00  0.00     0.172 C 
ATOM     20  H4  ALA d   1      59.967  34.327  24.324  0.00  0.00     0.098 H 
BRANCH  19  21
ATOM     21  N   ALA d   1      58.109  34.785  25.251  0.00  0.00    -0.067 N 
ATOM     22  H1  ALA d   1      58.538  35.072  26.117  0.00  0.00     0.275 HD
ATOM     23  H2  ALA d   1      57.228  34.335  25.445  0.00  0.00     0.275 HD
ATOM     24  H3  ALA d   1      57.952  35.593  24.669  0.00  0.00     0.275 HD
ENDBRANCH  19  21
BRANCH  19  25
ATOM     25  CB  ALA d   1      59.270  32.614  25.424  0.00  0.00    -0.042 C 
ATOM     26  H5  ALA d   1      59.935  31.913  24.897  0.00  0.00     0.030 H 
ATOM     27  H6  ALA d   1      58.316  32.115  25.650  0.00  0.00     0.030 H 
ATOM     28  H7  ALA d   1      59.746  32.936  26.362  0.00  0.00     0.030 H 
ENDBRANCH  19  25
ENDBRANCH  16  19
ENDBRANCH  13  15
BRANCH  13  29
ATOM     29  CB  ARG d   1      58.906  34.343  19.746  0.00  0.00    -0.036 C 
ATOM     30  H10 ARG d   1      58.505  34.016  18.775  0.00  0.00     0.036 H 
ATOM     31  H11 ARG d   1      60.005  34.333  19.710  0.00  0.00     0.036 H 
BRANCH  29  32
ATOM     32  CG  ARG d   1      58.454  35.776  19.986  0.00  0.00    -0.048 C 
ATOM     33  H12 ARG d   1      58.969  36.177  20.872  0.00  0.00     0.035 H 
ATOM     34  H13 ARG d   1      57.367  35.792  20.155  0.00  0.00     0.035 H 
BRANCH  32  35
ATOM     35  CD  ARG d   1      58.788  36.637  18.776  0.00  0.00     0.009 C 
ATOM     36  H14 ARG d   1      57.898  37.225  18.509  0.00  0.00     0.064 H 
ATOM     37  H15 ARG d   1      59.055  35.975  17.939  0.00  0.00     0.064 H 
BRANCH  35  38
ATOM     38  NE  ARG d   1      59.898  37.557  19.012  0.00  0.00    -0.227 N 
ATOM     39  CZ  ARG d   1      59.772  38.751  19.584  0.00  0.00     0.665 C 
ATOM     40  NH1 ARG d   1      58.579  39.175  19.980  0.00  0.00    -0.235 N 
ATOM     41  NH2 ARG d   1      60.835  39.528  19.752  0.00  0.00    -0.235 N 
ATOM     42  H17 ARG d   1      58.482  40.100  20.423  0.00  0.00     0.174 HD
ATOM     43  H18 ARG d   1      57.750  38.579  19.845  0.00  0.00     0.174 HD
ATOM     44  H19 ARG d   1      61.764  39.204  19.446  0.00  0.00     0.174 HD
ATOM     45  H20 ARG d   1      60.731  40.455  20.188  0.00  0.00     0.174 HD
ATOM     46  H16 ARG d   1      60.839  37.262  18.716  0.00  0.00     0.177 HD
ENDBRANCH  35  38
ENDBRANCH  32  35
ENDBRANCH  29  32
ENDBRANCH  13  29
ENDBRANCH  10  13
ENDBRANCH   7   9
BRANCH   7  47
ATOM     47  CB  THR d   1      57.697  28.713  20.435  0.00  0.00     0.060 C 
ATOM     48  H23 THR d   1      58.013  27.716  20.095  0.00  0.00     0.086 H 
BRANCH  47  49
ATOM     49  OG1 THR d   1      56.267  28.782  20.453  0.00  0.00    -0.393 OA
ATOM     50  H24 THR d   1      55.927  28.128  21.052  0.00  0.00     0.210 HD
ENDBRANCH  47  49
BRANCH  47  51
ATOM     51  CG2 THR d   1      58.218  28.949  21.840  0.00  0.00    -0.050 C 
ATOM     52  H25 THR d   1      57.815  28.179  22.515  0.00  0.00     0.031 H 
ATOM     53  H26 THR d   1      57.900  29.943  22.187  0.00  0.00     0.031 H 
ATOM     54  H27 THR d   1      59.317  28.896  21.837  0.00  0.00     0.031 H 
ENDBRANCH  47  51
ENDBRANCH   7  47
ENDBRANCH   4   7
ENDBRANCH   1   3
BRANCH   1  55
ATOM     55  CB  M3L d   1      57.747  26.819  15.627  0.00  0.00    -0.038 C 
ATOM     56  H30 M3L d   1      57.061  26.492  14.832  0.00  0.00     0.036 H 
ATOM     57  H31 M3L d   1      57.745  26.079  16.441  0.00  0.00     0.036 H 
BRANCH  55  58
ATOM     58  CG  M3L d   1      59.150  26.892  15.049  0.00  0.00    -0.061 C 
ATOM     59  H32 M3L d   1      59.488  25.876  14.795  0.00  0.00     0.033 H 
ATOM     60  H33 M3L d   1      59.826  27.326  15.800  0.00  0.00     0.033 H 
BRANCH  58  61
ATOM     61  CD  M3L d   1      59.180  27.756  13.793  0.00  0.00    -0.042 C 
ATOM     62  H34 M3L d   1      58.794  28.757  14.036  0.00  0.00     0.035 H 
ATOM     63  H35 M3L d   1      58.543  27.294  13.024  0.00  0.00     0.035 H 
BRANCH  61  64
ATOM     64  CE  M3L d   1      60.594  27.888  13.252  0.00  0.00     0.084 C 
ATOM     65  H36 M3L d   1      61.045  26.886  13.203  0.00  0.00     0.076 H 
ATOM     66  H37 M3L d   1      61.175  28.518  13.941  0.00  0.00     0.076 H 
BRANCH  64  67
ATOM     67  NZ  M3L d   1      60.646  28.488  11.917  0.00  0.00    -0.079 N 
BRANCH  67  68
ATOM     68  CM1 M3L d   1      62.081  28.613  11.597  0.00  0.00     0.067 C 
ATOM     69  H38 M3L d   1      62.196  29.061  10.599  0.00  0.00     0.068 H 
ATOM     70  H39 M3L d   1      62.547  27.617  11.608  0.00  0.00     0.068 H 
ATOM     71  H40 M3L d   1      62.569  29.255  12.345  0.00  0.00     0.068 H 
ENDBRANCH  67  68
BRANCH  67  72
ATOM     72  CM2 M3L d   1      60.002  29.817  11.820  0.00  0.00     0.067 C 
ATOM     73  H41 M3L d   1      58.932  29.724  12.059  0.00  0.00     0.068 H 
ATOM     74  H42 M3L d   1      60.117  30.207  10.798  0.00  0.00     0.068 H 
ATOM     75  H43 M3L d   1      60.478  30.508  12.532  0.00  0.00     0.068 H 
ENDBRANCH  67  72
BRANCH  67  76
ATOM     76  CM3 M3L d   1      60.005  27.608  10.930  0.00  0.00     0.067 C 
ATOM     77  H44 M3L d   1      60.463  26.609  10.977  0.00  0.00     0.068 H 
ATOM     78  H45 M3L d   1      60.142  28.027   9.922  0.00  0.00     0.068 H 
ATOM     79  H46 M3L d   1      58.931  27.529  11.152  0.00  0.00     0.068 H 
ENDBRANCH  67  76
ENDBRANCH  64  67
ENDBRANCH  61  64
ENDBRANCH  58  61
ENDBRANCH  55  58
ENDBRANCH   1  55
BRANCH   1  80
ATOM     80  C   M3L d   1      55.737  28.072  16.401  0.00  0.00     0.241 C 
ATOM     81  O   M3L d   1      54.943  28.423  15.529  0.00  0.00    -0.271 OA
ATOM     82  N   GLN d   1      55.355  27.616  17.585  0.00  0.00    -0.346 N 
ATOM     83  H47 GLN d   1      56.049  27.361  18.258  0.00  0.00     0.163 HD
BRANCH  82  84
ATOM     84  CA  GLN d   1      53.952  27.479  17.927  0.00  0.00     0.090 C 
ATOM     85  H48 GLN d   1      53.458  26.931  17.111  0.00  0.00     0.087 H 
BRANCH  84  86
ATOM     86  C   GLN d   1      53.245  28.822  18.084  0.00  0.00     0.241 C 
ATOM     87  O   GLN d   1      52.129  28.983  17.601  0.00  0.00    -0.271 OA
ATOM     88  N   THR d   1      53.878  29.784  18.753  0.00  0.00    -0.343 N 
ATOM     89  H55 THR d   1      54.789  29.614  19.129  0.00  0.00     0.163 HD
BRANCH  88  90
ATOM     90  CA  THR d   1      53.247  31.084  18.938  0.00  0.00     0.120 C 
ATOM     91  H56 THR d   1      52.218  30.917  19.288  0.00  0.00     0.093 H 
BRANCH  90  92
ATOM     92  C   THR d   1      53.197  31.851  17.623  0.00  0.00     0.199 C 
ATOM     93  O   THR d   1      52.103  31.853  16.997  0.00  0.00    -0.646 OA
ATOM     94  O   THR d   1      54.208  32.458  17.179  0.00  0.00    -0.646 OA
ENDBRANCH  90  92
BRANCH  90  95
ATOM     95  CB  THR d   1      53.987  31.945  19.987  0.00  0.00     0.061 C 
ATOM     96  H57 THR d   1      53.434  32.885  20.130  0.00  0.00     0.086 H 
BRANCH  95  97
ATOM     97  OG1 THR d   1      55.308  32.243  19.527  0.00  0.00    -0.393 OA
ATOM     98  H58 THR d   1      55.257  32.721  18.708  0.00  0.00     0.210 HD
ENDBRANCH  95  97
BRANCH  95  99
ATOM     99  CG2 THR d   1      54.069  31.211  21.319  0.00  0.00    -0.050 C 
ATOM    100  H59 THR d   1      54.598  31.838  22.051  0.00  0.00     0.031 H 
ATOM    101  H60 THR d   1      54.615  30.266  21.184  0.00  0.00     0.031 H 
ATOM    102  H61 THR d   1      53.053  30.999  21.684  0.00  0.00     0.031 H 
ENDBRANCH  95  99
ENDBRANCH  90  95
ENDBRANCH  88  90
ENDBRANCH  84  86
BRANCH  84 103
ATOM    103  CB  GLN d   1      53.810  26.667  19.212  0.00  0.00    -0.030 C 
ATOM    104  H49 GLN d   1      54.094  27.308  20.060  0.00  0.00     0.037 H 
ATOM    105  H50 GLN d   1      54.494  25.808  19.156  0.00  0.00     0.037 H 
BRANCH 103 106
ATOM    106  CG  GLN d   1      52.411  26.147  19.456  0.00  0.00     0.011 C 
ATOM    107  H51 GLN d   1      52.096  25.555  18.584  0.00  0.00     0.047 H 
ATOM    108  H52 GLN d   1      51.732  27.003  19.584  0.00  0.00     0.047 H 
BRANCH 106 109
ATOM    109  CD  GLN d   1      52.335  25.278  20.687  0.00  0.00     0.215 C 
ATOM    110  OE1 GLN d   1      53.113  24.335  20.842  0.00  0.00    -0.274 OA
ATOM    111  NE2 GLN d   1      51.393  25.585  21.572  0.00  0.00    -0.370 N 
ATOM    112  H53 GLN d   1      51.296  25.043  22.407  0.00  0.00     0.159 HD
ATOM    113  H54 GLN d   1      50.781  26.358  21.403  0.00  0.00     0.159 HD
ENDBRANCH 106 109
ENDBRANCH 103 106
ENDBRANCH  84 103
ENDBRANCH  82  84
ENDBRANCH   1  80
TORSDOF 34
