REMARK WARNING: 32 MAX_TORS EXCEEDED!!!
REMARK  73 active torsions:
REMARK  status: ('A' for Active; 'I' for Inactive)
REMARK    1  A    between atoms: N_1  and  CA_2 
REMARK    2  A    between atoms: CA_2  and  C_3 
REMARK    3  A    between atoms: CA_2  and  CB_5 
REMARK       I    between atoms: C_3  and  N_10 
REMARK    4  A    between atoms: CB_5  and  CG_6 
REMARK    5  A    between atoms: CG_6  and  CD_7 
REMARK    6  A    between atoms: N_10  and  CA_11 
REMARK    7  A    between atoms: CA_11  and  C_12 
REMARK    8  A    between atoms: CA_11  and  CB_14 
REMARK       I    between atoms: C_12  and  N_19 
REMARK    9  A    between atoms: CB_14  and  CG_15 
REMARK   10  A    between atoms: CG_15  and  CD_16 
REMARK   11  A    between atoms: CD_16  and  CE_17 
REMARK   12  A    between atoms: CE_17  and  NZ_18 
REMARK   13  A    between atoms: N_19  and  CA_20 
REMARK   14  A    between atoms: CA_20  and  C_21 
REMARK   15  A    between atoms: CA_20  and  CB_23 
REMARK       I    between atoms: C_21  and  N_27 
REMARK   16  A    between atoms: CB_23  and  CG_24 
REMARK   17  A    between atoms: CG_24  and  CD1_25 
REMARK   18  A    between atoms: CG_24  and  CD2_26 
REMARK   19  A    between atoms: N_27  and  CA_28 
REMARK   20  A    between atoms: CA_28  and  C_29 
REMARK   21  A    between atoms: CA_28  and  CB_31 
REMARK       I    between atoms: C_29  and  N_35 
REMARK   22  A    between atoms: CB_31  and  CG_32 
REMARK   23  A    between atoms: CG_32  and  SD_33 
REMARK   24  A    between atoms: SD_33  and  CE_34 
REMARK   25  A    between atoms: N_35  and  CA_36 
REMARK   26  A    between atoms: CA_36  and  C_37 
REMARK   27  A    between atoms: CA_36  and  CB_39 
REMARK       I    between atoms: C_37  and  N_44 
REMARK   28  A    between atoms: CB_39  and  CG_40 
REMARK   29  A    between atoms: CG_40  and  CD_41 
REMARK   30  A    between atoms: CD_41  and  CE_42 
REMARK   31  A    between atoms: CE_42  and  NZ_43 
REMARK   32  A    between atoms: N_44  and  CA_45 
REMARK   33  A    between atoms: CA_45  and  C_46 
REMARK   34  A    between atoms: CA_45  and  CB_48 
REMARK       I    between atoms: C_46  and  N_49 
REMARK   35  A    between atoms: N_49  and  CA_50 
REMARK   36  A    between atoms: CA_50  and  C_51 
REMARK   37  A    between atoms: CA_50  and  CB_53 
REMARK       I    between atoms: C_51  and  N_60 
REMARK   38  A    between atoms: CB_53  and  CG_54 
REMARK   39  A    between atoms: N_60  and  CA_61 
REMARK   40  A    between atoms: CA_61  and  C_62 
REMARK   41  A    between atoms: CA_61  and  CB_64 
REMARK       I    between atoms: C_62  and  N_69 
REMARK   42  A    between atoms: CB_64  and  CG_65 
REMARK   43  A    between atoms: CG_65  and  CD_66 
REMARK   44  A    between atoms: N_69  and  CA_70 
REMARK   45  A    between atoms: CA_70  and  C_71 
REMARK   46  A    between atoms: CA_70  and  CB_73 
REMARK       I    between atoms: C_71  and  N_75 
REMARK   47  A    between atoms: CB_73  and  OG_74 
REMARK   48  A    between atoms: N_75  and  CA_76 
REMARK   49  A    between atoms: CA_76  and  C_77 
REMARK   50  A    between atoms: CA_76  and  CB_79 
REMARK       I    between atoms: C_77  and  N_83 
REMARK   51  A    between atoms: CB_79  and  CG_80 
REMARK   52  A    between atoms: CG_80  and  CD1_81 
REMARK   53  A    between atoms: CG_80  and  CD2_82 
REMARK   54  A    between atoms: N_83  and  CA_84 
REMARK   55  A    between atoms: CA_84  and  C_85 
REMARK   56  A    between atoms: CA_84  and  CB_87 
REMARK       I    between atoms: C_85  and  N_92 
REMARK   57  A    between atoms: CB_87  and  CG_88 
REMARK   58  A    between atoms: CG_88  and  CD_89 
REMARK   59  A    between atoms: CD_89  and  CE_90 
REMARK   60  A    between atoms: CE_90  and  NZ_91 
REMARK   61  A    between atoms: N_92  and  CA_93 
REMARK   62  A    between atoms: CA_93  and  C_94 
REMARK   63  A    between atoms: CA_93  and  CB_96 
REMARK       I    between atoms: C_94  and  N_98 
REMARK   64  A    between atoms: CB_96  and  OG_97 
REMARK   65  A    between atoms: N_98  and  CA_99 
REMARK   66  A    between atoms: CA_99  and  C_100 
REMARK   67  A    between atoms: CA_99  and  CB_102 
REMARK       I    between atoms: C_100  and  N_109 
REMARK   68  A    between atoms: CB_102  and  CG_103 
REMARK   69  A    between atoms: N_109  and  CA_110 
REMARK   70  A    between atoms: CA_110  and  C_111 
REMARK   71  A    between atoms: CA_110  and  CB_113 
REMARK   72  A    between atoms: CB_113  and  CG_114 
REMARK   73  A    between atoms: CG_114  and  CD_115 
REMARK       I    between atoms: CD_115  and  NE2_117 
ROOT
ATOM      1  CA  PHE d   1      22.052 -27.463 -48.298  0.00  0.00     0.093 C 
ATOM      2  H   PHE d   1      21.476 -26.647 -48.734  0.00  0.00     0.088 H 
ENDROOT
BRANCH   1   3
ATOM      3  N   PHE d   1      21.274 -27.987 -47.175  0.00  0.00    -0.346 N 
ATOM      4  C   ALA d   1      19.993 -28.324 -47.313  0.00  0.00     0.240 C 
ATOM      5  O   ALA d   1      19.353 -28.099 -48.337  0.00  0.00    -0.271 OA
ATOM      6  H   PHE d   1      21.723 -28.097 -46.266  0.00  0.00     0.163 HD
BRANCH   4   7
ATOM      7  CA  ALA d   1      19.320 -29.006 -46.116  0.00  0.00     0.086 C 
ATOM      8  H   ALA d   1      18.523 -29.630 -46.520  0.00  0.00     0.086 H 
BRANCH   7   9
ATOM      9  N   ALA d   1      20.224 -29.898 -45.383  0.00  0.00    -0.346 N 
ATOM     10  C   LYS d   1      20.692 -31.036 -45.890  0.00  0.00     0.241 C 
ATOM     11  O   LYS d   1      20.365 -31.476 -46.992  0.00  0.00    -0.271 OA
ATOM     12  H   ALA d   1      20.508 -29.634 -44.440  0.00  0.00     0.163 HD
BRANCH  10  13
ATOM     13  CA  LYS d   1      21.694 -31.790 -45.019  0.00  0.00     0.089 C 
ATOM     14  H   LYS d   1      22.329 -32.389 -45.672  0.00  0.00     0.087 H 
BRANCH  13  15
ATOM     15  N   LYS d   1      22.546 -30.857 -44.279  0.00  0.00    -0.346 N 
ATOM     16  C   MET d   1      23.332 -29.961 -44.874  0.00  0.00     0.241 C 
ATOM     17  O   MET d   1      23.417 -29.836 -46.099  0.00  0.00    -0.271 OA
ATOM     18  H   LYS d   1      22.537 -30.895 -43.260  0.00  0.00     0.163 HD
BRANCH  16  19
ATOM     19  CA  MET d   1      24.143 -29.057 -43.943  0.00  0.00     0.090 C 
ATOM     20  H   MET d   1      24.551 -28.236 -44.532  0.00  0.00     0.087 H 
BRANCH  19  21
ATOM     21  N   MET d   1      23.294 -28.478 -42.899  0.00  0.00    -0.346 N 
ATOM     22  C   LEU d   1      22.257 -27.686 -43.175  0.00  0.00     0.241 C 
ATOM     23  O   LEU d   1      21.948 -27.345 -44.320  0.00  0.00    -0.271 OA
ATOM     24  H   MET d   1      23.504 -28.689 -41.923  0.00  0.00     0.163 HD
BRANCH  22  25
ATOM     25  CA  LEU d   1      21.437 -27.199 -41.982  0.00  0.00     0.089 C 
ATOM     26  H   LEU d   1      20.467 -26.885 -42.367  0.00  0.00     0.087 H 
BRANCH  25  27
ATOM     27  N   LEU d   1      21.195 -28.262 -41.009  0.00  0.00    -0.346 N 
ATOM     28  C   LYS d   1      20.478 -29.348 -41.296  0.00  0.00     0.241 C 
ATOM     29  O   LYS d   1      19.983 -29.564 -42.406  0.00  0.00    -0.271 OA
ATOM     30  H   LEU d   1      21.590 -28.169 -40.073  0.00  0.00     0.163 HD
BRANCH  28  31
ATOM     31  CA  LYS d   1      20.291 -30.350 -40.161  0.00  0.00     0.089 C 
ATOM     32  H   LYS d   1      19.894 -31.266 -40.599  0.00  0.00     0.087 H 
BRANCH  31  33
ATOM     33  N   LYS d   1      21.553 -30.728 -39.513  0.00  0.00    -0.346 N 
ATOM     34  C   GLU d   1      22.588 -31.232 -40.186  0.00  0.00     0.249 C 
ATOM     35  O   GLU d   1      22.580 -31.405 -41.407  0.00  0.00    -0.271 OA
ATOM     36  H   LYS d   1      21.642 -30.600 -38.505  0.00  0.00     0.163 HD
BRANCH  34  37
ATOM     37  CA  GLU d   1      23.828 -31.595 -39.364  0.00  0.00     0.176 C 
ATOM     38  H   GLU d   1      24.605 -30.871 -39.612  0.00  0.00     0.099 H 
BRANCH  37  39
ATOM     39  N   GLU d   1      23.588 -31.488 -37.893  0.00  0.00    -0.066 N 
ATOM     40  H   GLU d   1      23.266 -30.546 -37.670  0.00  0.00     0.275 HD
ATOM     41  H   GLU d   1      22.878 -32.166 -37.615  0.00  0.00     0.275 HD
ATOM     42  H   GLU d   1      24.456 -31.679 -37.393  0.00  0.00     0.275 HD
ENDBRANCH  37  39
BRANCH  37  43
ATOM     43  CB  GLU d   1      24.314 -33.003 -39.731  0.00  0.00    -0.021 C 
ATOM     44  H   GLU d   1      24.287 -33.077 -40.818  0.00  0.00     0.037 H 
ATOM     45  H   GLU d   1      23.665 -33.710 -39.214  0.00  0.00     0.037 H 
BRANCH  43  46
ATOM     46  CG  GLU d   1      25.745 -33.311 -39.298  0.00  0.00     0.018 C 
ATOM     47  H   GLU d   1      25.783 -33.254 -38.210  0.00  0.00     0.049 H 
ATOM     48  H   GLU d   1      26.402 -32.590 -39.784  0.00  0.00     0.049 H 
BRANCH  46  49
ATOM     49  CD  GLU d   1      26.200 -34.704 -39.706  0.00  0.00     0.172 C 
ATOM     50  OE1 GLU d   1      26.289 -34.979 -40.922  0.00  0.00    -0.648 OA
ATOM     51  OE2 GLU d   1      26.479 -35.524 -38.806  0.00  0.00    -0.648 OA
ENDBRANCH  46  49
ENDBRANCH  43  46
ENDBRANCH  37  43
ENDBRANCH  34  37
ENDBRANCH  31  33
BRANCH  31  52
ATOM     52  CB  LYS d   1      19.289 -29.795 -39.138  0.00  0.00    -0.038 C 
ATOM     53  H   LYS d   1      18.567 -29.199 -39.695  0.00  0.00     0.036 H 
ATOM     54  H   LYS d   1      19.867 -29.242 -38.398  0.00  0.00     0.036 H 
BRANCH  52  55
ATOM     55  CG  LYS d   1      18.497 -30.851 -38.379  0.00  0.00    -0.061 C 
ATOM     56  H   LYS d   1      18.002 -30.370 -37.535  0.00  0.00     0.033 H 
ATOM     57  H   LYS d   1      19.187 -31.628 -38.050  0.00  0.00     0.033 H 
BRANCH  55  58
ATOM     58  CD  LYS d   1      17.434 -31.493 -39.258  0.00  0.00    -0.043 C 
ATOM     59  H   LYS d   1      17.905 -31.823 -40.184  0.00  0.00     0.035 H 
ATOM     60  H   LYS d   1      16.652 -30.758 -39.447  0.00  0.00     0.035 H 
BRANCH  58  61
ATOM     61  CE  LYS d   1      16.806 -32.700 -38.581  0.00  0.00     0.080 C 
ATOM     62  H   LYS d   1      16.161 -32.354 -37.774  0.00  0.00     0.075 H 
ATOM     63  H   LYS d   1      17.600 -33.339 -38.195  0.00  0.00     0.075 H 
BRANCH  61  64
ATOM     64  NZ  LYS d   1      15.989 -33.481 -39.546  0.00  0.00    -0.079 N 
ATOM     65  H   LYS d   1      15.579 -34.284 -39.070  0.00  0.00     0.274 HD
ATOM     66  H   LYS d   1      15.246 -32.889 -39.918  0.00  0.00     0.274 HD
ATOM     67  H   LYS d   1      16.583 -33.804 -40.310  0.00  0.00     0.274 HD
ENDBRANCH  61  64
ENDBRANCH  58  61
ENDBRANCH  55  58
ENDBRANCH  52  55
ENDBRANCH  31  52
ENDBRANCH  28  31
ENDBRANCH  25  27
BRANCH  25  68
ATOM     68  CB  LEU d   1      22.114 -25.997 -41.310  0.00  0.00    -0.035 C 
ATOM     69  H   LEU d   1      23.085 -26.372 -40.988  0.00  0.00     0.037 H 
ATOM     70  H   LEU d   1      21.395 -25.656 -40.565  0.00  0.00     0.037 H 
BRANCH  68  71
ATOM     71  CG  LEU d   1      22.436 -24.747 -42.140  0.00  0.00    -0.059 C 
ATOM     72  H   LEU d   1      23.125 -25.049 -42.928  0.00  0.00     0.038 H 
BRANCH  71  73
ATOM     73  CD1 LEU d   1      21.200 -24.171 -42.826  0.00  0.00    -0.073 C 
ATOM     74  H   LEU d   1      20.775 -24.920 -43.494  0.00  0.00     0.028 H 
ATOM     75  H   LEU d   1      20.463 -23.895 -42.072  0.00  0.00     0.028 H 
ATOM     76  H   LEU d   1      21.483 -23.288 -43.400  0.00  0.00     0.028 H 
ENDBRANCH  71  73
BRANCH  71  77
ATOM     77  CD2 LEU d   1      23.101 -23.695 -41.268  0.00  0.00    -0.073 C 
ATOM     78  H   LEU d   1      22.429 -23.421 -40.455  0.00  0.00     0.028 H 
ATOM     79  H   LEU d   1      24.026 -24.098 -40.856  0.00  0.00     0.028 H 
ATOM     80  H   LEU d   1      23.324 -22.814 -41.870  0.00  0.00     0.028 H 
ENDBRANCH  71  77
ENDBRANCH  68  71
ENDBRANCH  25  68
ENDBRANCH  22  25
ENDBRANCH  19  21
BRANCH  19  81
ATOM     81  CB  MET d   1      25.306 -29.843 -43.324  0.00  0.00    -0.030 C 
ATOM     82  H   MET d   1      24.886 -30.748 -42.885  0.00  0.00     0.037 H 
ATOM     83  H   MET d   1      25.794 -29.184 -42.605  0.00  0.00     0.037 H 
BRANCH  81  84
ATOM     84  CG  MET d   1      26.366 -30.279 -44.327  0.00  0.00    -0.021 C 
ATOM     85  H   MET d   1      27.101 -29.477 -44.395  0.00  0.00     0.049 H 
ATOM     86  H   MET d   1      25.859 -30.487 -45.269  0.00  0.00     0.049 H 
BRANCH  84  87
ATOM     87  SD  MET d   1      27.244 -31.777 -43.843  0.00  0.00    -0.173 SA
BRANCH  87  88
ATOM     88  CE  MET d   1      28.256 -32.058 -45.296  0.00  0.00    -0.035 C 
ATOM     89  H   MET d   1      27.612 -32.190 -46.166  0.00  0.00     0.041 H 
ATOM     90  H   MET d   1      28.910 -31.200 -45.453  0.00  0.00     0.041 H 
ATOM     91  H   MET d   1      28.859 -32.954 -45.149  0.00  0.00     0.041 H 
ENDBRANCH  87  88
ENDBRANCH  84  87
ENDBRANCH  81  84
ENDBRANCH  19  81
ENDBRANCH  16  19
ENDBRANCH  13  15
BRANCH  13  92
ATOM     92  CB  LYS d   1      20.963 -32.728 -44.051  0.00  0.00    -0.038 C 
ATOM     93  H   LYS d   1      20.093 -32.187 -43.679  0.00  0.00     0.036 H 
ATOM     94  H   LYS d   1      21.680 -33.014 -43.282  0.00  0.00     0.036 H 
BRANCH  92  95
ATOM     95  CG  LYS d   1      20.450 -34.017 -44.684  0.00  0.00    -0.061 C 
ATOM     96  H   LYS d   1      21.308 -34.634 -44.953  0.00  0.00     0.033 H 
ATOM     97  H   LYS d   1      19.853 -33.758 -45.558  0.00  0.00     0.033 H 
BRANCH  95  98
ATOM     98  CD  LYS d   1      19.572 -34.807 -43.717  0.00  0.00    -0.043 C 
ATOM     99  H   LYS d   1      18.702 -34.201 -43.464  0.00  0.00     0.035 H 
ATOM    100  H   LYS d   1      20.159 -35.045 -42.830  0.00  0.00     0.035 H 
BRANCH  98 101
ATOM    101  CE  LYS d   1      19.091 -36.110 -44.346  0.00  0.00     0.080 C 
ATOM    102  H   LYS d   1      19.966 -36.714 -44.589  0.00  0.00     0.075 H 
ATOM    103  H   LYS d   1      18.504 -35.864 -45.231  0.00  0.00     0.075 H 
BRANCH 101 104
ATOM    104  NZ  LYS d   1      18.228 -36.894 -43.420  0.00  0.00    -0.079 N 
ATOM    105  H   LYS d   1      17.930 -37.754 -43.881  0.00  0.00     0.274 HD
ATOM    106  H   LYS d   1      18.756 -37.123 -42.578  0.00  0.00     0.274 HD
ATOM    107  H   LYS d   1      17.409 -36.340 -43.170  0.00  0.00     0.274 HD
ENDBRANCH 101 104
ENDBRANCH  98 101
ENDBRANCH  95  98
ENDBRANCH  92  95
ENDBRANCH  13  92
ENDBRANCH  10  13
ENDBRANCH   7   9
BRANCH   7 108
ATOM    108  CB  ALA d   1      18.721 -27.967 -45.176  0.00  0.00    -0.049 C 
ATOM    109  H   ALA d   1      18.161 -28.471 -44.388  0.00  0.00     0.030 H 
ATOM    110  H   ALA d   1      19.522 -27.375 -44.733  0.00  0.00     0.030 H 
ATOM    111  H   ALA d   1      18.053 -27.314 -45.737  0.00  0.00     0.030 H 
ENDBRANCH   7 108
ENDBRANCH   4   7
ENDBRANCH   1   3
BRANCH   1 112
ATOM    112  C   PHE d   1      22.266 -28.535 -49.365  0.00  0.00     0.241 C 
ATOM    113  O   PHE d   1      22.296 -28.233 -50.558  0.00  0.00    -0.271 OA
ATOM    114  N   GLU d   1      22.404 -29.784 -48.925  0.00  0.00    -0.346 N 
ATOM    115  H   GLU d   1      22.389 -29.956 -47.920  0.00  0.00     0.163 HD
BRANCH 114 116
ATOM    116  CA  GLU d   1      22.577 -30.920 -49.832  0.00  0.00     0.090 C 
ATOM    117  H   GLU d   1      23.352 -30.647 -50.548  0.00  0.00     0.087 H 
BRANCH 116 118
ATOM    118  C   GLU d   1      21.306 -31.218 -50.632  0.00  0.00     0.241 C 
ATOM    119  O   GLU d   1      21.376 -31.748 -51.743  0.00  0.00    -0.271 OA
ATOM    120  N   SER d   1      20.151 -30.874 -50.064  0.00  0.00    -0.344 N 
ATOM    121  H   SER d   1      20.157 -30.507 -49.112  0.00  0.00     0.163 HD
BRANCH 120 122
ATOM    122  CA  SER d   1      18.878 -31.007 -50.765  0.00  0.00     0.109 C 
ATOM    123  H   SER d   1      18.872 -31.976 -51.264  0.00  0.00     0.090 H 
BRANCH 122 124
ATOM    124  C   SER d   1      18.728 -29.926 -51.835  0.00  0.00     0.243 C 
ATOM    125  O   SER d   1      18.105 -30.159 -52.870  0.00  0.00    -0.271 OA
ATOM    126  N   LEU d   1      19.305 -28.751 -51.581  0.00  0.00    -0.346 N 
ATOM    127  H   LEU d   1      19.726 -28.595 -50.665  0.00  0.00     0.163 HD
BRANCH 126 128
ATOM    128  CA  LEU d   1      19.354 -27.678 -52.575  0.00  0.00     0.089 C 
ATOM    129  H   LEU d   1      18.347 -27.547 -52.971  0.00  0.00     0.087 H 
BRANCH 128 130
ATOM    130  C   LEU d   1      20.290 -28.051 -53.726  0.00  0.00     0.241 C 
ATOM    131  O   LEU d   1      19.963 -27.825 -54.894  0.00  0.00    -0.271 OA
ATOM    132  N   LYS d   1      21.446 -28.622 -53.385  0.00  0.00    -0.346 N 
ATOM    133  H   LYS d   1      21.667 -28.724 -52.395  0.00  0.00     0.163 HD
BRANCH 132 134
ATOM    134  CA  LYS d   1      22.409 -29.108 -54.371  0.00  0.00     0.089 C 
ATOM    135  H   LYS d   1      22.737 -28.258 -54.969  0.00  0.00     0.087 H 
BRANCH 134 136
ATOM    136  C   LYS d   1      21.763 -30.136 -55.299  0.00  0.00     0.241 C 
ATOM    137  O   LYS d   1      21.953 -30.090 -56.514  0.00  0.00    -0.271 OA
ATOM    138  N   SER d   1      21.000 -31.055 -54.710  0.00  0.00    -0.344 N 
ATOM    139  H   SER d   1      20.943 -31.062 -53.692  0.00  0.00     0.163 HD
BRANCH 138 140
ATOM    140  CA  SER d   1      20.243 -32.052 -55.458  0.00  0.00     0.109 C 
ATOM    141  H   SER d   1      20.929 -32.533 -56.155  0.00  0.00     0.090 H 
BRANCH 140 142
ATOM    142  C   SER d   1      19.120 -31.415 -56.279  0.00  0.00     0.243 C 
ATOM    143  O   SER d   1      18.830 -31.866 -57.390  0.00  0.00    -0.271 OA
ATOM    144  N   PHE d   1      18.499 -30.372 -55.728  0.00  0.00    -0.346 N 
ATOM    145  H   PHE d   1      18.799 -30.051 -54.808  0.00  0.00     0.163 HD
BRANCH 144 146
ATOM    146  CA  PHE d   1      17.400 -29.670 -56.397  0.00  0.00     0.093 C 
ATOM    147  H   PHE d   1      16.697 -30.435 -56.727  0.00  0.00     0.088 H 
BRANCH 146 148
ATOM    148  C   PHE d   1      17.865 -28.914 -57.639  0.00  0.00     0.241 C 
ATOM    149  O   PHE d   1      17.362 -29.153 -58.737  0.00  0.00    -0.271 OA
ATOM    150  N   GLN d   1      18.821 -28.006 -57.460  0.00  0.00    -0.345 N 
ATOM    151  H   GLN d   1      19.215 -27.870 -56.529  0.00  0.00     0.163 HD
BRANCH 150 152
ATOM    152  CA  GLN d   1      19.317 -27.200 -58.572  0.00  0.00     0.096 C 
ATOM    153  H   GLN d   1      18.474 -27.000 -59.233  0.00  0.00     0.089 H 
BRANCH 152 154
ATOM    154  C   GLN d   1      20.363 -27.954 -59.388  0.00  0.00     0.196 C 
ATOM    155  O   GLN d   1      20.783 -27.504 -60.453  0.00  0.00    -0.646 OA
ATOM    156  OXT GLN d   1      20.803 -29.038 -59.003  0.00  0.00    -0.646 OA
ENDBRANCH 152 154
BRANCH 152 157
ATOM    157  CB  GLN d   1      19.855 -25.847 -58.083  0.00  0.00    -0.029 C 
ATOM    158  H   GLN d   1      19.075 -25.416 -57.455  0.00  0.00     0.037 H 
ATOM    159  H   GLN d   1      20.116 -25.279 -58.976  0.00  0.00     0.037 H 
BRANCH 157 160
ATOM    160  CG  GLN d   1      21.114 -25.901 -57.227  0.00  0.00     0.011 C 
ATOM    161  H   GLN d   1      21.812 -26.589 -57.703  0.00  0.00     0.047 H 
ATOM    162  H   GLN d   1      20.824 -26.220 -56.226  0.00  0.00     0.047 H 
BRANCH 160 163
ATOM    163  CD  GLN d   1      21.801 -24.550 -57.105  0.00  0.00     0.215 C 
ATOM    164  OE1 GLN d   1      21.159 -23.501 -57.140  0.00  0.00    -0.274 OA
ATOM    165  NE2 GLN d   1      23.118 -24.573 -56.958  0.00  0.00    -0.370 N 
ATOM    166  H   GLN d   1      23.637 -23.699 -56.869  0.00  0.00     0.159 HD
ATOM    167  H   GLN d   1      23.613 -25.465 -56.934  0.00  0.00     0.159 HD
ENDBRANCH 160 163
ENDBRANCH 157 160
ENDBRANCH 152 157
ENDBRANCH 150 152
ENDBRANCH 146 148
BRANCH 146 168
ATOM    168  CB  PHE d   1      16.674 -28.723 -55.429  0.00  0.00    -0.014 C 
ATOM    169  H   PHE d   1      17.407 -27.999 -55.075  0.00  0.00     0.043 H 
ATOM    170  H   PHE d   1      16.240 -29.338 -54.640  0.00  0.00     0.043 H 
BRANCH 168 171
ATOM    171  CG  PHE d   1      15.545 -27.944 -56.061  0.00  0.00    -0.056 A 
ATOM    172  CD1 PHE d   1      15.571 -26.549 -56.079  0.00  0.00    -0.077 A 
ATOM    173  CE1 PHE d   1      14.533 -25.820 -56.659  0.00  0.00    -0.082 A 
ATOM    174  H   PHE d   1      16.414 -26.021 -55.633  0.00  0.00     0.084 H 
ATOM    175  CZ  PHE d   1      13.456 -26.488 -57.238  0.00  0.00    -0.083 A 
ATOM    176  H   PHE d   1      14.564 -24.730 -56.659  0.00  0.00     0.083 H 
ATOM    177  CE2 PHE d   1      13.421 -27.882 -57.231  0.00  0.00    -0.082 A 
ATOM    178  H   PHE d   1      12.644 -25.923 -57.695  0.00  0.00     0.083 H 
ATOM    179  CD2 PHE d   1      14.463 -28.601 -56.644  0.00  0.00    -0.077 A 
ATOM    180  H   PHE d   1      12.581 -28.409 -57.683  0.00  0.00     0.083 H 
ATOM    181  H   PHE d   1      14.430 -29.691 -56.641  0.00  0.00     0.084 H 
ENDBRANCH 168 171
ENDBRANCH 146 168
ENDBRANCH 144 146
ENDBRANCH 140 142
BRANCH 140 182
ATOM    182  CB  SER d   1      19.668 -33.103 -54.504  0.00  0.00     0.044 C 
ATOM    183  H   SER d   1      19.067 -32.594 -53.751  0.00  0.00     0.077 H 
ATOM    184  H   SER d   1      20.496 -33.649 -54.051  0.00  0.00     0.077 H 
BRANCH 182 185
ATOM    185  OG  SER d   1      18.841 -34.028 -55.189  0.00  0.00    -0.398 OA
ATOM    186  H   SER d   1      18.112 -33.559 -55.601  0.00  0.00     0.209 HD
ENDBRANCH 182 185
ENDBRANCH 140 182
ENDBRANCH 138 140
ENDBRANCH 134 136
BRANCH 134 187
ATOM    187  CB  LYS d   1      23.628 -29.723 -53.675  0.00  0.00    -0.038 C 
ATOM    188  H   LYS d   1      23.303 -30.662 -53.228  0.00  0.00     0.036 H 
ATOM    189  H   LYS d   1      23.993 -28.988 -52.957  0.00  0.00     0.036 H 
BRANCH 187 190
ATOM    190  CG  LYS d   1      24.783 -30.048 -54.610  0.00  0.00    -0.061 C 
ATOM    191  H   LYS d   1      25.337 -29.130 -54.807  0.00  0.00     0.033 H 
ATOM    192  H   LYS d   1      24.375 -30.473 -55.527  0.00  0.00     0.033 H 
BRANCH 190 193
ATOM    193  CD  LYS d   1      25.733 -31.060 -53.991  0.00  0.00    -0.043 C 
ATOM    194  H   LYS d   1      25.147 -31.869 -53.555  0.00  0.00     0.035 H 
ATOM    195  H   LYS d   1      26.332 -30.558 -53.231  0.00  0.00     0.035 H 
BRANCH 193 196
ATOM    196  CE  LYS d   1      26.666 -31.644 -55.041  0.00  0.00     0.080 C 
ATOM    197  H   LYS d   1      27.374 -30.870 -55.337  0.00  0.00     0.075 H 
ATOM    198  H   LYS d   1      26.062 -31.987 -55.881  0.00  0.00     0.075 H 
BRANCH 196 199
ATOM    199  NZ  LYS d   1      27.436 -32.803 -54.517  0.00  0.00    -0.079 N 
ATOM    200  H   LYS d   1      28.047 -33.163 -55.250  0.00  0.00     0.274 HD
ATOM    201  H   LYS d   1      27.998 -32.504 -53.721  0.00  0.00     0.274 HD
ATOM    202  H   LYS d   1      26.789 -33.534 -54.222  0.00  0.00     0.274 HD
ENDBRANCH 196 199
ENDBRANCH 193 196
ENDBRANCH 190 193
ENDBRANCH 187 190
ENDBRANCH 134 187
ENDBRANCH 132 134
ENDBRANCH 128 130
BRANCH 128 203
ATOM    203  CB  LEU d   1      19.795 -26.353 -51.941  0.00  0.00    -0.035 C 
ATOM    204  H   LEU d   1      20.832 -26.497 -51.637  0.00  0.00     0.037 H 
ATOM    205  H   LEU d   1      19.075 -26.146 -51.149  0.00  0.00     0.037 H 
BRANCH 203 206
ATOM    206  CG  LEU d   1      19.790 -25.114 -52.851  0.00  0.00    -0.059 C 
ATOM    207  H   LEU d   1      19.982 -25.457 -53.867  0.00  0.00     0.038 H 
BRANCH 206 208
ATOM    208  CD1 LEU d   1      18.436 -24.417 -52.829  0.00  0.00    -0.073 C 
ATOM    209  H   LEU d   1      17.668 -25.107 -53.178  0.00  0.00     0.028 H 
ATOM    210  H   LEU d   1      18.208 -24.101 -51.811  0.00  0.00     0.028 H 
ATOM    211  H   LEU d   1      18.467 -23.545 -53.483  0.00  0.00     0.028 H 
ENDBRANCH 206 208
BRANCH 206 212
ATOM    212  CD2 LEU d   1      20.885 -24.142 -52.457  0.00  0.00    -0.073 C 
ATOM    213  H   LEU d   1      20.730 -23.820 -51.428  0.00  0.00     0.028 H 
ATOM    214  H   LEU d   1      21.854 -24.634 -52.543  0.00  0.00     0.028 H 
ATOM    215  H   LEU d   1      20.856 -23.276 -53.119  0.00  0.00     0.028 H 
ENDBRANCH 206 212
ENDBRANCH 203 206
ENDBRANCH 128 203
ENDBRANCH 126 128
ENDBRANCH 122 124
BRANCH 122 216
ATOM    216  CB  SER d   1      17.699 -30.985 -49.786  0.00  0.00     0.044 C 
ATOM    217  H   SER d   1      17.893 -31.718 -49.003  0.00  0.00     0.077 H 
ATOM    218  H   SER d   1      16.790 -31.213 -50.342  0.00  0.00     0.077 H 
BRANCH 216 219
ATOM    219  OG  SER d   1      17.539 -29.716 -49.176  0.00  0.00    -0.398 OA
ATOM    220  H   SER d   1      18.337 -29.493 -48.691  0.00  0.00     0.209 HD
ENDBRANCH 216 219
ENDBRANCH 122 216
ENDBRANCH 120 122
ENDBRANCH 116 118
BRANCH 116 221
ATOM    221  CB  GLU d   1      23.031 -32.160 -49.061  0.00  0.00    -0.029 C 
ATOM    222  H   GLU d   1      23.032 -32.994 -49.763  0.00  0.00     0.037 H 
ATOM    223  H   GLU d   1      22.347 -32.287 -48.222  0.00  0.00     0.037 H 
BRANCH 221 224
ATOM    224  CG  GLU d   1      24.439 -32.052 -48.485  0.00  0.00     0.018 C 
ATOM    225  H   GLU d   1      24.527 -31.082 -47.995  0.00  0.00     0.049 H 
ATOM    226  H   GLU d   1      25.146 -32.175 -49.305  0.00  0.00     0.049 H 
BRANCH 224 227
ATOM    227  CD  GLU d   1      24.733 -33.123 -47.452  0.00  0.00     0.172 C 
ATOM    228  OE1 GLU d   1      24.640 -34.323 -47.786  0.00  0.00    -0.648 OA
ATOM    229  OE2 GLU d   1      25.063 -32.764 -46.302  0.00  0.00    -0.648 OA
ENDBRANCH 224 227
ENDBRANCH 221 224
ENDBRANCH 116 221
ENDBRANCH 114 116
ENDBRANCH   1 112
BRANCH   1 230
ATOM    230  CB  PHE d   1      23.401 -26.898 -47.837  0.00  0.00    -0.014 C 
ATOM    231  H   PHE d   1      24.060 -26.885 -48.705  0.00  0.00     0.043 H 
ATOM    232  H   PHE d   1      23.754 -27.529 -47.022  0.00  0.00     0.043 H 
BRANCH 230 233
ATOM    233  CG  PHE d   1      23.327 -25.486 -47.310  0.00  0.00    -0.056 A 
ATOM    234  CD1 PHE d   1      23.767 -25.187 -46.023  0.00  0.00    -0.077 A 
ATOM    235  CE1 PHE d   1      23.703 -23.882 -45.531  0.00  0.00    -0.082 A 
ATOM    236  H   PHE d   1      24.166 -25.981 -45.392  0.00  0.00     0.084 H 
ATOM    237  CZ  PHE d   1      23.194 -22.861 -46.334  0.00  0.00    -0.083 A 
ATOM    238  H   PHE d   1      24.050 -23.661 -44.522  0.00  0.00     0.083 H 
ATOM    239  CE2 PHE d   1      22.754 -23.150 -47.623  0.00  0.00    -0.082 A 
ATOM    240  H   PHE d   1      23.141 -21.841 -45.954  0.00  0.00     0.083 H 
ATOM    241  CD2 PHE d   1      22.823 -24.455 -48.103  0.00  0.00    -0.077 A 
ATOM    242  H   PHE d   1      22.356 -22.356 -48.255  0.00  0.00     0.083 H 
ATOM    243  H   PHE d   1      22.478 -24.674 -49.114  0.00  0.00     0.084 H 
ENDBRANCH 230 233
ENDBRANCH   1 230
TORSDOF 73
