REMARK  9 active torsions:
REMARK  status: ('A' for Active; 'I' for Inactive)
REMARK    1  A    between atoms: C2_3  and  C17_19 
REMARK    2  A    between atoms: C4_6  and  O2_4 
REMARK    3  A    between atoms: C9_11  and  C16_18 
REMARK    4  A    between atoms: C13_15  and  C14_16 
REMARK    5  A    between atoms: C13_15  and  C15_17 
REMARK    6  A    between atoms: C17_19  and  C18_20 
REMARK    7  A    between atoms: C18_20  and  C19_21 
REMARK    8  A    between atoms: C19_21  and  C20_22 
REMARK    9  A    between atoms: C20_22  and  C21_23 
ROOT
ATOM      1  C1  TCI d   1      29.015  19.976 -32.042  0.00  0.00    -0.044 A 
ATOM      2  O1  TCI d   1      27.189  21.494 -31.901  0.00  0.00    -0.340 OA
ATOM      3  C2  TCI d   1      30.138  19.547 -32.725  0.00  0.00    -0.053 A 
ATOM      4  C3  TCI d   1      30.493  20.170 -33.928  0.00  0.00    -0.044 A 
ATOM      5  C4  TCI d   1      29.710  21.246 -34.417  0.00  0.00     0.075 A 
ATOM      6  C5  TCI d   1      28.609  21.685 -33.679  0.00  0.00     0.017 A 
ATOM      7  C6  TCI d   1      28.293  21.060 -32.529  0.00  0.00     0.080 A 
ATOM      8  C7  TCI d   1      27.552  22.775 -34.067  0.00  0.00    -0.001 C 
ATOM      9  C8  TCI d   1      28.350  23.863 -34.862  0.00  0.00    -0.092 C 
ATOM     10  C9  TCI d   1      27.947  25.191 -34.904  0.00  0.00    -0.087 C 
ATOM     11  C10 TCI d   1      26.704  25.538 -34.147  0.00  0.00    -0.045 C 
ATOM     12  C11 TCI d   1      25.758  24.387 -33.804  0.00  0.00    -0.055 C 
ATOM     13  C12 TCI d   1      26.644  23.436 -32.969  0.00  0.00    -0.013 C 
ATOM     14  C13 TCI d   1      25.982  22.199 -32.414  0.00  0.00     0.065 C 
ATOM     15  H1  TCI d   1      28.700  19.472 -31.135  0.00  0.00     0.088 H 
ATOM     16  H3  TCI d   1      31.361  19.832 -34.482  0.00  0.00     0.088 H 
ATOM     17  H4  TCI d   1      26.852  22.288 -34.762  0.00  0.00     0.054 H 
ATOM     18  H5  TCI d   1      29.250  23.568 -35.399  0.00  0.00     0.078 H 
ATOM     19  H6  TCI d   1      26.139  26.264 -34.751  0.00  0.00     0.039 H 
ATOM     20  H7  TCI d   1      27.011  26.008 -33.201  0.00  0.00     0.039 H 
ATOM     21  H8  TCI d   1      25.396  23.889 -34.716  0.00  0.00     0.034 H 
ATOM     22  H9  TCI d   1      24.900  24.744 -33.216  0.00  0.00     0.034 H 
ATOM     23  H10 TCI d   1      27.191  23.987 -32.190  0.00  0.00     0.046 H 
ENDROOT
BRANCH   3  24
ATOM     24  C17 TCI d   1      30.952  18.410 -32.053  0.00  0.00    -0.041 C 
ATOM     25  H20 TCI d   1      31.256  18.740 -31.049  0.00  0.00     0.040 H 
ATOM     26  H21 TCI d   1      31.847  18.211 -32.660  0.00  0.00     0.040 H 
BRANCH  24  27
ATOM     27  C18 TCI d   1      30.161  17.128 -31.922  0.00  0.00    -0.061 C 
ATOM     28  H22 TCI d   1      29.942  16.727 -32.923  0.00  0.00     0.033 H 
ATOM     29  H23 TCI d   1      29.218  17.331 -31.394  0.00  0.00     0.033 H 
BRANCH  27  30
ATOM     30  C19 TCI d   1      30.994  16.091 -31.118  0.00  0.00    -0.065 C 
ATOM     31  H24 TCI d   1      31.151  16.479 -30.101  0.00  0.00     0.033 H 
ATOM     32  H25 TCI d   1      31.966  15.959 -31.615  0.00  0.00     0.033 H 
BRANCH  30  33
ATOM     33  C20 TCI d   1      30.305  14.730 -31.022  0.00  0.00    -0.069 C 
ATOM     34  H26 TCI d   1      30.137  14.328 -32.032  0.00  0.00     0.032 H 
ATOM     35  H27 TCI d   1      29.340  14.839 -30.505  0.00  0.00     0.032 H 
BRANCH  33  36
ATOM     36  C21 TCI d   1      31.214  13.771 -30.227  0.00  0.00    -0.077 C 
ATOM     37  H28 TCI d   1      30.730  12.786 -30.150  0.00  0.00     0.027 H 
ATOM     38  H29 TCI d   1      31.382  14.177 -29.218  0.00  0.00     0.027 H 
ATOM     39  H30 TCI d   1      32.178  13.666 -30.745  0.00  0.00     0.027 H 
ENDBRANCH  33  36
ENDBRANCH  30  33
ENDBRANCH  27  30
ENDBRANCH  24  27
ENDBRANCH   3  24
BRANCH   5  40
ATOM     40  O2  TCI d   1      30.036  21.790 -35.613  0.00  0.00    -0.360 OA
ATOM     41  H2  TCI d   1      29.982  21.124 -36.288  0.00  0.00     0.217 HD
ENDBRANCH   5  40
BRANCH  14  42
ATOM     42  C14 TCI d   1      25.116  22.560 -31.212  0.00  0.00    -0.047 C 
ATOM     43  H11 TCI d   1      24.212  23.084 -31.556  0.00  0.00     0.031 H 
ATOM     44  H12 TCI d   1      25.684  23.214 -30.534  0.00  0.00     0.031 H 
ATOM     45  H13 TCI d   1      24.827  21.642 -30.679  0.00  0.00     0.031 H 
ENDBRANCH  14  42
BRANCH  14  46
ATOM     46  C15 TCI d   1      25.303  21.274 -33.453  0.00  0.00    -0.047 C 
ATOM     47  H14 TCI d   1      24.405  21.768 -33.852  0.00  0.00     0.031 H 
ATOM     48  H15 TCI d   1      25.017  20.328 -32.970  0.00  0.00     0.031 H 
ATOM     49  H16 TCI d   1      26.005  21.069 -34.275  0.00  0.00     0.031 H 
ENDBRANCH  14  46
BRANCH  10  50
ATOM     50  C16 TCI d   1      28.778  26.310 -35.542  0.00  0.00    -0.055 C 
ATOM     51  H17 TCI d   1      29.649  25.874 -36.053  0.00  0.00     0.033 H 
ATOM     52  H18 TCI d   1      29.121  27.003 -34.760  0.00  0.00     0.033 H 
ATOM     53  H19 TCI d   1      28.160  26.856 -36.270  0.00  0.00     0.033 H 
ENDBRANCH  10  50
TORSDOF 9
