REMARK  20 active torsions:
REMARK  status: ('A' for Active; 'I' for Inactive)
REMARK    1  A    between atoms: C1_1  and  C2_4 
REMARK    2  A    between atoms: C2_4  and  C3_5 
REMARK    3  A    between atoms: C3_5  and  C4_6 
REMARK    4  A    between atoms: C4_6  and  O3_7 
REMARK    5  A    between atoms: C4_6  and  N_8 
REMARK    6  A    between atoms: N_8  and  CA_9 
REMARK    7  A    between atoms: CA_9  and  C_10 
REMARK    8  A    between atoms: CA_9  and  CB_12 
REMARK       I    between atoms: C_10  and  N_13 
REMARK    9  A    between atoms: N_13  and  CA_14 
REMARK   10  A    between atoms: CA_14  and  C_15 
REMARK   11  A    between atoms: CA_14  and  CB_17 
REMARK       I    between atoms: C_15  and  N_21 
REMARK   12  A    between atoms: CB_17  and  CG_18 
REMARK   13  A    between atoms: CG_18  and  CD1_19 
REMARK   14  A    between atoms: CG_18  and  CD2_20 
REMARK   15  A    between atoms: CA_22  and  C_23 
REMARK       I    between atoms: C_23  and  N_28 
REMARK   16  A    between atoms: N_28  and  CA_29 
REMARK   17  A    between atoms: CA_29  and  C_30 
REMARK   18  A    between atoms: CA_29  and  CB_32 
REMARK       I    between atoms: C_30  and  N1_33 
REMARK   19  A    between atoms: N1_33  and  C1_34 
REMARK   20  A    between atoms: C4_37  and  N4_38 
ROOT
ATOM      1  CA  LEU d   1       8.154 -17.447 -22.868  0.00  0.00     0.090 C 
ATOM      2  H   LEU d   1       7.720 -17.842 -23.787  0.00  0.00     0.087 H 
ENDROOT
BRANCH   1   3
ATOM      3  N   LEU d   1       9.313 -18.265 -22.514  0.00  0.00    -0.346 N 
ATOM      4  C   ALA d   1      10.381 -18.353 -23.303  0.00  0.00     0.248 C 
ATOM      5  O   ALA d   1      10.478 -17.747 -24.372  0.00  0.00    -0.271 OA
ATOM      6  H   LEU d   1       9.303 -18.784 -21.636  0.00  0.00     0.163 HD
BRANCH   4   7
ATOM      7  CA  ALA d   1      11.506 -19.267 -22.821  0.00  0.00     0.177 C 
ATOM      8  H   ALA d   1      12.010 -19.652 -23.707  0.00  0.00     0.099 H 
BRANCH   7   9
ATOM      9  N   ALA d   1      12.504 -18.547 -22.034  0.00  0.00    -0.037 N 
ATOM     10  H   ALA d   1      12.800 -17.936 -22.795  0.00  0.00     0.281 HD
ATOM     11  H   ALA d   1      11.984 -18.594 -21.158  0.00  0.00     0.281 HD
BRANCH   9  12
ATOM     12  C4  SIN d   1      13.707 -18.627 -21.466  0.00  0.00     0.191 C 
ATOM     13  H   SIN d   1      13.761 -18.788 -20.389  0.00  0.00     0.128 H 
BRANCH  12  14
ATOM     14  C3  SIN d   1      14.213 -17.264 -21.880  0.00  0.00    -0.008 C 
ATOM     15  H   SIN d   1      13.824 -17.018 -22.868  0.00  0.00     0.040 H 
ATOM     16  H   SIN d   1      13.877 -16.519 -21.159  0.00  0.00     0.040 H 
BRANCH  14  17
ATOM     17  C2  SIN d   1      15.738 -17.276 -21.924  0.00  0.00     0.019 C 
ATOM     18  H   SIN d   1      16.119 -16.500 -21.260  0.00  0.00     0.049 H 
ATOM     19  H   SIN d   1      16.096 -18.255 -21.605  0.00  0.00     0.049 H 
BRANCH  17  20
ATOM     20  C1  SIN d   1      16.224 -17.006 -23.330  0.00  0.00     0.172 C 
ATOM     21  O1  SIN d   1      17.453 -17.055 -23.556  0.00  0.00    -0.648 OA
ATOM     22  O2  SIN d   1      15.385 -16.746 -24.218  0.00  0.00    -0.648 OA
ENDBRANCH  17  20
ENDBRANCH  14  17
ENDBRANCH  12  14
BRANCH  12  23
ATOM     23  O3  SIN d   1      14.343 -19.632 -21.737  0.00  0.00    -0.370 OA
ATOM     24  H   SIN d   1      15.191 -19.604 -21.287  0.00  0.00     0.212 HD
ENDBRANCH  12  23
ENDBRANCH   9  12
ENDBRANCH   7   9
BRANCH   7  25
ATOM     25  CB  ALA d   1      10.940 -20.435 -22.024  0.00  0.00    -0.041 C 
ATOM     26  H   ALA d   1      11.747 -21.119 -21.762  0.00  0.00     0.030 H 
ATOM     27  H   ALA d   1      10.471 -20.059 -21.114  0.00  0.00     0.030 H 
ATOM     28  H   ALA d   1      10.198 -20.959 -22.627  0.00  0.00     0.030 H 
ENDBRANCH   7  25
ENDBRANCH   4   7
ENDBRANCH   1   3
BRANCH   1  29
ATOM     29  C   LEU d   1       8.567 -15.993 -23.138  0.00  0.00     0.243 C 
ATOM     30  O   LEU d   1       9.586 -15.533 -22.620  0.00  0.00    -0.271 OA
ATOM     31  N   PRO d   1       7.774 -15.256 -23.941  0.00  0.00    -0.337 N 
ATOM     32  CA  PRO d   1       6.477 -15.586 -24.555  0.00  0.00     0.091 C 
ATOM     33  CD  PRO d   1       8.195 -13.887 -24.284  0.00  0.00    -0.001 C 
ATOM     34  CB  PRO d   1       6.064 -14.271 -25.232  0.00  0.00    -0.036 C 
ATOM     35  H   PRO d   1       5.791 -15.965 -23.797  0.00  0.00     0.087 H 
ATOM     36  CG  PRO d   1       6.904 -13.219 -24.603  0.00  0.00    -0.048 C 
ATOM     37  H   PRO d   1       5.002 -14.068 -25.096  0.00  0.00     0.036 H 
ATOM     38  H   PRO d   1       6.217 -14.312 -26.310  0.00  0.00     0.036 H 
ATOM     39  H   PRO d   1       6.432 -12.809 -23.710  0.00  0.00     0.035 H 
ATOM     40  H   PRO d   1       7.046 -12.368 -25.268  0.00  0.00     0.035 H 
ATOM     41  H   PRO d   1       8.906 -13.855 -25.109  0.00  0.00     0.064 H 
ATOM     42  H   PRO d   1       8.741 -13.395 -23.479  0.00  0.00     0.064 H 
BRANCH  32  43
ATOM     43  C   PRO d   1       6.529 -16.694 -25.610  0.00  0.00     0.241 C 
ATOM     44  O   PRO d   1       7.283 -16.594 -26.582  0.00  0.00    -0.271 OA
ATOM     45  N   ALA d   1       5.712 -17.727 -25.421  0.00  0.00    -0.346 N 
ATOM     46  H   ALA d   1       5.159 -17.771 -24.565  0.00  0.00     0.163 HD
BRANCH  45  47
ATOM     47  CA  ALA d   1       5.584 -18.799 -26.403  0.00  0.00     0.086 C 
ATOM     48  H   ALA d   1       6.159 -18.519 -27.285  0.00  0.00     0.086 H 
BRANCH  47  49
ATOM     49  C   ALA d   1       4.127 -18.982 -26.826  0.00  0.00     0.244 C 
ATOM     50  O   ALA d   1       3.801 -19.894 -27.587  0.00  0.00    -0.271 OA
ATOM     51  N1  NIT d   1       3.042 -18.235 -26.623  0.00  0.00    -0.325 N 
ATOM     52  H   NIT d   1       3.239 -17.565 -25.880  0.00  0.00     0.169 HD
BRANCH  51  53
ATOM     53  C1  NIT d   1       1.768 -18.048 -27.053  0.00  0.00     0.034 A 
ATOM     54  C2  NIT d   1       1.507 -17.967 -28.417  0.00  0.00    -0.055 A 
ATOM     55  C3  NIT d   1       0.206 -17.776 -28.867  0.00  0.00    -0.049 A 
ATOM     56  H   NIT d   1       2.324 -18.053 -29.134  0.00  0.00     0.087 H 
ATOM     57  C4  NIT d   1      -0.837 -17.670 -27.953  0.00  0.00     0.103 A 
ATOM     58  H   NIT d   1       0.003 -17.709 -29.936  0.00  0.00     0.087 H 
ATOM     59  C5  NIT d   1      -0.579 -17.751 -26.588  0.00  0.00    -0.049 A 
ATOM     60  C6  NIT d   1       0.724 -17.940 -26.138  0.00  0.00    -0.055 A 
ATOM     61  H   NIT d   1      -1.397 -17.666 -25.872  0.00  0.00     0.087 H 
ATOM     62  H   NIT d   1       0.927 -18.003 -25.069  0.00  0.00     0.087 H 
BRANCH  57  63
ATOM     63  N4  NIT d   1      -2.144 -17.479 -28.418  0.00  0.00    -0.116 N 
ATOM     64  ON1 NIT d   1      -2.330 -17.098 -29.563  0.00  0.00    -0.532 OA
ATOM     65  ON2 NIT d   1      -3.164 -17.719 -27.634  0.00  0.00    -0.532 OA
ENDBRANCH  57  63
ENDBRANCH  51  53
ENDBRANCH  47  49
BRANCH  47  66
ATOM     66  CB  ALA d   1       6.150 -20.101 -25.852  0.00  0.00    -0.049 C 
ATOM     67  H   ALA d   1       7.205 -19.965 -25.613  0.00  0.00     0.030 H 
ATOM     68  H   ALA d   1       5.604 -20.380 -24.951  0.00  0.00     0.030 H 
ATOM     69  H   ALA d   1       6.045 -20.887 -26.600  0.00  0.00     0.030 H 
ENDBRANCH  47  66
ENDBRANCH  45  47
ENDBRANCH  32  43
ENDBRANCH   1  29
BRANCH   1  70
ATOM     70  CB  LEU d   1       7.099 -17.520 -21.758  0.00  0.00    -0.035 C 
ATOM     71  H   LEU d   1       6.184 -17.098 -22.173  0.00  0.00     0.037 H 
ATOM     72  H   LEU d   1       7.515 -16.991 -20.901  0.00  0.00     0.037 H 
BRANCH  70  73
ATOM     73  CG  LEU d   1       6.747 -18.929 -21.271  0.00  0.00    -0.059 C 
ATOM     74  H   LEU d   1       7.651 -19.371 -20.852  0.00  0.00     0.038 H 
BRANCH  73  75
ATOM     75  CD1 LEU d   1       5.698 -18.897 -20.155  0.00  0.00    -0.073 C 
ATOM     76  H   LEU d   1       6.086 -18.328 -19.310  0.00  0.00     0.028 H 
ATOM     77  H   LEU d   1       4.789 -18.424 -20.526  0.00  0.00     0.028 H 
ATOM     78  H   LEU d   1       5.476 -19.916 -19.837  0.00  0.00     0.028 H 
ENDBRANCH  73  75
BRANCH  73  79
ATOM     79  CD2 LEU d   1       6.279 -19.793 -22.433  0.00  0.00    -0.073 C 
ATOM     80  H   LEU d   1       5.395 -19.343 -22.886  0.00  0.00     0.028 H 
ATOM     81  H   LEU d   1       7.074 -19.863 -23.176  0.00  0.00     0.028 H 
ATOM     82  H   LEU d   1       6.034 -20.790 -22.067  0.00  0.00     0.028 H 
ENDBRANCH  73  79
ENDBRANCH  70  73
ENDBRANCH   1  70
TORSDOF 20
