REMARK  7 active torsions:
REMARK  status: ('A' for Active; 'I' for Inactive)
REMARK    1  A    between atoms: C10_10  and  C7_7 
REMARK    2  A    between atoms: C13_13  and  C10_10 
REMARK    3  A    between atoms: C14_14  and  C13_13 
REMARK    4  A    between atoms: C15_15  and  C14_14 
REMARK    5  A    between atoms: N20_20  and  C15_15 
REMARK    6  A    between atoms: N22_22  and  C17_17 
REMARK       I    between atoms: C23_23  and  N22_22 
REMARK    7  A    between atoms: C24_24  and  C23_23 
ROOT
ATOM      1  C1  CCX d   1      -1.702 -22.557 -56.016  0.00  0.00    -0.000 A 
ATOM      2  C2  CCX d   1      -0.529 -22.636 -56.746  0.00  0.00     0.043 A 
ATOM      3  C3  CCX d   1      -2.491 -21.404 -56.017  0.00  0.00    -0.050 A 
ATOM      4  C4  CCX d   1      -0.074 -21.553 -57.500  0.00  0.00    -0.055 A 
ATOM      5  C5  CCX d   1      -2.047 -20.314 -56.788  0.00  0.00     0.045 A 
ATOM      6  C6  CCX d   1      -0.848 -20.394 -57.521  0.00  0.00    -0.061 A 
ATOM      7  C7  CCX d   1      -1.867 -23.775 -55.380  0.00  0.00    -0.030 A 
ATOM      8  C8  CCX d   1      -0.772 -24.564 -55.738  0.00  0.00    -0.016 A 
ATOM      9  N9  CCX d   1       0.019 -23.858 -56.561  0.00  0.00    -0.365 N 
ATOM     10  C11 CCX d   1      -2.828 -19.113 -56.811  0.00  0.00     0.099 C 
ATOM     11  N12 CCX d   1      -3.478 -18.150 -56.800  0.00  0.00    -0.191 NA
ATOM     12  H   CCX d   1      -3.416 -21.351 -55.442  0.00  0.00     0.087 H 
ATOM     13  H   CCX d   1       0.861 -21.612 -58.057  0.00  0.00     0.087 H 
ATOM     14  H   CCX d   1      -0.521 -19.539 -58.112  0.00  0.00     0.085 H 
ATOM     15  H   CCX d   1      -0.590 -25.585 -55.404  0.00  0.00     0.112 H 
ATOM     16  H   CCX d   1       0.889 -24.189 -56.978  0.00  0.00     0.165 HD
ENDROOT
BRANCH   7  17
ATOM     17  C10 CCX d   1      -3.019 -24.154 -54.462  0.00  0.00    -0.039 C 
ATOM     18  H   CCX d   1      -3.376 -25.145 -54.741  0.00  0.00     0.040 H 
ATOM     19  H   CCX d   1      -3.809 -23.410 -54.567  0.00  0.00     0.040 H 
BRANCH  17  20
ATOM     20  C13 CCX d   1      -2.568 -24.188 -53.001  0.00  0.00    -0.060 C 
ATOM     21  H   CCX d   1      -2.207 -23.190 -52.751  0.00  0.00     0.033 H 
ATOM     22  H   CCX d   1      -1.811 -24.968 -52.914  0.00  0.00     0.033 H 
BRANCH  20  23
ATOM     23  C14 CCX d   1      -3.682 -24.527 -52.016  0.00  0.00    -0.040 C 
ATOM     24  H   CCX d   1      -3.240 -24.985 -51.131  0.00  0.00     0.035 H 
ATOM     25  H   CCX d   1      -4.381 -25.210 -52.498  0.00  0.00     0.035 H 
BRANCH  23  26
ATOM     26  C15 CCX d   1      -4.439 -23.264 -51.593  0.00  0.00     0.113 C 
ATOM     27  H   CCX d   1      -4.638 -22.686 -52.495  0.00  0.00     0.079 H 
ATOM     28  H   CCX d   1      -3.819 -22.741 -50.865  0.00  0.00     0.079 H 
BRANCH  26  29
ATOM     29  N20 CCX d   1      -5.747 -23.541 -50.945  0.00  0.00     0.088 N 
ATOM     30  C18 CCX d   1      -5.574 -24.332 -49.684  0.00  0.00     0.115 C 
ATOM     31  C16 CCX d   1      -6.863 -24.419 -48.843  0.00  0.00    -0.021 C 
ATOM     32  H   CCX d   1      -5.293 -25.347 -49.966  0.00  0.00     0.080 H 
ATOM     33  H   CCX d   1      -4.818 -23.831 -49.080  0.00  0.00     0.080 H 
ATOM     34  C17 CCX d   1      -7.292 -22.986 -48.537  0.00  0.00     0.015 C 
ATOM     35  H   CCX d   1      -7.645 -24.948 -49.388  0.00  0.00     0.038 H 
ATOM     36  H   CCX d   1      -6.686 -24.974 -47.922  0.00  0.00     0.038 H 
ATOM     37  C19 CCX d   1      -7.657 -22.337 -49.868  0.00  0.00    -0.021 C 
ATOM     38  H   CCX d   1      -6.476 -22.453 -48.049  0.00  0.00     0.072 H 
ATOM     39  C21 CCX d   1      -6.396 -22.225 -50.727  0.00  0.00     0.115 C 
ATOM     40  H   CCX d   1      -8.073 -21.345 -49.692  0.00  0.00     0.038 H 
ATOM     41  H   CCX d   1      -8.401 -22.945 -50.383  0.00  0.00     0.038 H 
ATOM     42  H   CCX d   1      -5.688 -21.580 -50.207  0.00  0.00     0.080 H 
ATOM     43  H   CCX d   1      -6.683 -21.823 -51.699  0.00  0.00     0.080 H 
BRANCH  34  44
ATOM     44  N22 CCX d   1      -8.422 -22.930 -47.598  0.00  0.00    -0.352 N 
ATOM     45  C23 CCX d   1      -8.631 -21.786 -46.758  0.00  0.00     0.254 C 
ATOM     46  O35 CCX d   1      -7.869 -20.845 -46.767  0.00  0.00    -0.268 OA
ATOM     47  H   CCX d   1      -9.068 -23.718 -47.543  0.00  0.00     0.163 HD
BRANCH  45  48
ATOM     48  C24 CCX d   1      -9.798 -21.745 -45.859  0.00  0.00     0.059 A 
ATOM     49  C28 CCX d   1     -10.095 -22.773 -44.975  0.00  0.00     0.059 A 
ATOM     50  C26 CCX d   1     -11.196 -22.698 -44.156  0.00  0.00     0.014 A 
ATOM     51  N32 CCX d   1      -9.465 -23.933 -44.736  0.00  0.00    -0.363 N 
ATOM     52  C25 CCX d   1     -12.051 -21.611 -44.171  0.00  0.00    -0.069 A 
ATOM     53  C30 CCX d   1     -11.235 -23.840 -43.398  0.00  0.00     0.072 A 
ATOM     54  C27 CCX d   1     -11.771 -20.571 -45.051  0.00  0.00    -0.081 A 
ATOM     55  H   CCX d   1     -12.919 -21.571 -43.513  0.00  0.00     0.085 H 
ATOM     56  C29 CCX d   1     -10.652 -20.640 -45.890  0.00  0.00    -0.065 A 
ATOM     57  H   CCX d   1     -12.425 -19.700 -45.088  0.00  0.00     0.083 H 
ATOM     58  H   CCX d   1     -10.444 -19.820 -46.577  0.00  0.00     0.085 H 
ATOM     59  C31 CCX d   1     -10.143 -24.600 -43.777  0.00  0.00    -0.002 A 
ATOM     60  C33 CCX d   1     -12.227 -24.163 -42.420  0.00  0.00     0.102 C 
ATOM     61  H   CCX d   1      -9.874 -25.575 -43.370  0.00  0.00     0.113 H 
ATOM     62  N34 CCX d   1     -13.093 -24.356 -41.666  0.00  0.00    -0.191 NA
ATOM     63  H   CCX d   1      -8.617 -24.257 -45.200  0.00  0.00     0.165 HD
ENDBRANCH  45  48
ENDBRANCH  34  44
ENDBRANCH  26  29
ENDBRANCH  23  26
ENDBRANCH  20  23
ENDBRANCH  17  20
ENDBRANCH   7  17
TORSDOF 7
