REMARK  7 active torsions:
REMARK  status: ('A' for Active; 'I' for Inactive)
REMARK    1  A    between atoms: C1_1  and  C14_14 
REMARK    2  A    between atoms: C7_7  and  O19_19 
REMARK    3  A    between atoms: C11_11  and  C16_16 
REMARK    4  A    between atoms: C13_13  and  C15_15 
REMARK    5  A    between atoms: C16_16  and  C17_17 
REMARK    6  A    between atoms: C17_17  and  C18_18 
REMARK    7  A    between atoms: O19_19  and  C20_20 
ROOT
ATOM      1  C1  Z73 d   1      14.454  15.204 -11.002  0.00  0.00     0.060 A 
ATOM      2  C2  Z73 d   1      14.388  15.698  -9.693  0.00  0.00     0.089 A 
ATOM      3  N3  Z73 d   1      13.697  15.832 -12.002  0.00  0.00    -0.248 NA
ATOM      4  N4  Z73 d   1      13.604  16.748  -9.404  0.00  0.00    -0.279 N 
ATOM      5  C5  Z73 d   1      12.895  16.926 -11.663  0.00  0.00     0.103 A 
ATOM      6  C6  Z73 d   1      12.865  17.378 -10.337  0.00  0.00     0.168 A 
ATOM      7  C7  Z73 d   1      11.327  19.139 -10.957  0.00  0.00     0.166 A 
ATOM      8  N8  Z73 d   1      12.086  18.471 -10.002  0.00  0.00    -0.204 NA
ATOM      9  C9  Z73 d   1      11.352  18.690 -12.275  0.00  0.00    -0.030 A 
ATOM     10  C10 Z73 d   1      12.136  17.594 -12.619  0.00  0.00    -0.047 A 
ATOM     11  C11 Z73 d   1      13.732  17.021  -8.089  0.00  0.00     0.090 A 
ATOM     12  N12 Z73 d   1      14.584  16.138  -7.512  0.00  0.00    -0.347 N 
ATOM     13  C13 Z73 d   1      15.005  15.315  -8.493  0.00  0.00     0.036 A 
ATOM     14  H1  Z73 d   1      10.761  19.194 -13.031  0.00  0.00     0.090 H 
ATOM     15  H2  Z73 d   1      12.156  17.255 -13.648  0.00  0.00     0.087 H 
ATOM     16  H3  Z73 d   1      14.856  16.103  -6.519  0.00  0.00     0.167 HD
ENDROOT
BRANCH  11  17
ATOM     17  C16 Z73 d   1      13.031  18.092  -7.310  0.00  0.00    -0.011 C 
ATOM     18  H10 Z73 d   1      12.856  18.979  -7.936  0.00  0.00     0.044 H 
ATOM     19  H11 Z73 d   1      13.617  18.378  -6.424  0.00  0.00     0.044 H 
BRANCH  17  20
ATOM     20  C17 Z73 d   1      11.698  17.443  -6.897  0.00  0.00    -0.062 C 
ATOM     21  H12 Z73 d   1      11.929  16.558  -6.286  0.00  0.00     0.033 H 
ATOM     22  H13 Z73 d   1      11.177  17.130  -7.814  0.00  0.00     0.033 H 
BRANCH  20  23
ATOM     23  C18 Z73 d   1      10.742  18.333  -6.094  0.00  0.00    -0.076 C 
ATOM     24  H14 Z73 d   1       9.829  17.768  -5.856  0.00  0.00     0.027 H 
ATOM     25  H15 Z73 d   1      10.480  19.220  -6.689  0.00  0.00     0.027 H 
ATOM     26  H16 Z73 d   1      11.232  18.649  -5.161  0.00  0.00     0.027 H 
ENDBRANCH  20  23
ENDBRANCH  17  20
ENDBRANCH  11  17
BRANCH  13  27
ATOM     27  C15 Z73 d   1      15.979  14.192  -8.236  0.00  0.00    -0.035 C 
ATOM     28  H7  Z73 d   1      16.177  13.656  -9.176  0.00  0.00     0.035 H 
ATOM     29  H8  Z73 d   1      15.550  13.495  -7.501  0.00  0.00     0.035 H 
ATOM     30  H9  Z73 d   1      16.920  14.605  -7.844  0.00  0.00     0.035 H 
ENDBRANCH  13  27
BRANCH   1  31
ATOM     31  C14 Z73 d   1      15.310  14.020 -11.377  0.00  0.00    -0.033 C 
ATOM     32  H4  Z73 d   1      15.202  13.816 -12.453  0.00  0.00     0.035 H 
ATOM     33  H5  Z73 d   1      14.989  13.139 -10.803  0.00  0.00     0.035 H 
ATOM     34  H6  Z73 d   1      16.363  14.242 -11.150  0.00  0.00     0.035 H 
ENDBRANCH   1  31
BRANCH   7  35
ATOM     35  O19 Z73 d   1      10.567  20.217 -10.574  0.00  0.00    -0.339 OA
BRANCH  35  36
ATOM     36  C20 Z73 d   1      10.343  20.491  -9.186  0.00  0.00     0.012 C 
ATOM     37  H17 Z73 d   1       9.715  21.389  -9.086  0.00  0.00     0.067 H 
ATOM     38  H18 Z73 d   1      11.308  20.661  -8.685  0.00  0.00     0.067 H 
ATOM     39  H19 Z73 d   1       9.834  19.634  -8.721  0.00  0.00     0.067 H 
ENDBRANCH  35  36
ENDBRANCH   7  35
TORSDOF 7
