REMARK  4 active torsions:
REMARK  status: ('A' for Active; 'I' for Inactive)
REMARK    1  A    between atoms: C2_18  and  C14_20 
REMARK    2  A    between atoms: C14_20  and  C17_21 
REMARK    3  A    between atoms: C14_20  and  C16_22 
REMARK    4  A    between atoms: C14_20  and  C15_23 
ROOT
ATOM      1  O0  IZA d   1      -2.879  13.563   2.727  0.00  0.00    -0.265 OA
ATOM      2  C11 IZA d   1      -1.813  13.228   3.246  0.00  0.00     0.278 A 
ATOM      3  N2  IZA d   1      -1.478  11.906   3.356  0.00  0.00    -0.226 NA
ATOM      4  C12 IZA d   1      -0.297  11.425   3.889  0.00  0.00    -0.010 A 
ATOM      5  C13 IZA d   1       0.613  12.273   4.380  0.00  0.00    -0.007 A 
ATOM      6  C9  IZA d   1       0.336  13.701   4.332  0.00  0.00    -0.005 A 
ATOM      7  C1  IZA d   1       1.253  14.597   4.843  0.00  0.00     0.094 A 
ATOM      8  C10 IZA d   1      -0.832  14.226   3.780  0.00  0.00     0.054 A 
ATOM      9  C8  IZA d   1      -1.070  15.602   3.743  0.00  0.00    -0.004 A 
ATOM     10  C7  IZA d   1      -2.229  16.170   3.206  0.00  0.00    -0.034 A 
ATOM     11  C6  IZA d   1      -2.407  17.541   3.196  0.00  0.00     0.117 A 
ATOM     12  F1  IZA d   1      -3.544  18.076   2.653  0.00  0.00    -0.206 F 
ATOM     13  C5  IZA d   1      -1.454  18.401   3.721  0.00  0.00    -0.045 A 
ATOM     14  C4  IZA d   1      -0.294  17.858   4.259  0.00  0.00    -0.067 A 
ATOM     15  C3  IZA d   1      -0.127  16.486   4.264  0.00  0.00     0.004 A 
ATOM     16  C0  IZA d   1       1.050  15.963   4.821  0.00  0.00     0.074 A 
ATOM     17  N1  IZA d   1       2.114  16.611   5.400  0.00  0.00    -0.341 N 
ATOM     18  C2  IZA d   1       2.970  15.673   5.767  0.00  0.00     0.113 A 
ATOM     19  N0  IZA d   1       2.482  14.434   5.450  0.00  0.00    -0.232 NA
ATOM     20  H1  IZA d   1      -0.107  10.353   3.909  0.00  0.00     0.108 H 
ATOM     21  H2  IZA d   1       1.546  12.105   3.822  0.00  0.00     0.048 H 
ATOM     22  H3  IZA d   1       0.765  12.008   5.437  0.00  0.00     0.048 H 
ATOM     23  H4  IZA d   1      -2.998  15.527   2.792  0.00  0.00     0.089 H 
ATOM     24  H5  IZA d   1      -1.611  19.474   3.712  0.00  0.00     0.088 H 
ATOM     25  H6  IZA d   1       0.473  18.504   4.671  0.00  0.00     0.085 H 
ATOM     26  H7  IZA d   1       2.223  17.628   5.524  0.00  0.00     0.167 HD
ENDROOT
BRANCH  18  27
ATOM     27  C14 IZA d   1       4.268  15.883   6.469  0.00  0.00     0.009 C 
BRANCH  27  28
ATOM     28  C17 IZA d   1       5.054  14.593   6.605  0.00  0.00    -0.063 C 
ATOM     29  H8  IZA d   1       6.001  14.794   7.127  0.00  0.00     0.029 H 
ATOM     30  H9  IZA d   1       5.266  14.185   5.606  0.00  0.00     0.029 H 
ATOM     31  H10 IZA d   1       4.465  13.864   7.181  0.00  0.00     0.029 H 
ENDBRANCH  27  28
BRANCH  27  32
ATOM     32  C16 IZA d   1       3.856  16.325   7.857  0.00  0.00    -0.063 C 
ATOM     33  H11 IZA d   1       3.283  17.261   7.788  0.00  0.00     0.029 H 
ATOM     34  H12 IZA d   1       4.754  16.489   8.471  0.00  0.00     0.029 H 
ATOM     35  H13 IZA d   1       3.232  15.546   8.320  0.00  0.00     0.029 H 
ENDBRANCH  27  32
BRANCH  27  36
ATOM     36  C15 IZA d   1       5.123  16.958   5.842  0.00  0.00    -0.063 C 
ATOM     37  H14 IZA d   1       5.426  16.643   4.832  0.00  0.00     0.029 H 
ATOM     38  H15 IZA d   1       6.019  17.121   6.460  0.00  0.00     0.029 H 
ATOM     39  H16 IZA d   1       4.547  17.893   5.777  0.00  0.00     0.029 H 
ENDBRANCH  27  36
ENDBRANCH  18  27
TORSDOF 4
