REMARK  6 active torsions:
REMARK  status: ('A' for Active; 'I' for Inactive)
REMARK    1  A    between atoms: O3'_10  and  P_1 
REMARK    2  A    between atoms: C5'_6  and  O5'_5 
REMARK    3  A    between atoms: C4'_7  and  C5'_6 
REMARK    4  A    between atoms: C3'_9  and  O3'_10 
REMARK    5  A    between atoms: C1'_12  and  N1_13 
REMARK    6  A    between atoms: C5_19  and  C5M_20 
ROOT
ATOM      1  C4' T3P d   1      -5.677 -19.022   5.060  0.00  0.00     0.087 C 
ATOM      2  O4' T3P d   1      -6.952 -19.676   5.351  0.00  0.00    -0.356 OA
ATOM      3  C3' T3P d   1      -4.689 -20.124   4.711  0.00  0.00     0.082 C 
ATOM      4  C2' T3P d   1      -5.559 -21.066   3.954  0.00  0.00     0.003 C 
ATOM      5  C1' T3P d   1      -6.823 -21.025   4.797  0.00  0.00     0.116 C 
ATOM      6  H4  T3P d   1      -5.365 -18.908   6.109  0.00  0.00     0.090 H 
ATOM      7  H5  T3P d   1      -4.158 -19.637   3.880  0.00  0.00     0.088 H 
ATOM      8  H6  T3P d   1      -5.128 -22.077   3.920  0.00  0.00     0.043 H 
ATOM      9  H7  T3P d   1      -5.744 -20.712   2.929  0.00  0.00     0.043 H 
ATOM     10  H8  T3P d   1      -6.505 -21.611   5.672  0.00  0.00     0.118 H 
ENDROOT
BRANCH   5  11
ATOM     11  N1  T3P d   1      -8.035 -21.710   4.495  0.00  0.00    -0.282 N 
ATOM     12  C2  T3P d   1      -8.198 -23.012   5.002  0.00  0.00     0.330 A 
ATOM     13  O2  T3P d   1      -7.305 -23.513   5.702  0.00  0.00    -0.246 OA
ATOM     14  N3  T3P d   1      -9.351 -23.704   4.632  0.00  0.00    -0.286 N 
ATOM     15  C4  T3P d   1     -10.242 -23.142   3.824  0.00  0.00     0.190 A 
ATOM     16  H9  T3P d   1      -9.508 -24.629   4.978  0.00  0.00     0.172 HD
ATOM     17  O4  T3P d   1     -11.385 -23.803   3.443  0.00  0.00    -0.171 OA
ATOM     18  C5  T3P d   1     -10.052 -21.793   3.307  0.00  0.00     0.008 A 
ATOM     19  C6  T3P d   1      -8.935 -21.124   3.659  0.00  0.00    -0.003 A 
ATOM     20  H13 T3P d   1      -8.754 -20.121   3.276  0.00  0.00     0.113 H 
BRANCH  18  21
ATOM     21  C5M T3P d   1     -11.090 -21.181   2.405  0.00  0.00    -0.046 C 
ATOM     22  H10 T3P d   1     -10.775 -20.167   2.119  0.00  0.00     0.033 H 
ATOM     23  H11 T3P d   1     -12.052 -21.130   2.935  0.00  0.00     0.033 H 
ATOM     24  H12 T3P d   1     -11.201 -21.799   1.502  0.00  0.00     0.033 H 
ENDBRANCH  18  21
ENDBRANCH   5  11
BRANCH   1  25
ATOM     25  C5' T3P d   1      -5.474 -17.575   4.772  0.00  0.00     0.043 C 
ATOM     26  H2  T3P d   1      -5.685 -17.413   3.705  0.00  0.00     0.078 H 
ATOM     27  H3  T3P d   1      -6.196 -17.008   5.378  0.00  0.00     0.078 H 
BRANCH  25  28
ATOM     28  O5' T3P d   1      -4.215 -17.068   5.034  0.00  0.00    -0.398 OA
ATOM     29  H1  T3P d   1      -4.196 -16.143   4.816  0.00  0.00     0.209 HD
ENDBRANCH  25  28
ENDBRANCH   1  25
BRANCH   3  30
ATOM     30  O3' T3P d   1      -3.560 -20.483   5.390  0.00  0.00    -0.275 OA
BRANCH  30  31
ATOM     31  P   T3P d   1      -2.291 -20.977   4.644  0.00  0.00     0.422 P 
ATOM     32  OP1 T3P d   1      -1.968 -20.120   3.458  0.00  0.00    -0.617 OA
ATOM     33  OP2 T3P d   1      -2.411 -22.407   4.193  0.00  0.00    -0.617 OA
ATOM     34  OP3 T3P d   1      -1.109 -20.812   5.630  0.00  0.00    -0.617 OA
ENDBRANCH  30  31
ENDBRANCH   3  30
TORSDOF 6
