REMARK  6 active torsions:
REMARK  status: ('A' for Active; 'I' for Inactive)
REMARK    1  A    between atoms: C2_2  and  O3_3 
REMARK    2  A    between atoms: O3_3  and  C4_4 
REMARK    3  A    between atoms: C9_9  and  O10_13 
REMARK    4  A    between atoms: O10_13  and  C11_14 
REMARK    5  A    between atoms: C15_18  and  N16_19 
REMARK    6  A    between atoms: N16_19  and  C18_21 
ROOT
ATOM      1  C1  Z72 d   1     -12.894  42.009  41.578  0.00  0.00     0.128 A 
ATOM      2  C2  Z72 d   1     -12.493  42.018  42.938  0.00  0.00     0.137 A 
ATOM      3  C9  Z72 d   1     -13.459  42.221  43.948  0.00  0.00     0.104 A 
ATOM      4  CA  Z72 d   1     -12.248  41.951  39.205  0.00  0.00     0.290 A 
ATOM      5  OA  Z72 d   1     -11.890  41.868  40.565  0.00  0.00    -0.272 OA
ATOM      6  OB  Z72 d   1     -11.301  41.855  38.387  0.00  0.00    -0.260 OA
ATOM      7  C12 Z72 d   1     -14.841  42.419  43.617  0.00  0.00    -0.047 A 
ATOM      8  C13 Z72 d   1     -15.233  42.402  42.243  0.00  0.00    -0.065 A 
ATOM      9  C14 Z72 d   1     -14.240  42.199  41.207  0.00  0.00     0.028 A 
ATOM     10  C15 Z72 d   1     -14.574  42.186  39.856  0.00  0.00     0.051 A 
ATOM     11  C17 Z72 d   1     -13.634  42.128  38.884  0.00  0.00     0.017 A 
ATOM     12  H   Z72 d   1     -15.580  42.580  44.401  0.00  0.00     0.087 H 
ATOM     13  H   Z72 d   1     -16.280  42.542  41.974  0.00  0.00     0.085 H 
ATOM     14  H   Z72 d   1     -13.936  42.217  37.840  0.00  0.00     0.096 H 
ENDROOT
BRANCH   2  15
ATOM     15  O3  Z72 d   1     -11.154  41.748  43.286  0.00  0.00    -0.340 OA
BRANCH  15  16
ATOM     16  C4  Z72 d   1     -10.567  40.682  42.516  0.00  0.00     0.045 C 
ATOM     17  C5  Z72 d   1     -10.142  39.523  43.428  0.00  0.00    -0.040 C 
ATOM     18  C6  Z72 d   1      -8.610  39.534  43.499  0.00  0.00    -0.063 C 
ATOM     19  H   Z72 d   1     -10.499  38.573  43.031  0.00  0.00     0.036 H 
ATOM     20  H   Z72 d   1     -10.572  39.642  44.423  0.00  0.00     0.036 H 
ATOM     21  C7  Z72 d   1      -8.119  40.679  42.600  0.00  0.00    -0.063 C 
ATOM     22  H   Z72 d   1      -8.204  38.581  43.161  0.00  0.00     0.033 H 
ATOM     23  H   Z72 d   1      -8.275  39.683  44.526  0.00  0.00     0.033 H 
ATOM     24  C8  Z72 d   1      -9.314  41.163  41.790  0.00  0.00    -0.040 C 
ATOM     25  H   Z72 d   1      -7.324  40.333  41.940  0.00  0.00     0.033 H 
ATOM     26  H   Z72 d   1      -7.711  41.490  43.202  0.00  0.00     0.033 H 
ATOM     27  H   Z72 d   1      -9.309  42.250  41.706  0.00  0.00     0.036 H 
ATOM     28  H   Z72 d   1      -9.279  40.766  40.775  0.00  0.00     0.036 H 
ATOM     29  H   Z72 d   1     -11.322  40.354  41.802  0.00  0.00     0.084 H 
ENDBRANCH  15  16
ENDBRANCH   2  15
BRANCH   3  30
ATOM     30  O10 Z72 d   1     -13.050  42.261  45.302  0.00  0.00    -0.353 OA
BRANCH  30  31
ATOM     31  C11 Z72 d   1     -14.029  42.815  46.193  0.00  0.00     0.010 C 
ATOM     32  H   Z72 d   1     -14.252  43.839  45.894  0.00  0.00     0.066 H 
ATOM     33  H   Z72 d   1     -14.938  42.216  46.149  0.00  0.00     0.066 H 
ATOM     34  H   Z72 d   1     -13.637  42.809  47.210  0.00  0.00     0.066 H 
ENDBRANCH  30  31
ENDBRANCH   3  30
BRANCH  10  35
ATOM     35  N16 Z72 d   1     -15.966  42.205  39.504  0.00  0.00    -0.352 N 
ATOM     36  H   Z72 d   1     -16.659  42.395  40.228  0.00  0.00     0.166 HD
BRANCH  35  37
ATOM     37  C18 Z72 d   1     -16.412  41.960  38.142  0.00  0.00     0.079 A 
ATOM     38  C19 Z72 d   1     -16.986  42.960  37.438  0.00  0.00     0.080 A 
ATOM     39 CL20 Z72 d   1     -17.257  44.473  38.185  0.00  0.00    -0.080 Cl
ATOM     40  C21 Z72 d   1     -17.339  42.765  36.081  0.00  0.00     0.025 A 
ATOM     41  N22 Z72 d   1     -17.110  41.542  35.449  0.00  0.00    -0.270 NA
ATOM     42  H   Z72 d   1     -17.796  43.581  35.522  0.00  0.00     0.117 H 
ATOM     43  C23 Z72 d   1     -16.525  40.536  36.201  0.00  0.00     0.025 A 
ATOM     44  C24 Z72 d   1     -16.181  40.752  37.561  0.00  0.00     0.080 A 
ATOM     45  H   Z72 d   1     -16.327  39.567  35.743  0.00  0.00     0.117 H 
ATOM     46 CL25 Z72 d   1     -15.527  39.477  38.485  0.00  0.00    -0.080 Cl
ENDBRANCH  35  37
ENDBRANCH  10  35
TORSDOF 6
