REMARK  7 active torsions:
REMARK  status: ('A' for Active; 'I' for Inactive)
REMARK    1  A    between atoms: C33_33  and  C17_9 
REMARK    2  A    between atoms: C20_10  and  N40_40 
REMARK    3  A    between atoms: C22_12  and  C16_23 
REMARK    4  A    between atoms: N39_39  and  C24_13 
REMARK    5  A    between atoms: C28_15  and  C33_33 
REMARK       I    between atoms: N40_40  and  C28_15 
REMARK    6  A    between atoms: N38_38  and  C18_24 
REMARK    7  A    between atoms: C19_25  and  N39_39 
ROOT
ATOM      1  C13 ITI d   1      13.850   7.161  -1.478  0.00  0.00    -0.035 A 
ATOM      2  C15 ITI d   1      12.496   7.105  -1.600  0.00  0.00     0.023 A 
ATOM      3  C21 ITI d   1      14.328   8.038  -0.541  0.00  0.00     0.107 A 
ATOM      4  C22 ITI d   1      16.825   7.829  -1.130  0.00  0.00     0.099 A 
ATOM      5  C24 ITI d   1      12.262   8.674   0.057  0.00  0.00     0.727 A 
ATOM      6  C26 ITI d   1      15.807   9.268   1.942  0.00  0.00    -0.006 A 
ATOM      7  C23 ITI d   1      15.747   8.183  -0.340  0.00  0.00     0.100 A 
ATOM      8  C25 ITI d   1      17.624   8.657   0.626  0.00  0.00     0.178 A 
ATOM      9  C27 ITI d   1      16.838   9.633   2.715  0.00  0.00    -0.026 A 
ATOM     10  N34 ITI d   1      11.709   7.866  -0.848  0.00  0.00    -0.075 NA
ATOM     11  N35 ITI d   1      13.571   8.782   0.252  0.00  0.00    -0.060 NA
ATOM     12  N36 ITI d   1      18.014   8.121  -0.513  0.00  0.00    -0.221 NA
ATOM     13  N37 ITI d   1      16.285   8.711   0.786  0.00  0.00    -0.296 N 
ATOM     14  S43 ITI d   1      18.413   9.293   2.041  0.00  0.00    -0.062 SA
ATOM     15  H   ITI d   1      14.512   6.547  -2.088  0.00  0.00     0.089 H 
ATOM     16  H   ITI d   1      12.050   6.425  -2.326  0.00  0.00     0.115 H 
ATOM     17  H   ITI d   1      14.754   9.394   2.193  0.00  0.00     0.113 H 
ATOM     18  H   ITI d   1      16.705  10.105   3.688  0.00  0.00     0.097 H 
ENDROOT
BRANCH   4  19
ATOM     19  C16 ITI d   1      16.677   7.213  -2.426  0.00  0.00    -0.003 A 
ATOM     20  C5  ITI d   1      15.996   7.855  -3.434  0.00  0.00    -0.071 A 
ATOM     21  C4  ITI d   1      15.731   7.215  -4.619  0.00  0.00    -0.080 A 
ATOM     22  H   ITI d   1      15.663   8.883  -3.290  0.00  0.00     0.084 H 
ATOM     23  C10 ITI d   1      16.182   5.937  -4.807  0.00  0.00    -0.057 A 
ATOM     24  H   ITI d   1      15.167   7.720  -5.403  0.00  0.00     0.083 H 
ATOM     25  C20 ITI d   1      16.863   5.293  -3.804  0.00  0.00     0.035 A 
ATOM     26  H   ITI d   1      16.000   5.430  -5.754  0.00  0.00     0.086 H 
ATOM     27  C14 ITI d   1      17.081   5.920  -2.607  0.00  0.00    -0.045 A 
ATOM     28  H   ITI d   1      17.578   5.387  -1.796  0.00  0.00     0.088 H 
BRANCH  25  29
ATOM     29  N40 ITI d   1      17.305   3.963  -3.934  0.00  0.00    -0.327 N 
ATOM     30  C28 ITI d   1      17.285   3.267  -5.125  0.00  0.00     0.226 C 
ATOM     31  O41 ITI d   1      16.905   3.646  -6.230  0.00  0.00    -0.273 OA
ATOM     32  H   ITI d   1      17.659   3.489  -3.103  0.00  0.00     0.169 HD
BRANCH  30  33
ATOM     33  C33 ITI d   1      17.820   1.896  -4.884  0.00  0.00     0.033 C 
ATOM     34  H   ITI d   1      17.709   1.687  -3.820  0.00  0.00     0.054 H 
ATOM     35  H   ITI d   1      17.266   1.214  -5.529  0.00  0.00     0.054 H 
BRANCH  33  36
ATOM     36  C17 ITI d   1      19.259   1.744  -5.215  0.00  0.00    -0.050 A 
ATOM     37  C6  ITI d   1      19.978   2.735  -5.849  0.00  0.00    -0.076 A 
ATOM     38  C2  ITI d   1      21.310   2.514  -6.133  0.00  0.00    -0.082 A 
ATOM     39  H   ITI d   1      19.502   3.677  -6.121  0.00  0.00     0.084 H 
ATOM     40  C1  ITI d   1      21.926   1.323  -5.805  0.00  0.00    -0.083 A 
ATOM     41  H   ITI d   1      21.888   3.296  -6.626  0.00  0.00     0.083 H 
ATOM     42  C3  ITI d   1      21.196   0.343  -5.170  0.00  0.00    -0.082 A 
ATOM     43  H   ITI d   1      22.977   1.160  -6.045  0.00  0.00     0.083 H 
ATOM     44  C7  ITI d   1      19.865   0.556  -4.872  0.00  0.00    -0.076 A 
ATOM     45  H   ITI d   1      21.669  -0.602  -4.902  0.00  0.00     0.083 H 
ATOM     46  H   ITI d   1      19.292  -0.219  -4.363  0.00  0.00     0.084 H 
ENDBRANCH  33  36
ENDBRANCH  30  33
ENDBRANCH  25  29
ENDBRANCH   4  19
BRANCH   5  47
ATOM     47  N39 ITI d   1      11.380   9.457   0.813  0.00  0.00    -0.188 N 
ATOM     48  H   ITI d   1      10.380   9.313   0.673  0.00  0.00     0.184 HD
BRANCH  47  49
ATOM     49  C19 ITI d   1      11.772  10.421   1.744  0.00  0.00     0.049 A 
ATOM     50  C11 ITI d   1      12.979  11.074   1.620  0.00  0.00    -0.054 A 
ATOM     51  C8  ITI d   1      13.333  12.043   2.522  0.00  0.00    -0.055 A 
ATOM     52  H   ITI d   1      13.654  10.819   0.803  0.00  0.00     0.087 H 
ATOM     53  C18 ITI d   1      12.470  12.322   3.564  0.00  0.00     0.030 A 
ATOM     54  H   ITI d   1      14.275  12.582   2.420  0.00  0.00     0.087 H 
ATOM     55  C9  ITI d   1      11.239  11.727   3.683  0.00  0.00    -0.055 A 
ATOM     56  C12 ITI d   1      10.901  10.775   2.750  0.00  0.00    -0.054 A 
ATOM     57  H   ITI d   1      10.555  11.999   4.487  0.00  0.00     0.087 H 
ATOM     58  H   ITI d   1       9.926  10.292   2.808  0.00  0.00     0.087 H 
BRANCH  53  59
ATOM     59  N38 ITI d   1      12.775  13.252   4.527  0.00  0.00    -0.377 N 
ATOM     60  C29 ITI d   1      14.077  13.876   4.570  0.00  0.00     0.015 C 
ATOM     61  C31 ITI d   1      13.981  14.986   5.598  0.00  0.00     0.034 C 
ATOM     62  H   ITI d   1      14.849  13.156   4.841  0.00  0.00     0.067 H 
ATOM     63  H   ITI d   1      14.357  14.269   3.592  0.00  0.00     0.067 H 
ATOM     64  O42 ITI d   1      13.580  14.485   6.890  0.00  0.00    -0.388 OA
ATOM     65  H   ITI d   1      13.232  15.702   5.260  0.00  0.00     0.076 H 
ATOM     66  H   ITI d   1      14.964  15.446   5.699  0.00  0.00     0.076 H 
ATOM     67  C32 ITI d   1      12.801  13.289   6.809  0.00  0.00     0.034 C 
ATOM     68  C30 ITI d   1      11.866  13.366   5.618  0.00  0.00     0.015 C 
ATOM     69  H   ITI d   1      13.465  12.433   6.691  0.00  0.00     0.076 H 
ATOM     70  H   ITI d   1      12.215  13.178   7.721  0.00  0.00     0.076 H 
ATOM     71  H   ITI d   1      11.270  14.278   5.593  0.00  0.00     0.067 H 
ATOM     72  H   ITI d   1      11.094  12.596   5.622  0.00  0.00     0.067 H 
ENDBRANCH  53  59
ENDBRANCH  47  49
ENDBRANCH   5  47
TORSDOF 7
