REMARK  16 active torsions:
REMARK  status: ('A' for Active; 'I' for Inactive)
REMARK    1  A    between atoms: C2_2  and  N1_1 
REMARK    2  A    between atoms: S8_8  and  C5_5 
REMARK    3  A    between atoms: N11_11  and  S8_8 
REMARK    4  A    between atoms: N11_11  and  C12_12 
REMARK    5  A    between atoms: C16_16  and  N11_11 
REMARK    6  A    between atoms: C12_12  and  C13_13 
REMARK    7  A    between atoms: C13_13  and  C14_14 
REMARK    8  A    between atoms: C13_13  and  C15_15 
REMARK    9  A    between atoms: C17_17  and  C16_16 
REMARK   10  A    between atoms: C17_17  and  O18_18 
REMARK   11  A    between atoms: C19_19  and  C17_17 
REMARK   12  A    between atoms: C19_19  and  N20_20 
REMARK   13  A    between atoms: C32_32  and  C19_19 
REMARK       I    between atoms: N20_20  and  C21_21 
REMARK   14  A    between atoms: C21_21  and  O23_23 
REMARK   15  A    between atoms: O23_23  and  C24_24 
REMARK   16  A    between atoms: C38_38  and  C32_32 
ROOT
ATOM      1  C19 017 d   1      19.623  -0.051  16.747  0.00  0.00     0.044 C 
ATOM      2  H20 017 d   1      19.568  -0.955  17.372  0.00  0.00     0.077 H 
ENDROOT
BRANCH   1   3
ATOM      3  C17 017 d   1      19.962  -0.453  15.312  0.00  0.00     0.067 C 
ATOM      4  H18 017 d   1      20.997  -0.824  15.327  0.00  0.00     0.088 H 
BRANCH   3   5
ATOM      5  C16 017 d   1      19.112  -1.563  14.686  0.00  0.00     0.019 C 
ATOM      6  H16 017 d   1      18.042  -1.341  14.810  0.00  0.00     0.061 H 
ATOM      7  H17 017 d   1      19.344  -1.664  13.616  0.00  0.00     0.061 H 
BRANCH   5   8
ATOM      8  N11 017 d   1      19.467  -2.805  15.409  0.00  0.00    -0.204 NA
BRANCH   8   9
ATOM      9  S8  017 d   1      18.263  -3.438  16.312  0.00  0.00     0.243 S 
ATOM     10  O9  017 d   1      18.837  -4.412  17.217  0.00  0.00    -0.206 OA
ATOM     11  O10 017 d   1      17.667  -2.319  17.010  0.00  0.00    -0.206 OA
BRANCH   9  12
ATOM     12  C5  017 d   1      17.163  -4.150  15.364  0.00  0.00     0.074 A 
ATOM     13  C4  017 d   1      17.290  -5.476  14.938  0.00  0.00    -0.059 A 
ATOM     14  C3  017 d   1      16.375  -6.069  14.071  0.00  0.00    -0.056 A 
ATOM     15  H4  017 d   1      18.129  -6.062  15.295  0.00  0.00     0.086 H 
ATOM     16  C2  017 d   1      15.288  -5.303  13.625  0.00  0.00     0.025 A 
ATOM     17  H3  017 d   1      16.500  -7.097  13.749  0.00  0.00     0.086 H 
ATOM     18  C7  017 d   1      15.142  -3.978  14.030  0.00  0.00    -0.056 A 
ATOM     19  C6  017 d   1      16.088  -3.405  14.870  0.00  0.00    -0.059 A 
ATOM     20  H6  017 d   1      14.293  -3.396  13.691  0.00  0.00     0.086 H 
ATOM     21  H5  017 d   1      15.991  -2.362  15.148  0.00  0.00     0.086 H 
BRANCH  16  22
ATOM     22  N1  017 d   1      14.356  -5.821  12.796  0.00  0.00    -0.399 N 
ATOM     23  H1  017 d   1      14.435  -6.798  12.478  0.00  0.00     0.156 HD
ATOM     24  H2  017 d   1      13.566  -5.239  12.482  0.00  0.00     0.156 HD
ENDBRANCH  16  22
ENDBRANCH   9  12
ENDBRANCH   8   9
BRANCH   8  25
ATOM     25  C12 017 d   1      20.212  -3.777  14.568  0.00  0.00    -0.004 C 
ATOM     26  H7  017 d   1      19.806  -3.748  13.546  0.00  0.00     0.058 H 
ATOM     27  H8  017 d   1      20.080  -4.785  14.987  0.00  0.00     0.058 H 
BRANCH  25  28
ATOM     28  C13 017 d   1      21.710  -3.453  14.517  0.00  0.00    -0.049 C 
ATOM     29  H9  017 d   1      21.786  -2.439  14.098  0.00  0.00     0.040 H 
BRANCH  28  30
ATOM     30  C14 017 d   1      22.387  -3.412  15.884  0.00  0.00    -0.072 C 
ATOM     31  H10 017 d   1      23.454  -3.175  15.758  0.00  0.00     0.028 H 
ATOM     32  H11 017 d   1      22.285  -4.392  16.373  0.00  0.00     0.028 H 
ATOM     33  H12 017 d   1      21.911  -2.640  16.506  0.00  0.00     0.028 H 
ENDBRANCH  28  30
BRANCH  28  34
ATOM     34  C15 017 d   1      22.489  -4.375  13.584  0.00  0.00    -0.072 C 
ATOM     35  H13 017 d   1      21.997  -4.401  12.600  0.00  0.00     0.028 H 
ATOM     36  H14 017 d   1      22.515  -5.389  14.008  0.00  0.00     0.028 H 
ATOM     37  H15 017 d   1      23.516  -3.999  13.470  0.00  0.00     0.028 H 
ENDBRANCH  28  34
ENDBRANCH  25  28
ENDBRANCH   8  25
ENDBRANCH   5   8
ENDBRANCH   3   5
BRANCH   3  38
ATOM     38  O18 017 d   1      19.920   0.710  14.478  0.00  0.00    -0.392 OA
ATOM     39  H19 017 d   1      19.021   1.007  14.396  0.00  0.00     0.210 HD
ENDBRANCH   3  38
ENDBRANCH   1   3
BRANCH   1  40
ATOM     40  N20 017 d   1      20.764   0.746  17.142  0.00  0.00    -0.329 N 
ATOM     41  C21 017 d   1      21.615   0.505  18.128  0.00  0.00     0.361 C 
ATOM     42  O22 017 d   1      21.609  -0.481  18.831  0.00  0.00    -0.238 OA
ATOM     43  H21 017 d   1      20.930   1.575  16.608  0.00  0.00     0.165 HD
BRANCH  41  44
ATOM     44  O23 017 d   1      22.618   1.536  18.343  0.00  0.00    -0.296 OA
BRANCH  44  45
ATOM     45  C24 017 d   1      23.336   1.499  19.577  0.00  0.00     0.078 C 
ATOM     46  C25 017 d   1      24.705   2.070  19.264  0.00  0.00     0.048 C 
ATOM     47  O26 017 d   1      24.540   3.485  19.323  0.00  0.00    -0.358 OA
ATOM     48  H23 017 d   1      25.032   1.761  18.260  0.00  0.00     0.078 H 
ATOM     49  H24 017 d   1      25.442   1.736  20.009  0.00  0.00     0.078 H 
ATOM     50  C27 017 d   1      23.601   3.752  20.358  0.00  0.00     0.137 C 
ATOM     51  O28 017 d   1      22.669   4.742  19.946  0.00  0.00    -0.361 OA
ATOM     52  C31 017 d   1      22.836   2.469  20.627  0.00  0.00     0.023 C 
ATOM     53  H25 017 d   1      24.126   4.086  21.265  0.00  0.00     0.129 H 
ATOM     54  C29 017 d   1      21.392   4.134  19.729  0.00  0.00     0.023 C 
ATOM     55  C30 017 d   1      21.363   2.882  20.579  0.00  0.00    -0.035 C 
ATOM     56  H26 017 d   1      21.270   3.875  18.667  0.00  0.00     0.074 H 
ATOM     57  H27 017 d   1      20.588   4.819  20.034  0.00  0.00     0.074 H 
ATOM     58  H28 017 d   1      20.747   2.100  20.111  0.00  0.00     0.037 H 
ATOM     59  H29 017 d   1      20.979   3.097  21.587  0.00  0.00     0.037 H 
ATOM     60  H30 017 d   1      23.061   2.063  21.624  0.00  0.00     0.051 H 
ATOM     61  H22 017 d   1      23.374   0.472  19.970  0.00  0.00     0.088 H 
ENDBRANCH  44  45
ENDBRANCH  41  44
ENDBRANCH   1  40
BRANCH   1  62
ATOM     62  C32 017 d   1      18.285   0.707  16.913  0.00  0.00    -0.020 C 
ATOM     63  H31 017 d   1      17.463   0.041  16.612  0.00  0.00     0.043 H 
ATOM     64  H32 017 d   1      18.298   1.592  16.260  0.00  0.00     0.043 H 
BRANCH  62  65
ATOM     65  C38 017 d   1      18.047   1.159  18.341  0.00  0.00    -0.056 A 
ATOM     66  C33 017 d   1      18.170   2.502  18.680  0.00  0.00    -0.077 A 
ATOM     67  C34 017 d   1      18.012   2.960  19.985  0.00  0.00    -0.082 A 
ATOM     68  H33 017 d   1      18.397   3.219  17.899  0.00  0.00     0.084 H 
ATOM     69  C35 017 d   1      17.716   2.055  20.990  0.00  0.00    -0.083 A 
ATOM     70  H34 017 d   1      18.120   4.014  20.212  0.00  0.00     0.083 H 
ATOM     71  C36 017 d   1      17.582   0.704  20.661  0.00  0.00    -0.082 A 
ATOM     72  H35 017 d   1      17.590   2.389  22.014  0.00  0.00     0.083 H 
ATOM     73  C37 017 d   1      17.732   0.255  19.349  0.00  0.00    -0.077 A 
ATOM     74  H36 017 d   1      17.356  -0.012  21.443  0.00  0.00     0.083 H 
ATOM     75  H37 017 d   1      17.603  -0.796  19.116  0.00  0.00     0.084 H 
ENDBRANCH  62  65
ENDBRANCH   1  62
TORSDOF 16
