REMARK  8 active torsions:
REMARK  status: ('A' for Active; 'I' for Inactive)
REMARK    1  A    between atoms: NBN_40  and  C4_4 
REMARK    2  A    between atoms: CAG_13  and  CAC_9 
REMARK    3  A    between atoms: CAH_14  and  CAL_16 
REMARK    4  A    between atoms: CAV_22  and  CAW_23 
REMARK    5  A    between atoms: CAV_22  and  NBN_40 
REMARK    6  A    between atoms: CAW_23  and  CAX_24 
REMARK    7  A    between atoms: CBA_27  and  NBD_30 
REMARK       I    between atoms: NBD_30  and  CBE_31 
REMARK       I    between atoms: CBE_31  and  NBF_32 
REMARK    8  A    between atoms: NBF_32  and  CBG_33 
ROOT
ATOM      1  NBN AKI d   1       6.045  28.857   6.725  0.00  0.00    -0.374 N 
ATOM      2  H   AKI d   1       6.024  28.938   5.708  0.00  0.00     0.161 HD
ENDROOT
BRANCH   1   3
ATOM      3  C4  AKI d   1       5.322  29.685   7.473  0.00  0.00     0.140 A 
ATOM      4  N3  AKI d   1       5.355  29.601   8.810  0.00  0.00    -0.224 NA
ATOM      5  C2  AKI d   1       4.636  30.424   9.557  0.00  0.00     0.091 A 
ATOM      6  N1  AKI d   1       3.861  31.356   9.025  0.00  0.00    -0.217 NA
ATOM      7  H   AKI d   1       4.684  30.331  10.642  0.00  0.00     0.146 H 
ATOM      8  C6  AKI d   1       3.778  31.499   7.695  0.00  0.00     0.186 A 
ATOM      9  C5  AKI d   1       4.520  30.650   6.883  0.00  0.00     0.077 A 
ATOM     10  OAI AKI d   1       3.066  32.365   6.897  0.00  0.00    -0.289 OA
ATOM     11  CAG AKI d   1       4.253  31.009   5.572  0.00  0.00     0.027 A 
ATOM     12  CAH AKI d   1       3.358  32.064   5.596  0.00  0.00     0.100 A 
BRANCH  11  13
ATOM     13  CAC AKI d   1       4.788  30.416   4.435  0.00  0.00    -0.022 A 
ATOM     14  CAB AKI d   1       5.479  31.188   3.508  0.00  0.00    -0.072 A 
ATOM     15  CAA AKI d   1       6.014  30.594   2.370  0.00  0.00    -0.082 A 
ATOM     16  H   AKI d   1       5.601  32.258   3.673  0.00  0.00     0.084 H 
ATOM     17  CAF AKI d   1       5.859  29.229   2.160  0.00  0.00    -0.083 A 
ATOM     18  H   AKI d   1       6.555  31.199   1.643  0.00  0.00     0.083 H 
ATOM     19  CAE AKI d   1       5.168  28.457   3.087  0.00  0.00    -0.082 A 
ATOM     20  H   AKI d   1       6.279  28.764   1.268  0.00  0.00     0.083 H 
ATOM     21  CAD AKI d   1       4.633  29.051   4.225  0.00  0.00    -0.072 A 
ATOM     22  H   AKI d   1       5.046  27.387   2.922  0.00  0.00     0.083 H 
ATOM     23  H   AKI d   1       4.092  28.446   4.952  0.00  0.00     0.084 H 
ENDBRANCH  11  13
BRANCH  12  24
ATOM     24  CAL AKI d   1       2.841  32.711   4.480  0.00  0.00    -0.001 A 
ATOM     25  CAM AKI d   1       3.030  32.171   3.214  0.00  0.00    -0.070 A 
ATOM     26  CAN AKI d   1       2.513  32.819   2.098  0.00  0.00    -0.082 A 
ATOM     27  H   AKI d   1       3.583  31.239   3.096  0.00  0.00     0.084 H 
ATOM     28  CAO AKI d   1       1.807  34.006   2.249  0.00  0.00    -0.083 A 
ATOM     29  H   AKI d   1       2.662  32.396   1.105  0.00  0.00     0.083 H 
ATOM     30  CAP AKI d   1       1.617  34.546   3.515  0.00  0.00    -0.082 A 
ATOM     31  H   AKI d   1       1.402  34.514   1.374  0.00  0.00     0.083 H 
ATOM     32  CAQ AKI d   1       2.134  33.899   4.631  0.00  0.00    -0.070 A 
ATOM     33  H   AKI d   1       1.062  35.477   3.633  0.00  0.00     0.083 H 
ATOM     34  H   AKI d   1       1.985  34.322   5.624  0.00  0.00     0.084 H 
ENDBRANCH  12  24
ENDBRANCH   1   3
BRANCH   1  35
ATOM     35  CAV AKI d   1       6.875  27.825   7.363  0.00  0.00    -0.002 C 
ATOM     36  H   AKI d   1       6.404  27.503   8.292  0.00  0.00     0.064 H 
ATOM     37  H   AKI d   1       6.975  26.973   6.691  0.00  0.00     0.064 H 
BRANCH  35  38
ATOM     38  CAW AKI d   1       8.260  28.399   7.667  0.00  0.00    -0.026 C 
ATOM     39  H   AKI d   1       8.152  29.211   8.386  0.00  0.00     0.042 H 
ATOM     40  H   AKI d   1       8.702  28.756   6.737  0.00  0.00     0.042 H 
BRANCH  38  41
ATOM     41  CAX AKI d   1       9.177  27.331   8.268  0.00  0.00    -0.057 A 
ATOM     42  CAY AKI d   1       8.895  26.797   9.520  0.00  0.00    -0.075 A 
ATOM     43  CAZ AKI d   1       9.728  25.827  10.065  0.00  0.00    -0.057 A 
ATOM     44  H   AKI d   1       8.021  27.139  10.074  0.00  0.00     0.084 H 
ATOM     45  CBA AKI d   1      10.842  25.391   9.359  0.00  0.00     0.036 A 
ATOM     46  H   AKI d   1       9.507  25.408  11.047  0.00  0.00     0.086 H 
ATOM     47  CBB AKI d   1      11.124  25.924   8.107  0.00  0.00    -0.057 A 
ATOM     48  CBC AKI d   1      10.292  26.894   7.561  0.00  0.00    -0.075 A 
ATOM     49  H   AKI d   1      11.998  25.581   7.553  0.00  0.00     0.086 H 
ATOM     50  H   AKI d   1      10.513  27.312   6.579  0.00  0.00     0.084 H 
BRANCH  45  51
ATOM     51  NBD AKI d   1      11.639  24.462   9.881  0.00  0.00    -0.309 N 
ATOM     52  CBE AKI d   1      11.755  23.276   9.291  0.00  0.00     0.325 C 
ATOM     53  NBF AKI d   1      12.570  22.399   9.870  0.00  0.00    -0.309 N 
ATOM     54  OBM AKI d   1      11.140  23.004   8.261  0.00  0.00    -0.247 OA
ATOM     55  H   AKI d   1      13.069  22.652  10.723  0.00  0.00     0.170 HD
ATOM     56  H   AKI d   1      12.161  24.660  10.734  0.00  0.00     0.170 HD
BRANCH  53  57
ATOM     57  CBG AKI d   1      12.735  21.192   9.337  0.00  0.00     0.036 A 
ATOM     58  CBH AKI d   1      13.948  20.528   9.484  0.00  0.00    -0.057 A 
ATOM     59  CBI AKI d   1      14.121  19.266   8.927  0.00  0.00    -0.081 A 
ATOM     60  H   AKI d   1      14.763  20.997  10.036  0.00  0.00     0.086 H 
ATOM     61  CBJ AKI d   1      13.082  18.669   8.222  0.00  0.00    -0.083 A 
ATOM     62  H   AKI d   1      15.071  18.745   9.043  0.00  0.00     0.083 H 
ATOM     63  CBK AKI d   1      11.870  19.333   8.075  0.00  0.00    -0.081 A 
ATOM     64  H   AKI d   1      13.218  17.680   7.785  0.00  0.00     0.083 H 
ATOM     65  CBL AKI d   1      11.697  20.594   8.633  0.00  0.00    -0.057 A 
ATOM     66  H   AKI d   1      11.055  18.865   7.522  0.00  0.00     0.083 H 
ATOM     67  H   AKI d   1      10.746  21.114   8.518  0.00  0.00     0.086 H 
ENDBRANCH  53  57
ENDBRANCH  45  51
ENDBRANCH  38  41
ENDBRANCH  35  38
ENDBRANCH   1  35
TORSDOF 8
