REMARK  3 active torsions:
REMARK  status: ('A' for Active; 'I' for Inactive)
REMARK    1  A    between atoms: RU_31  and  C10_2 
REMARK    2  A    between atoms: C17_7  and  C16_6 
REMARK    3  A    between atoms: C25_16  and  O15_19 
ROOT
ATOM      1  C12 DW1 d   1      45.552  82.475  30.859  0.00  0.00    -0.006 A 
ATOM      2  C13 DW1 d   1      46.024  81.443  30.016  0.00  0.00    -0.001 A 
ATOM      3  C14 DW1 d   1      46.999  80.723  30.711  0.00  0.00    -0.001 A 
ATOM      4  C16 DW1 d   1      47.140  81.319  31.973  0.00  0.00    -0.006 A 
ATOM      5  C17 DW1 d   1      46.253  82.400  32.071  0.00  0.00    -0.030 A 
ATOM      6  N20 DW1 d   1      45.450  78.591  32.509  0.00  0.00    -0.258 N 
ATOM      7  C6  DW1 d   1      46.192  77.625  31.959  0.00  0.00     0.003 A 
ATOM      8  C5  DW1 d   1      46.395  76.415  32.629  0.00  0.00    -0.065 A 
ATOM      9  C4  DW1 d   1      45.808  76.246  33.881  0.00  0.00    -0.068 A 
ATOM     10  N18 DW1 d   1      43.974  80.657  33.555  0.00  0.00    -0.245 N 
ATOM     11  C22 DW1 d   1      43.204  81.450  34.342  0.00  0.00     0.069 A 
ATOM     12  C27 DW1 d   1      42.898  80.751  35.515  0.00  0.00     0.009 A 
ATOM     13  C26 DW1 d   1      42.126  81.329  36.525  0.00  0.00    -0.038 A 
ATOM     14  C25 DW1 d   1      41.642  82.618  36.309  0.00  0.00     0.066 A 
ATOM     15  C24 DW1 d   1      41.978  83.283  35.123  0.00  0.00    -0.049 A 
ATOM     16  C23 DW1 d   1      42.761  82.715  34.117  0.00  0.00    -0.052 A 
ATOM     17  C28 DW1 d   1      43.509  79.503  35.423  0.00  0.00     0.025 A 
ATOM     18  C21 DW1 d   1      44.158  79.479  34.220  0.00  0.00     0.099 A 
ATOM     19  C7  DW1 d   1      44.897  78.432  33.726  0.00  0.00     0.097 A 
ATOM     20  C3  DW1 d   1      45.037  77.271  34.446  0.00  0.00     0.012 A 
ATOM     21  C29 DW1 d   1      43.634  78.343  36.186  0.00  0.00     0.062 A 
ATOM     22  C2  DW1 d   1      44.389  77.257  35.688  0.00  0.00     0.061 A 
ATOM     23  C30 DW1 d   1      43.142  77.946  37.443  0.00  0.00     0.260 A 
ATOM     24  O8  DW1 d   1      42.431  78.629  38.174  0.00  0.00    -0.267 OA
ATOM     25  N19 DW1 d   1      43.552  76.667  37.771  0.00  0.00    -0.289 N 
ATOM     26  C1  DW1 d   1      44.306  76.295  36.682  0.00  0.00     0.260 A 
ATOM     27  O9  DW1 d   1      44.827  75.217  36.650  0.00  0.00    -0.267 OA
ATOM     28 RU   DW1 d   1      45.065  80.550  31.732  0.00  0.00     0.000 Ru
ATOM     29  H   DW1 d   1      46.479  83.273  32.683  0.00  0.00     0.043 H 
ATOM     30  H   DW1 d   1      46.643  77.782  30.979  0.00  0.00     0.114 H 
ATOM     31  H   DW1 d   1      46.997  75.624  32.183  0.00  0.00     0.085 H 
ATOM     32  H   DW1 d   1      45.949  75.312  34.424  0.00  0.00     0.085 H 
ATOM     33  H   DW1 d   1      41.910  80.792  37.448  0.00  0.00     0.089 H 
ATOM     34  H   DW1 d   1      41.608  84.298  34.978  0.00  0.00     0.087 H 
ATOM     35  H   DW1 d   1      43.004  83.256  33.202  0.00  0.00     0.087 H 
ATOM     36  H   DW1 d   1      43.346  76.131  38.614  0.00  0.00     0.172 HD
ENDROOT
BRANCH  28  37
ATOM     37  C10 DW1 d   1      43.601  80.009  30.756  0.00  0.00     0.144 C 
ATOM     38  O11 DW1 d   1      42.672  79.684  30.173  0.00  0.00    -0.299 OA
ATOM     39  H   DW1 d   1      44.249  79.632  29.964  0.00  0.00     0.155 H 
ENDBRANCH  28  37
BRANCH  14  40
ATOM     40  O15 DW1 d   1      40.855  83.201  37.258  0.00  0.00    -0.361 OA
ATOM     41  H   DW1 d   1      40.738  82.594  37.992  0.00  0.00     0.217 HD
ENDBRANCH  14  40
TORSDOF 3
