REMARK  12 active torsions:
REMARK  status: ('A' for Active; 'I' for Inactive)
REMARK    1  A    between atoms: CA_13  and  C_1 
REMARK       I    between atoms: N_2  and  C1_5 
REMARK    2  A    between atoms: CA_13  and  N_2 
REMARK    3  A    between atoms: O4P_19  and  P_4 
REMARK    4  A    between atoms: C1_5  and  C2_7 
REMARK    5  A    between atoms: C2_7  and  C3_8 
REMARK    6  A    between atoms: C3_8  and  C4_9 
REMARK    7  A    between atoms: C4_9  and  C5_10 
REMARK    8  A    between atoms: C5_10  and  C6_11 
REMARK    9  A    between atoms: C6_11  and  S6_12 
REMARK   10  A    between atoms: CB_14  and  CA_13 
REMARK   11  A    between atoms: CB_14  and  CG_15 
REMARK   12  A    between atoms: CB_14  and  O4P_19 
ROOT
ATOM      1  N   TXZ d   1      23.566  37.640 -17.943  0.00  0.00    -0.344 N 
ATOM      2  C1  TXZ d   1      23.396  36.399 -17.447  0.00  0.00     0.218 C 
ATOM      3  O1  TXZ d   1      22.340  35.760 -17.662  0.00  0.00    -0.274 OA
ATOM      4  H1  TXZ d   1      24.403  38.133 -17.704  0.00  0.00     0.163 HD
ENDROOT
BRANCH   2   5
ATOM      5  C2  TXZ d   1      24.547  35.896 -16.570  0.00  0.00     0.009 C 
ATOM      6  H2  TXZ d   1      24.299  36.154 -15.530  0.00  0.00     0.047 H 
ATOM      7  H3  TXZ d   1      25.452  36.441 -16.877  0.00  0.00     0.047 H 
BRANCH   5   8
ATOM      8  C3  TXZ d   1      24.895  34.369 -16.598  0.00  0.00    -0.057 C 
ATOM      9  H4  TXZ d   1      25.273  34.132 -17.603  0.00  0.00     0.033 H 
ATOM     10  H5  TXZ d   1      23.965  33.812 -16.415  0.00  0.00     0.033 H 
BRANCH   8  11
ATOM     11  C4  TXZ d   1      25.933  33.883 -15.585  0.00  0.00    -0.064 C 
ATOM     12  H6  TXZ d   1      26.661  34.688 -15.406  0.00  0.00     0.033 H 
ATOM     13  H7  TXZ d   1      26.451  33.005 -15.998  0.00  0.00     0.033 H 
BRANCH  11  14
ATOM     14  C5  TXZ d   1      25.276  33.492 -14.239  0.00  0.00    -0.057 C 
ATOM     15  H8  TXZ d   1      24.315  34.015 -14.129  0.00  0.00     0.034 H 
ATOM     16  H9  TXZ d   1      25.941  33.767 -13.407  0.00  0.00     0.034 H 
BRANCH  14  17
ATOM     17  C6  TXZ d   1      25.047  31.997 -14.238  0.00  0.00    -0.026 C 
ATOM     18  H10 TXZ d   1      26.024  31.492 -14.229  0.00  0.00     0.048 H 
ATOM     19  H11 TXZ d   1      24.502  31.725 -15.154  0.00  0.00     0.048 H 
BRANCH  17  20
ATOM     20  S6  TXZ d   1      24.099  31.436 -12.819  0.00  0.00    -0.182 SA
ATOM     21  H12 TXZ d   1      23.978  30.437 -12.871  0.00  0.00     0.101 HD
ENDBRANCH  17  20
ENDBRANCH  14  17
ENDBRANCH  11  14
ENDBRANCH   8  11
ENDBRANCH   5   8
ENDBRANCH   2   5
BRANCH   1  22
ATOM     22  CA  TXZ d   1      22.572  38.325 -18.834  0.00  0.00     0.121 C 
ATOM     23  H13 TXZ d   1      21.876  37.565 -19.218  0.00  0.00     0.093 H 
BRANCH  22  24
ATOM     24  C   TXZ d   1      23.309  38.974 -20.006  0.00  0.00     0.199 C 
ATOM     25  O   TXZ d   1      24.551  39.293 -19.832  0.00  0.00    -0.646 OA
ATOM     26  OXT TXZ d   1      22.694  39.222 -21.066  0.00  0.00    -0.646 OA
ENDBRANCH  22  24
BRANCH  22  27
ATOM     27  CB  TXZ d   1      21.742  39.437 -18.117  0.00  0.00     0.077 C 
ATOM     28  H14 TXZ d   1      20.981  39.834 -18.804  0.00  0.00     0.087 H 
BRANCH  27  29
ATOM     29  CG  TXZ d   1      21.054  38.887 -16.830  0.00  0.00    -0.049 C 
ATOM     30  H15 TXZ d   1      20.479  39.692 -16.349  0.00  0.00     0.031 H 
ATOM     31  H16 TXZ d   1      21.821  38.518 -16.133  0.00  0.00     0.031 H 
ATOM     32  H17 TXZ d   1      20.377  38.063 -17.100  0.00  0.00     0.031 H 
ENDBRANCH  27  29
BRANCH  27  33
ATOM     33  O4P TXZ d   1      22.674  40.503 -17.711  0.00  0.00    -0.275 OA
BRANCH  33  34
ATOM     34  P   TXZ d   1      22.219  42.055 -17.822  0.00  0.00     0.422 P 
ATOM     35  O1P TXZ d   1      23.568  42.818 -17.617  0.00  0.00    -0.617 OA
ATOM     36  O2P TXZ d   1      21.641  42.279 -19.194  0.00  0.00    -0.617 OA
ATOM     37  O3P TXZ d   1      21.268  42.356 -16.696  0.00  0.00    -0.617 OA
ENDBRANCH  33  34
ENDBRANCH  27  33
ENDBRANCH  22  27
ENDBRANCH   1  22
TORSDOF 12
