REMARK  2 active torsions:
REMARK  status: ('A' for Active; 'I' for Inactive)
REMARK    1  A    between atoms: C3_3  and  C12_8 
REMARK    2  A    between atoms: N42_26  and  C46_28 
ROOT
ATOM      1  C12 L8I d   1      37.513   5.277  13.769  0.00  0.00     0.070 A 
ATOM      2  N13 L8I d   1      38.582   5.604  13.020  0.00  0.00    -0.259 NA
ATOM      3  C14 L8I d   1      39.667   6.175  13.552  0.00  0.00     0.014 A 
ATOM      4  C16 L8I d   1      39.714   6.453  14.918  0.00  0.00    -0.006 A 
ATOM      5  C17 L8I d   1      38.612   6.118  15.706  0.00  0.00     0.005 A 
ATOM      6  C18 L8I d   1      37.480   5.544  15.140  0.00  0.00    -0.041 A 
ATOM      7  C20 L8I d   1      38.680   6.431  17.155  0.00  0.00     0.055 A 
ATOM      8  N21 L8I d   1      37.917   6.022  18.117  0.00  0.00    -0.356 N 
ATOM      9  C23 L8I d   1      38.293   6.531  19.268  0.00  0.00     0.040 A 
ATOM     10  C24 L8I d   1      39.369   7.324  19.081  0.00  0.00     0.068 A 
ATOM     11  C25 L8I d   1      39.618   7.252  17.636  0.00  0.00     0.009 A 
ATOM     12  C26 L8I d   1      40.659   7.936  16.800  0.00  0.00    -0.069 C 
ATOM     13  C29 L8I d   1      40.967   7.094  15.533  0.00  0.00    -0.070 C 
ATOM     14  C32 L8I d   1      40.007   8.083  20.168  0.00  0.00     0.254 C 
ATOM     15  N33 L8I d   1      39.413   8.079  21.376  0.00  0.00    -0.356 N 
ATOM     16  C35 L8I d   1      38.182   7.349  21.674  0.00  0.00     0.011 C 
ATOM     17  C38 L8I d   1      37.702   6.302  20.639  0.00  0.00     0.072 C 
ATOM     18  C39 L8I d   1      37.985   4.839  21.054  0.00  0.00     0.128 C 
ATOM     19  N42 L8I d   1      36.571   4.678  21.464  0.00  0.00     0.086 N 
ATOM     20  C43 L8I d   1      36.204   5.981  20.830  0.00  0.00     0.128 C 
ATOM     21  O50 L8I d   1      41.014   8.755  19.985  0.00  0.00    -0.268 OA
ATOM     22  H   L8I d   1      40.517   6.424  12.917  0.00  0.00     0.116 H 
ATOM     23  H   L8I d   1      36.601   5.311  15.742  0.00  0.00     0.088 H 
ATOM     24  H   L8I d   1      37.127   5.388  17.997  0.00  0.00     0.166 HD
ATOM     25  H   L8I d   1      41.131   8.887  17.047  0.00  0.00     0.085 H 
ATOM     26  H   L8I d   1      41.969   6.970  15.122  0.00  0.00     0.084 H 
ATOM     27  H   L8I d   1      39.847   8.616  22.127  0.00  0.00     0.162 HD
ATOM     28  H   L8I d   1      37.396   8.103  21.714  0.00  0.00     0.066 H 
ATOM     29  H   L8I d   1      38.388   6.787  22.585  0.00  0.00     0.066 H 
ATOM     30  H   L8I d   1      38.785   4.620  21.762  0.00  0.00     0.081 H 
ATOM     31  H   L8I d   1      38.425   4.146  20.337  0.00  0.00     0.081 H 
ATOM     32  H   L8I d   1      35.526   6.003  19.977  0.00  0.00     0.081 H 
ATOM     33  H   L8I d   1      35.556   6.683  21.356  0.00  0.00     0.081 H 
ENDROOT
BRANCH   1  34
ATOM     34  C3  L8I d   1      36.370   4.690  13.054  0.00  0.00     0.031 A 
ATOM     35  C2  L8I d   1      35.468   3.825  13.674  0.00  0.00     0.129 A 
ATOM     36  F1  L8I d   1      35.606   3.456  14.952  0.00  0.00    -0.205 F 
ATOM     37  C10 L8I d   1      34.392   3.318  12.955  0.00  0.00    -0.045 A 
ATOM     38  C8  L8I d   1      34.231   3.672  11.626  0.00  0.00    -0.080 A 
ATOM     39  H   L8I d   1      33.680   2.646  13.434  0.00  0.00     0.088 H 
ATOM     40  C6  L8I d   1      35.128   4.551  11.011  0.00  0.00    -0.082 A 
ATOM     41  H   L8I d   1      33.398   3.262  11.055  0.00  0.00     0.083 H 
ATOM     42  C4  L8I d   1      36.208   5.054  11.728  0.00  0.00    -0.068 A 
ATOM     43  H   L8I d   1      34.981   4.841   9.971  0.00  0.00     0.083 H 
ATOM     44  H   L8I d   1      36.920   5.728  11.251  0.00  0.00     0.085 H 
ENDBRANCH   1  34
BRANCH  19  45
ATOM     45  C46 L8I d   1      36.346   4.523  22.932  0.00  0.00     0.095 C 
ATOM     46  H   L8I d   1      36.875   3.639  23.288  0.00  0.00     0.071 H 
ATOM     47  H   L8I d   1      36.721   5.405  23.451  0.00  0.00     0.071 H 
ATOM     48  H   L8I d   1      35.279   4.412  23.125  0.00  0.00     0.071 H 
ENDBRANCH  19  45
TORSDOF 2
