REMARK  28 active torsions:
REMARK  status: ('A' for Active; 'I' for Inactive)
REMARK    1  A    between atoms: C21_2  and  O21_3 
REMARK    2  A    between atoms: C31_4  and  O31_5 
REMARK    3  A    between atoms: C51_8  and  C61_10 
REMARK    4  A    between atoms: C61_10  and  O61_11 
REMARK    5  A    between atoms: C22_13  and  O22_14 
REMARK    6  A    between atoms: C32_15  and  O32_16 
REMARK    7  A    between atoms: C52_19  and  C62_21 
REMARK    8  A    between atoms: C62_21  and  O62_22 
REMARK    9  A    between atoms: C23_24  and  O23_25 
REMARK   10  A    between atoms: C33_26  and  O33_27 
REMARK   11  A    between atoms: C53_30  and  C63_32 
REMARK   12  A    between atoms: C63_32  and  O63_33 
REMARK   13  A    between atoms: C24_35  and  O24_36 
REMARK   14  A    between atoms: C34_37  and  O34_38 
REMARK   15  A    between atoms: C54_41  and  C64_43 
REMARK   16  A    between atoms: C64_43  and  O64_44 
REMARK   17  A    between atoms: C25_46  and  O25_47 
REMARK   18  A    between atoms: C35_48  and  O35_49 
REMARK   19  A    between atoms: C55_52  and  C65_54 
REMARK   20  A    between atoms: C65_54  and  O65_55 
REMARK   21  A    between atoms: C26_57  and  O26_58 
REMARK   22  A    between atoms: C36_59  and  O36_60 
REMARK   23  A    between atoms: C56_63  and  C66_65 
REMARK   24  A    between atoms: C66_65  and  O66_66 
REMARK   25  A    between atoms: C27_68  and  O27_69 
REMARK   26  A    between atoms: C37_70  and  O37_71 
REMARK   27  A    between atoms: C57_74  and  C67_76 
REMARK   28  A    between atoms: C67_76  and  O67_77 
ROOT
ATOM      1  C11 BCD d   1      32.787  37.662  28.492  0.00  0.00     0.159 C 
ATOM      2  C21 BCD d   1      32.344  38.359  27.156  0.00  0.00     0.110 C 
ATOM      3  C31 BCD d   1      33.235  37.880  25.992  0.00  0.00     0.092 C 
ATOM      4  C41 BCD d   1      34.656  38.211  26.307  0.00  0.00     0.096 C 
ATOM      5  O41 BCD d   1      35.467  37.758  25.213  0.00  0.00    -0.348 OA
ATOM      6  C51 BCD d   1      35.107  37.502  27.594  0.00  0.00     0.089 C 
ATOM      7  O51 BCD d   1      34.215  37.944  28.725  0.00  0.00    -0.348 OA
ATOM      8  C12 BCD d   1      36.385  38.619  24.607  0.00  0.00     0.159 C 
ATOM      9  C22 BCD d   1      36.247  38.610  23.060  0.00  0.00     0.110 C 
ATOM     10  C32 BCD d   1      36.609  37.196  22.583  0.00  0.00     0.092 C 
ATOM     11  C42 BCD d   1      38.028  36.845  22.968  0.00  0.00     0.096 C 
ATOM     12  O42 BCD d   1      38.230  35.517  22.504  0.00  0.00    -0.348 OA
ATOM     13  C52 BCD d   1      38.172  37.098  24.522  0.00  0.00     0.089 C 
ATOM     14  O52 BCD d   1      37.715  38.183  24.937  0.00  0.00    -0.348 OA
ATOM     15  C13 BCD d   1      39.345  35.120  21.758  0.00  0.00     0.159 C 
ATOM     16  C23 BCD d   1      38.918  34.224  20.572  0.00  0.00     0.110 C 
ATOM     17  C33 BCD d   1      38.278  32.942  21.095  0.00  0.00     0.092 C 
ATOM     18  C43 BCD d   1      39.271  32.242  21.975  0.00  0.00     0.096 C 
ATOM     19  O43 BCD d   1      38.688  31.063  22.458  0.00  0.00    -0.348 OA
ATOM     20  C53 BCD d   1      39.657  33.170  23.154  0.00  0.00     0.089 C 
ATOM     21  O53 BCD d   1      40.218  34.379  22.621  0.00  0.00    -0.348 OA
ATOM     22  C14 BCD d   1      39.304  29.810  22.204  0.00  0.00     0.159 C 
ATOM     23  C24 BCD d   1      38.239  28.863  21.487  0.00  0.00     0.110 C 
ATOM     24  C34 BCD d   1      37.072  28.634  22.452  0.00  0.00     0.092 C 
ATOM     25  C44 BCD d   1      37.608  27.991  23.718  0.00  0.00     0.096 C 
ATOM     26  O44 BCD d   1      36.520  27.821  24.630  0.00  0.00    -0.348 OA
ATOM     27  C54 BCD d   1      38.660  28.899  24.361  0.00  0.00     0.089 C 
ATOM     28  O54 BCD d   1      39.709  29.240  23.436  0.00  0.00    -0.348 OA
ATOM     29  C15 BCD d   1      36.296  26.522  25.205  0.00  0.00     0.159 C 
ATOM     30  C25 BCD d   1      34.835  26.134  24.972  0.00  0.00     0.110 C 
ATOM     31  C35 BCD d   1      33.925  27.159  25.689  0.00  0.00     0.092 C 
ATOM     32  C45 BCD d   1      34.261  27.153  27.167  0.00  0.00     0.096 C 
ATOM     33  O45 BCD d   1      33.392  28.175  27.697  0.00  0.00    -0.348 OA
ATOM     34  C55 BCD d   1      35.761  27.528  27.376  0.00  0.00     0.089 C 
ATOM     35  O55 BCD d   1      36.574  26.584  26.603  0.00  0.00    -0.348 OA
ATOM     36  C16 BCD d   1      32.631  27.949  28.908  0.00  0.00     0.159 C 
ATOM     37  C26 BCD d   1      31.232  28.382  28.609  0.00  0.00     0.110 C 
ATOM     38  C36 BCD d   1      31.108  29.915  28.504  0.00  0.00     0.092 C 
ATOM     39  C46 BCD d   1      31.750  30.617  29.618  0.00  0.00     0.096 C 
ATOM     40  O46 BCD d   1      31.673  32.043  29.332  0.00  0.00    -0.348 OA
ATOM     41  C56 BCD d   1      33.201  30.230  29.700  0.00  0.00     0.089 C 
ATOM     42  O56 BCD d   1      33.268  28.768  29.949  0.00  0.00    -0.348 OA
ATOM     43  C17 BCD d   1      31.031  32.878  30.336  0.00  0.00     0.159 C 
ATOM     44  C27 BCD d   1      30.023  33.754  29.569  0.00  0.00     0.110 C 
ATOM     45  C37 BCD d   1      30.793  34.660  28.571  0.00  0.00     0.092 C 
ATOM     46  C47 BCD d   1      31.846  35.491  29.325  0.00  0.00     0.096 C 
ATOM     47  O47 BCD d   1      32.529  36.297  28.339  0.00  0.00    -0.348 OA
ATOM     48  C57 BCD d   1      32.844  34.534  30.005  0.00  0.00     0.089 C 
ATOM     49  O57 BCD d   1      32.066  33.666  30.956  0.00  0.00    -0.348 OA
ATOM     50  H   BCD d   1      32.243  38.032  29.361  0.00  0.00     0.133 H 
ATOM     51  H   BCD d   1      32.467  39.440  27.222  0.00  0.00     0.094 H 
ATOM     52  H   BCD d   1      33.122  36.804  25.857  0.00  0.00     0.091 H 
ATOM     53  H   BCD d   1      34.757  39.286  26.453  0.00  0.00     0.091 H 
ATOM     54  H   BCD d   1      35.054  36.435  27.377  0.00  0.00     0.090 H 
ATOM     55  H   BCD d   1      36.190  39.628  24.970  0.00  0.00     0.133 H 
ATOM     56  H   BCD d   1      36.916  39.294  22.539  0.00  0.00     0.094 H 
ATOM     57  H   BCD d   1      35.915  36.493  23.044  0.00  0.00     0.091 H 
ATOM     58  H   BCD d   1      38.816  37.450  22.520  0.00  0.00     0.091 H 
ATOM     59  H   BCD d   1      37.509  36.397  25.029  0.00  0.00     0.090 H 
ATOM     60  H   BCD d   1      39.848  36.001  21.359  0.00  0.00     0.133 H 
ATOM     61  H   BCD d   1      39.792  33.944  19.983  0.00  0.00     0.094 H 
ATOM     62  H   BCD d   1      37.381  33.173  21.669  0.00  0.00     0.091 H 
ATOM     63  H   BCD d   1      40.171  31.998  21.411  0.00  0.00     0.091 H 
ATOM     64  H   BCD d   1      38.760  33.370  23.740  0.00  0.00     0.090 H 
ATOM     65  H   BCD d   1      40.177  29.931  21.563  0.00  0.00     0.133 H 
ATOM     66  H   BCD d   1      38.692  27.903  21.240  0.00  0.00     0.094 H 
ATOM     67  H   BCD d   1      36.605  29.591  22.683  0.00  0.00     0.091 H 
ATOM     68  H   BCD d   1      38.065  27.031  23.479  0.00  0.00     0.091 H 
ATOM     69  H   BCD d   1      38.158  29.811  24.682  0.00  0.00     0.090 H 
ATOM     70  H   BCD d   1      36.946  25.777  24.745  0.00  0.00     0.133 H 
ATOM     71  H   BCD d   1      34.669  25.135  25.376  0.00  0.00     0.094 H 
ATOM     72  H   BCD d   1      34.091  28.151  25.270  0.00  0.00     0.091 H 
ATOM     73  H   BCD d   1      34.122  26.185  27.648  0.00  0.00     0.091 H 
ATOM     74  H   BCD d   1      35.919  28.552  27.038  0.00  0.00     0.090 H 
ATOM     75  H   BCD d   1      32.607  26.913  29.247  0.00  0.00     0.133 H 
ATOM     76  H   BCD d   1      30.592  28.046  29.425  0.00  0.00     0.094 H 
ATOM     77  H   BCD d   1      31.602  30.231  27.585  0.00  0.00     0.091 H 
ATOM     78  H   BCD d   1      31.257  30.365  30.557  0.00  0.00     0.091 H 
ATOM     79  H   BCD d   1      33.645  30.559  28.761  0.00  0.00     0.090 H 
ATOM     80  H   BCD d   1      30.512  32.321  31.116  0.00  0.00     0.133 H 
ATOM     81  H   BCD d   1      29.473  34.369  30.282  0.00  0.00     0.094 H 
ATOM     82  H   BCD d   1      31.306  34.052  27.826  0.00  0.00     0.091 H 
ATOM     83  H   BCD d   1      31.390  36.121  30.089  0.00  0.00     0.091 H 
ATOM     84  H   BCD d   1      33.353  33.972  29.221  0.00  0.00     0.090 H 
ENDROOT
BRANCH   6  85
ATOM     85  C61 BCD d   1      36.521  37.830  28.024  0.00  0.00     0.043 C 
ATOM     86  H   BCD d   1      36.609  38.902  28.201  0.00  0.00     0.078 H 
ATOM     87  H   BCD d   1      37.219  37.537  27.240  0.00  0.00     0.078 H 
BRANCH  85  88
ATOM     88  O61 BCD d   1      36.825  37.119  29.226  0.00  0.00    -0.398 OA
ATOM     89  H   BCD d   1      36.210  37.380  29.915  0.00  0.00     0.209 HD
ENDBRANCH  85  88
ENDBRANCH   6  85
BRANCH   3  90
ATOM     90  O31 BCD d   1      32.855  38.544  24.806  0.00  0.00    -0.390 OA
ATOM     91  H   BCD d   1      33.410  38.246  24.082  0.00  0.00     0.210 HD
ENDBRANCH   3  90
BRANCH   2  92
ATOM     92  O21 BCD d   1      30.955  38.077  26.935  0.00  0.00    -0.388 OA
ATOM     93  H   BCD d   1      30.829  37.128  26.867  0.00  0.00     0.210 HD
ENDBRANCH   2  92
BRANCH   9  94
ATOM     94  O22 BCD d   1      34.927  39.027  22.759  0.00  0.00    -0.388 OA
ATOM     95  H   BCD d   1      34.301  38.419  23.159  0.00  0.00     0.210 HD
ENDBRANCH   9  94
BRANCH  10  96
ATOM     96  O32 BCD d   1      36.536  37.155  21.163  0.00  0.00    -0.390 OA
ATOM     97  H   BCD d   1      36.761  36.273  20.857  0.00  0.00     0.210 HD
ENDBRANCH  10  96
BRANCH  13  98
ATOM     98  C62 BCD d   1      39.597  36.794  24.951  0.00  0.00     0.043 C 
ATOM     99  H   BCD d   1      40.228  37.682  24.986  0.00  0.00     0.078 H 
ATOM    100  H   BCD d   1      40.124  36.151  24.246  0.00  0.00     0.078 H 
BRANCH  98 101
ATOM    101  O62 BCD d   1      39.421  36.188  26.230  0.00  0.00    -0.398 OA
ATOM    102  H   BCD d   1      40.279  35.954  26.593  0.00  0.00     0.209 HD
ENDBRANCH  98 101
ENDBRANCH  13  98
BRANCH  45 103
ATOM    103  O37 BCD d   1      29.850  35.522  27.932  0.00  0.00    -0.390 OA
ATOM    104  H   BCD d   1      30.309  36.091  27.310  0.00  0.00     0.210 HD
ENDBRANCH  45 103
BRANCH  48 105
ATOM    105  C67 BCD d   1      33.902  35.272  30.836  0.00  0.00     0.043 C 
ATOM    106  H   BCD d   1      33.550  35.410  31.858  0.00  0.00     0.078 H 
ATOM    107  H   BCD d   1      34.095  36.258  30.412  0.00  0.00     0.078 H 
BRANCH 105 108
ATOM    108  O67 BCD d   1      35.093  34.487  30.825  0.00  0.00    -0.398 OA
ATOM    109  H   BCD d   1      34.911  33.626  31.207  0.00  0.00     0.209 HD
ENDBRANCH 105 108
ENDBRANCH  48 105
BRANCH  44 110
ATOM    110  O27 BCD d   1      29.090  32.943  28.860  0.00  0.00    -0.388 OA
ATOM    111  H   BCD d   1      29.561  32.389  28.233  0.00  0.00     0.210 HD
ENDBRANCH  44 110
BRANCH  16 112
ATOM    112  O23 BCD d   1      38.018  34.953  19.725  0.00  0.00    -0.388 OA
ATOM    113  H   BCD d   1      37.243  35.209  20.230  0.00  0.00     0.210 HD
ENDBRANCH  16 112
BRANCH  17 114
ATOM    114  O33 BCD d   1      37.903  32.108  20.001  0.00  0.00    -0.390 OA
ATOM    115  H   BCD d   1      37.501  31.303  20.337  0.00  0.00     0.210 HD
ENDBRANCH  17 114
BRANCH  20 116
ATOM    116  C63 BCD d   1      40.711  32.509  24.075  0.00  0.00     0.043 C 
ATOM    117  H   BCD d   1      41.683  32.820  23.692  0.00  0.00     0.078 H 
ATOM    118  H   BCD d   1      40.499  31.440  24.057  0.00  0.00     0.078 H 
BRANCH 116 119
ATOM    119  O63 BCD d   1      40.689  32.877  25.395  0.00  0.00    -0.398 OA
ATOM    120  H   BCD d   1      41.381  32.409  25.868  0.00  0.00     0.209 HD
ENDBRANCH 116 119
ENDBRANCH  20 116
BRANCH  38 121
ATOM    121  O36 BCD d   1      29.695  30.239  28.533  0.00  0.00    -0.390 OA
ATOM    122  H   BCD d   1      29.585  31.191  28.469  0.00  0.00     0.210 HD
ENDBRANCH  38 121
BRANCH  41 123
ATOM    123  C66 BCD d   1      33.977  30.874  30.819  0.00  0.00     0.043 C 
ATOM    124  H   BCD d   1      34.304  30.129  31.545  0.00  0.00     0.078 H 
ATOM    125  H   BCD d   1      33.357  31.587  31.362  0.00  0.00     0.078 H 
BRANCH 123 126
ATOM    126  O66 BCD d   1      34.985  31.461  30.277  0.00  0.00    -0.398 OA
ATOM    127  H   BCD d   1      35.522  30.812  29.817  0.00  0.00     0.209 HD
ENDBRANCH 123 126
ENDBRANCH  41 123
BRANCH  37 128
ATOM    128  O26 BCD d   1      30.841  27.809  27.350  0.00  0.00    -0.388 OA
ATOM    129  H   BCD d   1      31.435  28.116  26.662  0.00  0.00     0.210 HD
ENDBRANCH  37 128
BRANCH  23 130
ATOM    130  O24 BCD d   1      37.813  29.428  20.292  0.00  0.00    -0.388 OA
ATOM    131  H   BCD d   1      37.405  30.279  20.469  0.00  0.00     0.210 HD
ENDBRANCH  23 130
BRANCH  24 132
ATOM    132  O34 BCD d   1      36.097  27.805  21.872  0.00  0.00    -0.390 OA
ATOM    133  H   BCD d   1      35.377  27.676  22.494  0.00  0.00     0.210 HD
ENDBRANCH  24 132
BRANCH  27 134
ATOM    134  C64 BCD d   1      39.315  28.145  25.552  0.00  0.00     0.043 C 
ATOM    135  H   BCD d   1      39.792  27.227  25.210  0.00  0.00     0.078 H 
ATOM    136  H   BCD d   1      38.563  27.861  26.288  0.00  0.00     0.078 H 
BRANCH 134 137
ATOM    137  O64 BCD d   1      40.259  29.011  26.119  0.00  0.00    -0.398 OA
ATOM    138  H   BCD d   1      40.918  29.240  25.459  0.00  0.00     0.209 HD
ENDBRANCH 134 137
ENDBRANCH  27 134
BRANCH  31 139
ATOM    139  O35 BCD d   1      32.550  26.815  25.506  0.00  0.00    -0.390 OA
ATOM    140  H   BCD d   1      31.998  27.459  25.956  0.00  0.00     0.210 HD
ENDBRANCH  31 139
BRANCH  34 141
ATOM    141  C65 BCD d   1      36.155  27.481  28.808  0.00  0.00     0.043 C 
ATOM    142  H   BCD d   1      36.896  26.690  28.923  0.00  0.00     0.078 H 
ATOM    143  H   BCD d   1      35.253  27.307  29.395  0.00  0.00     0.078 H 
BRANCH 141 144
ATOM    144  O65 BCD d   1      36.736  28.683  29.258  0.00  0.00    -0.398 OA
ATOM    145  H   BCD d   1      36.970  28.597  30.185  0.00  0.00     0.209 HD
ENDBRANCH 141 144
ENDBRANCH  34 141
BRANCH  30 146
ATOM    146  O25 BCD d   1      34.523  26.095  23.583  0.00  0.00    -0.388 OA
ATOM    147  H   BCD d   1      34.674  26.961  23.198  0.00  0.00     0.210 HD
ENDBRANCH  30 146
TORSDOF 28
