REMARK WARNING: 32 MAX_TORS EXCEEDED!!!
REMARK  45 active torsions:
REMARK  status: ('A' for Active; 'I' for Inactive)
REMARK    1  A    between atoms: C_1  and  CH3_3 
REMARK       I    between atoms: C_1  and  N_4 
REMARK    2  A    between atoms: N_4  and  CA_5 
REMARK    3  A    between atoms: CA_5  and  C_6 
REMARK    4  A    between atoms: CA_5  and  CB_8 
REMARK       I    between atoms: C_6  and  N_10 
REMARK    5  A    between atoms: CB_8  and  OG_9 
REMARK    6  A    between atoms: N_10  and  CA_11 
REMARK    7  A    between atoms: CA_11  and  C_12 
REMARK    8  A    between atoms: CA_11  and  CB_14 
REMARK       I    between atoms: C_12  and  N_19 
REMARK    9  A    between atoms: CB_14  and  CG_15 
REMARK   10  A    between atoms: CG_15  and  CD_16 
REMARK   11  A    between atoms: CD_16  and  CE_17 
REMARK   12  A    between atoms: CE_17  and  NZ_18 
REMARK   13  A    between atoms: N_19  and  CA_20 
REMARK   14  A    between atoms: CA_20  and  C_21 
REMARK   15  A    between atoms: CA_20  and  CB_23 
REMARK       I    between atoms: C_21  and  N_25 
REMARK   16  A    between atoms: CB_23  and  OG_24 
REMARK   17  A    between atoms: N_25  and  CA_26 
REMARK   18  A    between atoms: CA_26  and  C_27 
REMARK   19  A    between atoms: CA_26  and  CB_29 
REMARK       I    between atoms: C_27  and  N_34 
REMARK   20  A    between atoms: CB_29  and  CG_30 
REMARK   21  A    between atoms: CG_30  and  CD_31 
REMARK   22  A    between atoms: CD_31  and  CE_32 
REMARK   23  A    between atoms: CE_32  and  NZ_33 
REMARK   24  A    between atoms: N_34  and  CA_35 
REMARK   25  A    between atoms: CA_35  and  C_36 
REMARK   26  A    between atoms: CA_35  and  CB_38 
REMARK       I    between atoms: C_36  and  N_42 
REMARK   27  A    between atoms: CB_38  and  CG_39 
REMARK   28  A    between atoms: N_42  and  CA_43 
REMARK   29  A    between atoms: CA_43  and  C_44 
REMARK   30  A    between atoms: CA_43  and  CB_46 
REMARK       I    between atoms: C_44  and  N_53 
REMARK   31  A    between atoms: CB_46  and  CG_47 
REMARK   32  A    between atoms: CG_47  and  CD_48 
REMARK   33  A    between atoms: CD_48  and  NE_49 
REMARK       I    between atoms: NE_49  and  CZ_50 
REMARK       I    between atoms: CZ_50  and  NH1_51 
REMARK   34  A    between atoms: N_53  and  CA_54 
REMARK   35  A    between atoms: CA_54  and  C_55 
REMARK   36  A    between atoms: CA_54  and  CB_57 
REMARK       I    between atoms: C_55  and  N_62 
REMARK   37  A    between atoms: CB_57  and  CG_58 
REMARK   38  A    between atoms: CG_58  and  CD_59 
REMARK   39  A    between atoms: CD_59  and  CE_60 
REMARK   40  A    between atoms: CE_60  and  NZ_61 
REMARK   41  A    between atoms: N_62  and  CA_63 
REMARK   42  A    between atoms: CA_63  and  C_64 
REMARK   43  A    between atoms: CA_63  and  CB_66 
REMARK   44  A    between atoms: CB_66  and  CG_67 
REMARK   45  A    between atoms: CZ_72  and  OH_73 
ROOT
ATOM      1  CA  ASP d   1     -44.523  14.382 -18.580  0.00  0.00     0.098 C 
ATOM      2  H   ASP d   1     -44.940  14.826 -19.484  0.00  0.00     0.088 H 
ENDROOT
BRANCH   1   3
ATOM      3  N   ASP d   1     -45.676  14.019 -17.757  0.00  0.00    -0.346 N 
ATOM      4  C   LYS d   1     -45.525  13.415 -16.574  0.00  0.00     0.241 C 
ATOM      5  O   LYS d   1     -44.467  12.864 -16.253  0.00  0.00    -0.271 OA
ATOM      6  H   ASP d   1     -46.615  14.231 -18.093  0.00  0.00     0.163 HD
BRANCH   4   7
ATOM      7  CA  LYS d   1     -46.762  13.415 -15.662  0.00  0.00     0.089 C 
ATOM      8  H   LYS d   1     -47.643  13.486 -16.300  0.00  0.00     0.087 H 
BRANCH   7   9
ATOM      9  N   LYS d   1     -46.878  12.176 -14.887  0.00  0.00    -0.346 N 
ATOM     10  C   SER d   1     -47.134  11.004 -15.470  0.00  0.00     0.243 C 
ATOM     11  O   SER d   1     -47.336  10.876 -16.686  0.00  0.00    -0.271 OA
ATOM     12  H   LYS d   1     -46.760  12.211 -13.874  0.00  0.00     0.163 HD
BRANCH  10  13
ATOM     13  CA  SER d   1     -47.180   9.782 -14.547  0.00  0.00     0.109 C 
ATOM     14  H   SER d   1     -47.624  10.083 -13.598  0.00  0.00     0.090 H 
BRANCH  13  15
ATOM     15  N   SER d   1     -47.989   8.722 -15.156  0.00  0.00    -0.344 N 
ATOM     16  C   LYS d   1     -48.698   7.878 -14.412  0.00  0.00     0.241 C 
ATOM     17  O   LYS d   1     -48.734   7.915 -13.175  0.00  0.00    -0.271 OA
ATOM     18  H   SER d   1     -48.008   8.630 -16.172  0.00  0.00     0.163 HD
BRANCH  16  19
ATOM     19  CA  LYS d   1     -49.478   6.815 -15.195  0.00  0.00     0.089 C 
ATOM     20  H   LYS d   1     -50.247   7.308 -15.790  0.00  0.00     0.087 H 
BRANCH  19  21
ATOM     21  N   LYS d   1     -48.599   6.108 -16.103  0.00  0.00    -0.346 N 
ATOM     22  C   SER d   1     -48.492   6.503 -17.365  0.00  0.00     0.243 C 
ATOM     23  O   SER d   1     -49.090   7.490 -17.795  0.00  0.00    -0.271 OA
ATOM     24  H   LYS d   1     -48.062   5.306 -15.772  0.00  0.00     0.163 HD
BRANCH  22  25
ATOM     25  CA  SER d   1     -47.592   5.687 -18.267  0.00  0.00     0.109 C 
ATOM     26  H   SER d   1     -47.243   4.807 -17.727  0.00  0.00     0.090 H 
BRANCH  25  27
ATOM     27  N   SER d   1     -48.343   5.263 -19.453  0.00  0.00    -0.346 N 
ATOM     28  C   ACE d   1     -49.086   4.154 -19.462  0.00  0.00     0.214 C 
ATOM     29  O   ACE d   1     -49.700   3.738 -18.467  0.00  0.00    -0.274 OA
ATOM     30  H   SER d   1     -48.296   5.833 -20.297  0.00  0.00     0.163 HD
BRANCH  28  31
ATOM     31  CH3 ACE d   1     -49.246   3.548 -20.826  0.00  0.00    -0.003 C 
ATOM     32  H   ACE d   1     -48.957   2.498 -20.792  0.00  0.00     0.040 H 
ATOM     33  H   ACE d   1     -50.287   3.630 -21.139  0.00  0.00     0.040 H 
ATOM     34  H   ACE d   1     -48.610   4.078 -21.535  0.00  0.00     0.040 H 
ENDBRANCH  28  31
ENDBRANCH  25  27
BRANCH  25  35
ATOM     35  CB  SER d   1     -46.385   6.520 -18.688  0.00  0.00     0.044 C 
ATOM     36  H   SER d   1     -45.840   6.825 -17.794  0.00  0.00     0.077 H 
ATOM     37  H   SER d   1     -46.736   7.389 -19.245  0.00  0.00     0.077 H 
BRANCH  35  38
ATOM     38  OG  SER d   1     -45.511   5.763 -19.522  0.00  0.00    -0.398 OA
ATOM     39  H   SER d   1     -45.202   4.991 -19.042  0.00  0.00     0.209 HD
ENDBRANCH  35  38
ENDBRANCH  25  35
ENDBRANCH  22  25
ENDBRANCH  19  21
BRANCH  19  40
ATOM     40  CB  LYS d   1     -50.165   5.848 -14.228  0.00  0.00    -0.038 C 
ATOM     41  H   LYS d   1     -50.837   6.435 -13.602  0.00  0.00     0.036 H 
ATOM     42  H   LYS d   1     -49.383   5.335 -13.669  0.00  0.00     0.036 H 
BRANCH  40  43
ATOM     43  CG  LYS d   1     -51.012   4.771 -14.930  0.00  0.00    -0.061 C 
ATOM     44  H   LYS d   1     -50.349   4.068 -15.435  0.00  0.00     0.033 H 
ATOM     45  H   LYS d   1     -51.672   5.251 -15.653  0.00  0.00     0.033 H 
BRANCH  43  46
ATOM     46  CD  LYS d   1     -51.853   4.018 -13.910  0.00  0.00    -0.043 C 
ATOM     47  H   LYS d   1     -52.545   4.727 -13.456  0.00  0.00     0.035 H 
ATOM     48  H   LYS d   1     -51.177   3.570 -13.182  0.00  0.00     0.035 H 
BRANCH  46  49
ATOM     49  CE  LYS d   1     -52.682   2.887 -14.548  0.00  0.00     0.080 C 
ATOM     50  H   LYS d   1     -52.022   2.109 -14.931  0.00  0.00     0.075 H 
ATOM     51  H   LYS d   1     -53.269   3.276 -15.380  0.00  0.00     0.075 H 
BRANCH  49  52
ATOM     52  NZ  LYS d   1     -53.581   2.327 -13.508  0.00  0.00    -0.079 N 
ATOM     53  H   LYS d   1     -54.139   1.575 -13.912  0.00  0.00     0.274 HD
ATOM     54  H   LYS d   1     -53.021   1.960 -12.738  0.00  0.00     0.274 HD
ATOM     55  H   LYS d   1     -54.198   3.062 -13.162  0.00  0.00     0.274 HD
ENDBRANCH  49  52
ENDBRANCH  46  49
ENDBRANCH  43  46
ENDBRANCH  40  43
ENDBRANCH  19  40
ENDBRANCH  16  19
ENDBRANCH  13  15
BRANCH  13  56
ATOM     56  CB  SER d   1     -45.783   9.257 -14.309  0.00  0.00     0.044 C 
ATOM     57  H   SER d   1     -45.843   8.413 -13.622  0.00  0.00     0.077 H 
ATOM     58  H   SER d   1     -45.176  10.063 -13.897  0.00  0.00     0.077 H 
BRANCH  56  59
ATOM     59  OG  SER d   1     -45.185   8.815 -15.511  0.00  0.00    -0.398 OA
ATOM     60  H   SER d   1     -45.715   8.110 -15.890  0.00  0.00     0.209 HD
ENDBRANCH  56  59
ENDBRANCH  13  56
ENDBRANCH  10  13
ENDBRANCH   7   9
BRANCH   7  61
ATOM     61  CB  LYS d   1     -46.698  14.611 -14.715  0.00  0.00    -0.038 C 
ATOM     62  H   LYS d   1     -46.742  15.499 -15.345  0.00  0.00     0.036 H 
ATOM     63  H   LYS d   1     -45.791  14.482 -14.124  0.00  0.00     0.036 H 
BRANCH  61  64
ATOM     64  CG  LYS d   1     -47.830  14.742 -13.724  0.00  0.00    -0.061 C 
ATOM     65  H   LYS d   1     -47.961  13.776 -13.237  0.00  0.00     0.033 H 
ATOM     66  H   LYS d   1     -48.717  15.063 -14.271  0.00  0.00     0.033 H 
BRANCH  64  67
ATOM     67  CD  LYS d   1     -47.553  15.765 -12.652  0.00  0.00    -0.043 C 
ATOM     68  H   LYS d   1     -47.421  16.733 -13.134  0.00  0.00     0.035 H 
ATOM     69  H   LYS d   1     -46.664  15.451 -12.106  0.00  0.00     0.035 H 
BRANCH  67  70
ATOM     70  CE  LYS d   1     -48.684  15.883 -11.672  0.00  0.00     0.080 C 
ATOM     71  H   LYS d   1     -48.939  14.860 -11.395  0.00  0.00     0.075 H 
ATOM     72  H   LYS d   1     -49.448  16.474 -12.176  0.00  0.00     0.075 H 
BRANCH  70  73
ATOM     73  NZ  LYS d   1     -48.413  16.590 -10.388  0.00  0.00    -0.079 N 
ATOM     74  H   LYS d   1     -49.260  16.598  -9.820  0.00  0.00     0.274 HD
ATOM     75  H   LYS d   1     -47.670  16.106  -9.885  0.00  0.00     0.274 HD
ATOM     76  H   LYS d   1     -48.124  17.549 -10.583  0.00  0.00     0.274 HD
ENDBRANCH  70  73
ENDBRANCH  67  70
ENDBRANCH  64  67
ENDBRANCH  61  64
ENDBRANCH   7  61
ENDBRANCH   4   7
ENDBRANCH   1   3
BRANCH   1  77
ATOM     77  C   ASP d   1     -43.667  13.215 -19.062  0.00  0.00     0.241 C 
ATOM     78  O   ASP d   1     -42.452  13.351 -19.162  0.00  0.00    -0.271 OA
ATOM     79  N   ARG d   1     -44.270  12.073 -19.385  0.00  0.00    -0.346 N 
ATOM     80  H   ARG d   1     -45.266  11.946 -19.203  0.00  0.00     0.163 HD
BRANCH  79  81
ATOM     81  CA  ARG d   1     -43.484  10.995 -20.007  0.00  0.00     0.089 C 
ATOM     82  H   ARG d   1     -42.538  10.918 -19.471  0.00  0.00     0.087 H 
BRANCH  81  83
ATOM     83  C   ARG d   1     -43.206  11.321 -21.478  0.00  0.00     0.241 C 
ATOM     84  O   ARG d   1     -44.036  11.933 -22.146  0.00  0.00    -0.271 OA
ATOM     85  N   LYS d   1     -42.044  10.928 -21.986  0.00  0.00    -0.346 N 
ATOM     86  H   LYS d   1     -41.350  10.494 -21.377  0.00  0.00     0.163 HD
BRANCH  85  87
ATOM     87  CA  LYS d   1     -41.742  11.111 -23.423  0.00  0.00     0.089 C 
ATOM     88  H   LYS d   1     -42.292  11.991 -23.757  0.00  0.00     0.087 H 
BRANCH  87  89
ATOM     89  C   LYS d   1     -42.204   9.903 -24.243  0.00  0.00     0.241 C 
ATOM     90  O   LYS d   1     -41.750   8.777 -24.015  0.00  0.00    -0.271 OA
ATOM     91  N   TYR d   1     -43.119  10.145 -25.179  0.00  0.00    -0.344 N 
ATOM     92  H   TYR d   1     -43.507  11.085 -25.256  0.00  0.00     0.163 HD
BRANCH  91  93
ATOM     93  CA  TYR d   1     -43.587   9.113 -26.099  0.00  0.00     0.100 C 
ATOM     94  H   TYR d   1     -43.235   8.143 -25.748  0.00  0.00     0.090 H 
BRANCH  93  95
ATOM     95  C   TYR d   1     -43.031   9.409 -27.496  0.00  0.00     0.197 C 
ATOM     96  O   TYR d   1     -42.873   8.492 -28.346  0.00  0.00    -0.646 OA
ATOM     97  O   TYR d   1     -42.726  10.593 -27.801  0.00  0.00    -0.646 OA
ENDBRANCH  93  95
BRANCH  93  98
ATOM     98  CB  TYR d   1     -45.122   9.067 -26.151  0.00  0.00    -0.013 C 
ATOM     99  H   TYR d   1     -45.384   8.133 -26.647  0.00  0.00     0.043 H 
ATOM    100  H   TYR d   1     -45.439   9.980 -26.655  0.00  0.00     0.043 H 
BRANCH  98 101
ATOM    101  CG  TYR d   1     -45.835   9.052 -24.802  0.00  0.00    -0.056 A 
ATOM    102  CD1 TYR d   1     -45.852   7.903 -24.006  0.00  0.00    -0.074 A 
ATOM    103  CE1 TYR d   1     -46.521   7.886 -22.774  0.00  0.00    -0.051 A 
ATOM    104  H   TYR d   1     -45.337   7.006 -24.349  0.00  0.00     0.084 H 
ATOM    105  CZ  TYR d   1     -47.181   9.033 -22.336  0.00  0.00     0.065 A 
ATOM    106  H   TYR d   1     -46.525   6.983 -22.163  0.00  0.00     0.087 H 
ATOM    107  CE2 TYR d   1     -47.187  10.179 -23.118  0.00  0.00    -0.051 A 
ATOM    108  CD2 TYR d   1     -46.523  10.183 -24.341  0.00  0.00    -0.074 A 
ATOM    109  H   TYR d   1     -47.709  11.072 -22.776  0.00  0.00     0.087 H 
ATOM    110  H   TYR d   1     -46.538  11.085 -24.953  0.00  0.00     0.084 H 
BRANCH 105 111
ATOM    111  OH  TYR d   1     -47.837   9.034 -21.122  0.00  0.00    -0.361 OA
ATOM    112  H   TYR d   1     -47.457   9.709 -20.555  0.00  0.00     0.217 HD
ENDBRANCH 105 111
ENDBRANCH  98 101
ENDBRANCH  93  98
ENDBRANCH  91  93
ENDBRANCH  87  89
BRANCH  87 113
ATOM    113  CB  LYS d   1     -40.246  11.360 -23.654  0.00  0.00    -0.038 C 
ATOM    114  H   LYS d   1     -40.104  11.568 -24.715  0.00  0.00     0.036 H 
ATOM    115  H   LYS d   1     -39.707  10.475 -23.316  0.00  0.00     0.036 H 
BRANCH 113 116
ATOM    116  CG  LYS d   1     -39.711  12.557 -22.871  0.00  0.00    -0.061 C 
ATOM    117  H   LYS d   1     -38.828  12.946 -23.378  0.00  0.00     0.033 H 
ATOM    118  H   LYS d   1     -39.460  12.236 -21.860  0.00  0.00     0.033 H 
BRANCH 116 119
ATOM    119  CD  LYS d   1     -40.768  13.663 -22.794  0.00  0.00    -0.043 C 
ATOM    120  H   LYS d   1     -41.572  13.327 -22.139  0.00  0.00     0.035 H 
ATOM    121  H   LYS d   1     -41.131  13.864 -23.802  0.00  0.00     0.035 H 
BRANCH 119 122
ATOM    122  CE  LYS d   1     -40.187  14.953 -22.223  0.00  0.00     0.080 C 
ATOM    123  H   LYS d   1     -39.254  15.170 -22.743  0.00  0.00     0.075 H 
ATOM    124  H   LYS d   1     -40.028  14.815 -21.154  0.00  0.00     0.075 H 
BRANCH 122 125
ATOM    125  NZ  LYS d   1     -41.118  16.112 -22.417  0.00  0.00    -0.079 N 
ATOM    126  H   LYS d   1     -40.697  16.954 -22.024  0.00  0.00     0.274 HD
ATOM    127  H   LYS d   1     -41.287  16.248 -23.414  0.00  0.00     0.274 HD
ATOM    128  H   LYS d   1     -42.001  15.920 -21.945  0.00  0.00     0.274 HD
ENDBRANCH 122 125
ENDBRANCH 119 122
ENDBRANCH 116 119
ENDBRANCH 113 116
ENDBRANCH  87 113
ENDBRANCH  85  87
ENDBRANCH  81  83
BRANCH  81 129
ATOM    129  CB  ARG d   1     -44.209   9.648 -19.900  0.00  0.00    -0.036 C 
ATOM    130  H   ARG d   1     -45.204   9.779 -20.325  0.00  0.00     0.036 H 
ATOM    131  H   ARG d   1     -44.215   9.364 -18.848  0.00  0.00     0.036 H 
BRANCH 129 132
ATOM    132  CG  ARG d   1     -43.521   8.507 -20.681  0.00  0.00    -0.048 C 
ATOM    133  H   ARG d   1     -42.818   8.962 -21.378  0.00  0.00     0.035 H 
ATOM    134  H   ARG d   1     -44.302   7.927 -21.174  0.00  0.00     0.035 H 
BRANCH 132 135
ATOM    135  CD  ARG d   1     -42.732   7.553 -19.786  0.00  0.00     0.009 C 
ATOM    136  H   ARG d   1     -43.433   7.044 -19.125  0.00  0.00     0.064 H 
ATOM    137  H   ARG d   1     -41.999   8.134 -19.226  0.00  0.00     0.064 H 
BRANCH 135 138
ATOM    138  NE  ARG d   1     -42.016   6.539 -20.571  0.00  0.00    -0.227 N 
ATOM    139  CZ  ARG d   1     -40.687   6.440 -20.648  0.00  0.00     0.665 C 
ATOM    140  NH1 ARG d   1     -39.914   7.274 -19.968  0.00  0.00    -0.235 N 
ATOM    141  NH2 ARG d   1     -40.122   5.498 -21.392  0.00  0.00    -0.235 N 
ATOM    142  H   ARG d   1     -40.334   7.996 -19.382  0.00  0.00     0.174 HD
ATOM    143  H   ARG d   1     -38.899   7.194 -20.030  0.00  0.00     0.174 HD
ATOM    144  H   ARG d   1     -40.704   4.841 -21.912  0.00  0.00     0.174 HD
ATOM    145  H   ARG d   1     -39.106   5.431 -21.444  0.00  0.00     0.174 HD
ATOM    146  H   ARG d   1     -42.573   5.863 -21.094  0.00  0.00     0.177 HD
ENDBRANCH 135 138
ENDBRANCH 132 135
ENDBRANCH 129 132
ENDBRANCH  81 129
ENDBRANCH  79  81
ENDBRANCH   1  77
BRANCH   1 147
ATOM    147  CB  ASP d   1     -43.636  15.376 -17.799  0.00  0.00     0.043 C 
ATOM    148  H   ASP d   1     -42.933  14.794 -17.203  0.00  0.00     0.052 H 
ATOM    149  H   ASP d   1     -44.293  16.003 -17.196  0.00  0.00     0.052 H 
BRANCH 147 150
ATOM    150  CG  ASP d   1     -42.825  16.294 -18.704  0.00  0.00     0.175 C 
ATOM    151  OD1 ASP d   1     -43.412  16.858 -19.659  0.00  0.00    -0.648 OA
ATOM    152  OD2 ASP d   1     -41.603  16.469 -18.470  0.00  0.00    -0.648 OA
ENDBRANCH 147 150
ENDBRANCH   1 147
TORSDOF 45
