REMARK WARNING: 32 MAX_TORS EXCEEDED!!!
REMARK  37 active torsions:
REMARK  status: ('A' for Active; 'I' for Inactive)
REMARK    1  A    between atoms: C_1  and  CH3_3 
REMARK       I    between atoms: C_1  and  N_4 
REMARK    2  A    between atoms: N_4  and  CA_5 
REMARK    3  A    between atoms: CA_5  and  C_6 
REMARK    4  A    between atoms: CA_5  and  CB_8 
REMARK       I    between atoms: C_6  and  N_10 
REMARK    5  A    between atoms: CB_8  and  OG_9 
REMARK    6  A    between atoms: N_10  and  CA_11 
REMARK    7  A    between atoms: CA_11  and  C_12 
REMARK    8  A    between atoms: CA_11  and  CB_14 
REMARK       I    between atoms: C_12  and  N_19 
REMARK    9  A    between atoms: CB_14  and  CG_15 
REMARK   10  A    between atoms: CG_15  and  CD_16 
REMARK   11  A    between atoms: CD_16  and  CE_17 
REMARK   12  A    between atoms: CE_17  and  NZ_18 
REMARK   13  A    between atoms: N_19  and  CA_20 
REMARK   14  A    between atoms: CA_20  and  C_21 
REMARK   15  A    between atoms: CA_20  and  CB_23 
REMARK       I    between atoms: C_21  and  N_25 
REMARK   16  A    between atoms: CB_23  and  OG_24 
REMARK   17  A    between atoms: N_25  and  CA_26 
REMARK   18  A    between atoms: CA_26  and  CB_27 
REMARK   19  A    between atoms: CA_26  and  C_33 
REMARK   20  A    between atoms: CB_27  and  CG_28 
REMARK   21  A    between atoms: CG_28  and  CD_29 
REMARK   22  A    between atoms: CD_29  and  CE_30 
REMARK   23  A    between atoms: CE_30  and  NZ_31 
REMARK   24  A    between atoms: NZ_31  and  CM_32 
REMARK       I    between atoms: C_33  and  N_35 
REMARK   25  A    between atoms: N_35  and  CA_36 
REMARK   26  A    between atoms: CA_36  and  C_37 
REMARK   27  A    between atoms: CA_36  and  CB_39 
REMARK       I    between atoms: C_37  and  N_43 
REMARK   28  A    between atoms: CB_39  and  CG_40 
REMARK   29  A    between atoms: N_43  and  CA_44 
REMARK   30  A    between atoms: CA_44  and  C_45 
REMARK   31  A    between atoms: CA_44  and  CB_47 
REMARK       I    between atoms: C_45  and  N_51 
REMARK   32  A    between atoms: CB_47  and  CG_48 
REMARK   33  A    between atoms: CG_48  and  CD_49 
REMARK   34  A    between atoms: CD_49  and  NE_50 
REMARK   35  A    between atoms: N_51  and  CA_52 
REMARK   36  A    between atoms: CA_52  and  C_53 
REMARK   37  A    between atoms: CA_52  and  CB_55 
ROOT
ATOM      1  CA  MLZ d   1      29.839 -25.254  -0.047  0.00  0.00     0.089 C 
ATOM      2  H   MLZ d   1      29.408 -24.464  -0.662  0.00  0.00     0.087 H 
ENDROOT
BRANCH   1   3
ATOM      3  N   MLZ d   1      28.762 -25.789   0.790  0.00  0.00    -0.346 N 
ATOM      4  C   SER d   1      27.565 -26.056   0.275  0.00  0.00     0.243 C 
ATOM      5  O   SER d   1      27.299 -25.903  -0.925  0.00  0.00    -0.271 OA
ATOM      6  H   MLZ d   1      28.933 -25.959   1.781  0.00  0.00     0.163 HD
BRANCH   4   7
ATOM      7  CA  SER d   1      26.517 -26.597   1.245  0.00  0.00     0.109 C 
ATOM      8  H   SER d   1      26.573 -26.047   2.184  0.00  0.00     0.090 H 
BRANCH   7   9
ATOM      9  N   SER d   1      25.170 -26.420   0.678  0.00  0.00    -0.344 N 
ATOM     10  C   LYS d   1      24.090 -26.274   1.438  0.00  0.00     0.241 C 
ATOM     11  O   LYS d   1      24.108 -26.256   2.667  0.00  0.00    -0.271 OA
ATOM     12  H   SER d   1      25.062 -26.409  -0.336  0.00  0.00     0.163 HD
BRANCH  10  13
ATOM     13  CA  LYS d   1      22.778 -26.107   0.669  0.00  0.00     0.089 C 
ATOM     14  H   LYS d   1      22.860 -25.191   0.084  0.00  0.00     0.087 H 
BRANCH  13  15
ATOM     15  N   LYS d   1      22.553 -27.182  -0.270  0.00  0.00    -0.346 N 
ATOM     16  C   SER d   1      22.937 -27.013  -1.526  0.00  0.00     0.243 C 
ATOM     17  O   SER d   1      23.528 -25.998  -1.899  0.00  0.00    -0.271 OA
ATOM     18  H   LYS d   1      22.109 -28.051   0.028  0.00  0.00     0.163 HD
BRANCH  16  19
ATOM     19  CA  SER d   1      22.607 -28.128  -2.488  0.00  0.00     0.109 C 
ATOM     20  H   SER d   1      21.691 -28.608  -2.143  0.00  0.00     0.090 H 
BRANCH  19  21
ATOM     21  N   SER d   1      22.383 -27.612  -3.831  0.00  0.00    -0.346 N 
ATOM     22  C   ACE d   1      21.151 -27.481  -4.307  0.00  0.00     0.214 C 
ATOM     23  O   ACE d   1      20.176 -27.436  -3.554  0.00  0.00    -0.274 OA
ATOM     24  H   SER d   1      23.180 -27.349  -4.411  0.00  0.00     0.163 HD
BRANCH  22  25
ATOM     25  CH3 ACE d   1      21.078 -27.018  -5.739  0.00  0.00    -0.003 C 
ATOM     26  H   ACE d   1      20.331 -27.607  -6.272  0.00  0.00     0.040 H 
ATOM     27  H   ACE d   1      20.799 -25.965  -5.765  0.00  0.00     0.040 H 
ATOM     28  H   ACE d   1      22.051 -27.149  -6.212  0.00  0.00     0.040 H 
ENDBRANCH  22  25
ENDBRANCH  19  21
BRANCH  19  29
ATOM     29  CB  SER d   1      23.727 -29.139  -2.517  0.00  0.00     0.044 C 
ATOM     30  H   SER d   1      23.721 -29.718  -1.594  0.00  0.00     0.077 H 
ATOM     31  H   SER d   1      24.683 -28.623  -2.610  0.00  0.00     0.077 H 
BRANCH  29  32
ATOM     32  OG  SER d   1      23.544 -30.007  -3.625  0.00  0.00    -0.398 OA
ATOM     33  H   SER d   1      22.702 -30.460  -3.539  0.00  0.00     0.209 HD
ENDBRANCH  29  32
ENDBRANCH  19  29
ENDBRANCH  16  19
ENDBRANCH  13  15
BRANCH  13  34
ATOM     34  CB  LYS d   1      21.607 -25.963   1.630  0.00  0.00    -0.038 C 
ATOM     35  H   LYS d   1      21.798 -25.095   2.261  0.00  0.00     0.036 H 
ATOM     36  H   LYS d   1      21.526 -26.889   2.199  0.00  0.00     0.036 H 
BRANCH  34  37
ATOM     37  CG  LYS d   1      20.285 -25.738   0.916  0.00  0.00    -0.061 C 
ATOM     38  H   LYS d   1      19.984 -26.668   0.434  0.00  0.00     0.033 H 
ATOM     39  H   LYS d   1      20.414 -24.943   0.181  0.00  0.00     0.033 H 
BRANCH  37  40
ATOM     40  CD  LYS d   1      19.206 -25.326   1.895  0.00  0.00    -0.043 C 
ATOM     41  H   LYS d   1      19.454 -24.350   2.311  0.00  0.00     0.035 H 
ATOM     42  H   LYS d   1      19.143 -26.068   2.691  0.00  0.00     0.035 H 
BRANCH  40  43
ATOM     43  CE  LYS d   1      17.857 -25.239   1.184  0.00  0.00     0.080 C 
ATOM     44  H   LYS d   1      17.597 -26.212   0.766  0.00  0.00     0.075 H 
ATOM     45  H   LYS d   1      17.913 -24.512   0.374  0.00  0.00     0.075 H 
BRANCH  43  46
ATOM     46  NZ  LYS d   1      16.820 -24.819   2.168  0.00  0.00    -0.079 N 
ATOM     47  H   LYS d   1      15.915 -24.758   1.701  0.00  0.00     0.274 HD
ATOM     48  H   LYS d   1      16.770 -25.505   2.921  0.00  0.00     0.274 HD
ATOM     49  H   LYS d   1      17.067 -23.907   2.553  0.00  0.00     0.274 HD
ENDBRANCH  43  46
ENDBRANCH  40  43
ENDBRANCH  37  40
ENDBRANCH  34  37
ENDBRANCH  13  34
ENDBRANCH  10  13
ENDBRANCH   7   9
BRANCH   7  50
ATOM     50  CB  SER d   1      26.788 -28.066   1.517  0.00  0.00     0.044 C 
ATOM     51  H   SER d   1      26.056 -28.405   2.250  0.00  0.00     0.077 H 
ATOM     52  H   SER d   1      27.818 -28.152   1.863  0.00  0.00     0.077 H 
BRANCH  50  53
ATOM     53  OG  SER d   1      26.653 -28.883   0.369  0.00  0.00    -0.398 OA
ATOM     54  H   SER d   1      25.758 -28.812   0.030  0.00  0.00     0.209 HD
ENDBRANCH  50  53
ENDBRANCH   7  50
ENDBRANCH   4   7
ENDBRANCH   1   3
BRANCH   1  55
ATOM     55  CB  MLZ d   1      30.962 -24.729   0.845  0.00  0.00    -0.038 C 
ATOM     56  H   MLZ d   1      31.737 -24.336   0.186  0.00  0.00     0.036 H 
ATOM     57  H   MLZ d   1      31.285 -25.558   1.475  0.00  0.00     0.036 H 
BRANCH  55  58
ATOM     58  CG  MLZ d   1      30.551 -23.603   1.769  0.00  0.00    -0.061 C 
ATOM     59  H   MLZ d   1      29.528 -23.754   2.112  0.00  0.00     0.033 H 
ATOM     60  H   MLZ d   1      30.595 -22.650   1.242  0.00  0.00     0.033 H 
BRANCH  58  61
ATOM     61  CD  MLZ d   1      31.507 -23.590   2.958  0.00  0.00    -0.043 C 
ATOM     62  H   MLZ d   1      32.524 -23.499   2.578  0.00  0.00     0.035 H 
ATOM     63  H   MLZ d   1      31.365 -24.512   3.521  0.00  0.00     0.035 H 
BRANCH  61  64
ATOM     64  CE  MLZ d   1      31.239 -22.418   3.888  0.00  0.00     0.081 C 
ATOM     65  H   MLZ d   1      30.239 -22.536   4.306  0.00  0.00     0.075 H 
ATOM     66  H   MLZ d   1      31.334 -21.497   3.312  0.00  0.00     0.075 H 
BRANCH  64  67
ATOM     67  NZ  MLZ d   1      32.201 -22.367   5.001  0.00  0.00    -0.079 N 
ATOM     68  H   MLZ d   1      33.066 -21.980   4.625  0.00  0.00     0.276 HD
ATOM     69  H   MLZ d   1      32.277 -23.316   5.368  0.00  0.00     0.276 HD
BRANCH  67  70
ATOM     70  CM  MLZ d   1      31.800 -21.497   6.138  0.00  0.00     0.065 C 
ATOM     71  H   MLZ d   1      31.676 -20.474   5.784  0.00  0.00     0.067 H 
ATOM     72  H   MLZ d   1      30.859 -21.856   6.554  0.00  0.00     0.067 H 
ATOM     73  H   MLZ d   1      32.573 -21.526   6.906  0.00  0.00     0.067 H 
ENDBRANCH  67  70
ENDBRANCH  64  67
ENDBRANCH  61  64
ENDBRANCH  58  61
ENDBRANCH  55  58
ENDBRANCH   1  55
BRANCH   1  74
ATOM     74  C   MLZ d   1      30.434 -26.313  -0.935  0.00  0.00     0.241 C 
ATOM     75  O   MLZ d   1      30.475 -27.493  -0.596  0.00  0.00    -0.271 OA
ATOM     76  N   ASP d   1      30.889 -25.895  -2.122  0.00  0.00    -0.346 N 
ATOM     77  H   ASP d   1      30.565 -25.003  -2.495  0.00  0.00     0.163 HD
BRANCH  76  78
ATOM     78  CA  ASP d   1      31.847 -26.697  -2.900  0.00  0.00     0.098 C 
ATOM     79  H   ASP d   1      32.056 -26.122  -3.802  0.00  0.00     0.088 H 
BRANCH  78  80
ATOM     80  C   ASP d   1      31.318 -28.046  -3.395  0.00  0.00     0.241 C 
ATOM     81  O   ASP d   1      32.067 -29.016  -3.471  0.00  0.00    -0.271 OA
ATOM     82  N   ARG d   1      30.039 -28.141  -3.746  0.00  0.00    -0.346 N 
ATOM     83  H   ARG d   1      29.396 -27.364  -3.594  0.00  0.00     0.163 HD
BRANCH  82  84
ATOM     84  CA  ARG d   1      29.577 -29.387  -4.356  0.00  0.00     0.089 C 
ATOM     85  H   ARG d   1      30.046 -30.209  -3.815  0.00  0.00     0.087 H 
BRANCH  84  86
ATOM     86  C   ARG d   1      30.012 -29.462  -5.832  0.00  0.00     0.241 C 
ATOM     87  O   ARG d   1      30.126 -28.432  -6.509  0.00  0.00    -0.271 OA
ATOM     88  N   LYS d   1      30.274 -30.670  -6.323  0.00  0.00    -0.345 N 
ATOM     89  H   LYS d   1      30.155 -31.489  -5.727  0.00  0.00     0.163 HD
BRANCH  88  90
ATOM     90  CA  LYS d   1      30.737 -30.849  -7.723  0.00  0.00     0.093 C 
ATOM     91  H   LYS d   1      31.460 -30.055  -7.909  0.00  0.00     0.089 H 
BRANCH  90  92
ATOM     92  C   LYS d   1      29.611 -30.680  -8.751  0.00  0.00     0.196 C 
ATOM     93  O   LYS d   1      28.480 -31.202  -8.560  0.00  0.00    -0.646 OA
ATOM     94  O   LYS d   1      29.819 -30.011  -9.798  0.00  0.00    -0.646 OA
ENDBRANCH  90  92
BRANCH  90  95
ATOM     95  CB  LYS d   1      31.426 -32.208  -7.906  0.00  0.00    -0.048 C 
ATOM     96  H   LYS d   1      32.288 -32.269  -7.242  0.00  0.00     0.030 H 
ATOM     97  H   LYS d   1      30.723 -33.006  -7.665  0.00  0.00     0.030 H 
ATOM     98  H   LYS d   1      31.754 -32.311  -8.940  0.00  0.00     0.030 H 
ENDBRANCH  90  95
ENDBRANCH  88  90
ENDBRANCH  84  86
BRANCH  84  99
ATOM     99  CB  ARG d   1      28.062 -29.571  -4.217  0.00  0.00    -0.036 C 
ATOM    100  H   ARG d   1      27.563 -28.876  -4.893  0.00  0.00     0.036 H 
ATOM    101  H   ARG d   1      27.782 -29.382  -3.181  0.00  0.00     0.036 H 
BRANCH  99 102
ATOM    102  CG  ARG d   1      27.642 -30.999  -4.585  0.00  0.00    -0.041 C 
ATOM    103  H   ARG d   1      28.349 -31.680  -4.112  0.00  0.00     0.035 H 
ATOM    104  H   ARG d   1      27.633 -31.068  -5.673  0.00  0.00     0.035 H 
BRANCH 102 105
ATOM    105  CD  ARG d   1      26.251 -31.369  -4.092  0.00  0.00     0.080 C 
ATOM    106  H   ARG d   1      25.518 -30.766  -4.628  0.00  0.00     0.075 H 
ATOM    107  H   ARG d   1      26.199 -31.183  -3.019  0.00  0.00     0.075 H 
BRANCH 105 108
ATOM    108  NE  ARG d   1      25.967 -32.782  -4.338  0.00  0.00    -0.079 N 
ATOM    109  H   ARG d   1      25.031 -33.003  -3.999  0.00  0.00     0.274 HD
ATOM    110  H   ARG d   1      26.020 -32.969  -5.339  0.00  0.00     0.274 HD
ATOM    111  H   ARG d   1      26.652 -33.356  -3.847  0.00  0.00     0.274 HD
ENDBRANCH 105 108
ENDBRANCH 102 105
ENDBRANCH  99 102
ENDBRANCH  84  99
ENDBRANCH  82  84
ENDBRANCH  78  80
BRANCH  78 112
ATOM    112  CB  ASP d   1      33.113 -26.923  -2.049  0.00  0.00     0.043 C 
ATOM    113  H   ASP d   1      32.952 -27.817  -1.447  0.00  0.00     0.052 H 
ATOM    114  H   ASP d   1      33.273 -26.027  -1.449  0.00  0.00     0.052 H 
BRANCH 112 115
ATOM    115  CG  ASP d   1      34.367 -27.149  -2.890  0.00  0.00     0.175 C 
ATOM    116  OD1 ASP d   1      34.607 -26.347  -3.823  0.00  0.00    -0.648 OA
ATOM    117  OD2 ASP d   1      35.118 -28.118  -2.626  0.00  0.00    -0.648 OA
ENDBRANCH 112 115
ENDBRANCH  78 112
ENDBRANCH  76  78
ENDBRANCH   1  74
TORSDOF 37
