REMARK WARNING: 32 MAX_TORS EXCEEDED!!!
REMARK  35 active torsions:
REMARK  status: ('A' for Active; 'I' for Inactive)
REMARK    1  A    between atoms: C_1  and  CH3_3 
REMARK       I    between atoms: C_1  and  N_4 
REMARK    2  A    between atoms: N_4  and  CA_5 
REMARK    3  A    between atoms: CA_5  and  C_6 
REMARK    4  A    between atoms: CA_5  and  CB_8 
REMARK       I    between atoms: C_6  and  N_10 
REMARK    5  A    between atoms: CB_8  and  OG_9 
REMARK    6  A    between atoms: N_10  and  CA_11 
REMARK    7  A    between atoms: CA_11  and  C_12 
REMARK    8  A    between atoms: CA_11  and  CB_14 
REMARK       I    between atoms: C_12  and  N_19 
REMARK    9  A    between atoms: CB_14  and  CG_15 
REMARK   10  A    between atoms: CG_15  and  CD_16 
REMARK   11  A    between atoms: CD_16  and  CE_17 
REMARK   12  A    between atoms: CE_17  and  NZ_18 
REMARK   13  A    between atoms: N_19  and  CA_20 
REMARK   14  A    between atoms: CA_20  and  C_21 
REMARK   15  A    between atoms: CA_20  and  CB_23 
REMARK       I    between atoms: C_21  and  N_25 
REMARK   16  A    between atoms: CB_23  and  OG_24 
REMARK   17  A    between atoms: N_25  and  CA_26 
REMARK   18  A    between atoms: CA_26  and  CB_27 
REMARK   19  A    between atoms: CA_26  and  C_34 
REMARK   20  A    between atoms: CB_27  and  CG_28 
REMARK   21  A    between atoms: CG_28  and  CD_29 
REMARK   22  A    between atoms: CD_29  and  CE_30 
REMARK   23  A    between atoms: CE_30  and  NZ_31 
REMARK   24  A    between atoms: NZ_31  and  CH1_32 
REMARK   25  A    between atoms: NZ_31  and  CH2_33 
REMARK       I    between atoms: C_34  and  N_36 
REMARK   26  A    between atoms: N_36  and  CA_37 
REMARK   27  A    between atoms: CA_37  and  C_38 
REMARK   28  A    between atoms: CA_37  and  CB_40 
REMARK       I    between atoms: C_38  and  N_44 
REMARK   29  A    between atoms: CB_40  and  CG_41 
REMARK   30  A    between atoms: N_44  and  CA_45 
REMARK   31  A    between atoms: CA_45  and  C_46 
REMARK   32  A    between atoms: CA_45  and  CB_48 
REMARK   33  A    between atoms: CB_48  and  CG_49 
REMARK   34  A    between atoms: CG_49  and  CD_50 
REMARK   35  A    between atoms: CD_50  and  NE_51 
REMARK       I    between atoms: NE_51  and  CZ_52 
REMARK       I    between atoms: CZ_52  and  NH1_53 
ROOT
ATOM      1  CA  MLY d   1      46.685 -12.928 -16.154  0.00  0.00     0.089 C 
ATOM      2  H   MLY d   1      47.590 -12.991 -16.758  0.00  0.00     0.087 H 
ENDROOT
BRANCH   1   3
ATOM      3  N   MLY d   1      46.813 -11.723 -15.331  0.00  0.00    -0.346 N 
ATOM      4  C   SER d   1      47.122 -10.540 -15.848  0.00  0.00     0.243 C 
ATOM      5  O   SER d   1      47.348 -10.364 -17.047  0.00  0.00    -0.271 OA
ATOM      6  H   MLY d   1      46.659 -11.796 -14.325  0.00  0.00     0.163 HD
BRANCH   4   7
ATOM      7  CA  SER d   1      47.215  -9.381 -14.864  0.00  0.00     0.109 C 
ATOM      8  H   SER d   1      47.699  -9.735 -13.954  0.00  0.00     0.090 H 
BRANCH   7   9
ATOM      9  N   SER d   1      48.016  -8.292 -15.426  0.00  0.00    -0.344 N 
ATOM     10  C   LYS d   1      48.673  -7.438 -14.649  0.00  0.00     0.241 C 
ATOM     11  O   LYS d   1      48.615  -7.452 -13.413  0.00  0.00    -0.271 OA
ATOM     12  H   SER d   1      48.071  -8.186 -16.439  0.00  0.00     0.163 HD
BRANCH  10  13
ATOM     13  CA  LYS d   1      49.542  -6.437 -15.397  0.00  0.00     0.089 C 
ATOM     14  H   LYS d   1      50.250  -6.992 -16.013  0.00  0.00     0.087 H 
BRANCH  13  15
ATOM     15  N   LYS d   1      48.728  -5.612 -16.282  0.00  0.00    -0.346 N 
ATOM     16  C   SER d   1      48.586  -5.935 -17.569  0.00  0.00     0.243 C 
ATOM     17  O   SER d   1      49.086  -6.943 -18.050  0.00  0.00    -0.271 OA
ATOM     18  H   LYS d   1      48.264  -4.782 -15.915  0.00  0.00     0.163 HD
BRANCH  16  19
ATOM     19  CA  SER d   1      47.766  -4.992 -18.445  0.00  0.00     0.109 C 
ATOM     20  H   SER d   1      47.765  -4.004 -17.985  0.00  0.00     0.090 H 
BRANCH  19  21
ATOM     21  N   SER d   1      48.366  -4.923 -19.766  0.00  0.00    -0.346 N 
ATOM     22  C   ACE d   1      49.530  -4.325 -19.914  0.00  0.00     0.214 C 
ATOM     23  O   ACE d   1      49.932  -3.532 -19.059  0.00  0.00    -0.274 OA
ATOM     24  H   SER d   1      47.891  -5.333 -20.570  0.00  0.00     0.163 HD
BRANCH  22  25
ATOM     25  CH3 ACE d   1      49.966  -4.217 -21.356  0.00  0.00    -0.003 C 
ATOM     26  H   ACE d   1      49.665  -3.248 -21.753  0.00  0.00     0.040 H 
ATOM     27  H   ACE d   1      51.050  -4.315 -21.415  0.00  0.00     0.040 H 
ATOM     28  H   ACE d   1      49.496  -5.011 -21.937  0.00  0.00     0.040 H 
ENDBRANCH  22  25
ENDBRANCH  19  21
BRANCH  19  29
ATOM     29  CB  SER d   1      46.317  -5.459 -18.556  0.00  0.00     0.044 C 
ATOM     30  H   SER d   1      46.121  -6.191 -17.772  0.00  0.00     0.077 H 
ATOM     31  H   SER d   1      46.163  -5.900 -19.541  0.00  0.00     0.077 H 
BRANCH  29  32
ATOM     32  OG  SER d   1      45.424  -4.365 -18.397  0.00  0.00    -0.398 OA
ATOM     33  H   SER d   1      45.557  -3.967 -17.534  0.00  0.00     0.209 HD
ENDBRANCH  29  32
ENDBRANCH  19  29
ENDBRANCH  16  19
ENDBRANCH  13  15
BRANCH  13  34
ATOM     34  CB  LYS d   1      50.355  -5.582 -14.427  0.00  0.00    -0.038 C 
ATOM     35  H   LYS d   1      51.020  -6.247 -13.876  0.00  0.00     0.036 H 
ATOM     36  H   LYS d   1      49.653  -5.052 -13.783  0.00  0.00     0.036 H 
BRANCH  34  37
ATOM     37  CG  LYS d   1      51.224  -4.532 -15.136  0.00  0.00    -0.061 C 
ATOM     38  H   LYS d   1      50.570  -3.804 -15.615  0.00  0.00     0.033 H 
ATOM     39  H   LYS d   1      51.852  -5.037 -15.870  0.00  0.00     0.033 H 
BRANCH  37  40
ATOM     40  CD  LYS d   1      52.122  -3.803 -14.143  0.00  0.00    -0.043 C 
ATOM     41  H   LYS d   1      52.870  -4.502 -13.768  0.00  0.00     0.035 H 
ATOM     42  H   LYS d   1      51.506  -3.420 -13.329  0.00  0.00     0.035 H 
BRANCH  40  43
ATOM     43  CE  LYS d   1      52.839  -2.626 -14.816  0.00  0.00     0.080 C 
ATOM     44  H   LYS d   1      52.101  -1.883 -15.117  0.00  0.00     0.075 H 
ATOM     45  H   LYS d   1      53.382  -2.990 -15.688  0.00  0.00     0.075 H 
BRANCH  43  46
ATOM     46  NZ  LYS d   1      53.803  -2.001 -13.865  0.00  0.00    -0.079 N 
ATOM     47  H   LYS d   1      54.273  -1.220 -14.323  0.00  0.00     0.274 HD
ATOM     48  H   LYS d   1      53.299  -1.662 -13.046  0.00  0.00     0.274 HD
ATOM     49  H   LYS d   1      54.494  -2.695 -13.578  0.00  0.00     0.274 HD
ENDBRANCH  43  46
ENDBRANCH  40  43
ENDBRANCH  37  40
ENDBRANCH  34  37
ENDBRANCH  13  34
ENDBRANCH  10  13
ENDBRANCH   7   9
BRANCH   7  50
ATOM     50  CB  SER d   1      45.835  -8.881 -14.537  0.00  0.00     0.044 C 
ATOM     51  H   SER d   1      45.902  -8.144 -13.737  0.00  0.00     0.077 H 
ATOM     52  H   SER d   1      45.216  -9.721 -14.223  0.00  0.00     0.077 H 
BRANCH  50  53
ATOM     53  OG  SER d   1      45.259  -8.283 -15.664  0.00  0.00    -0.398 OA
ATOM     54  H   SER d   1      45.803  -7.544 -15.946  0.00  0.00     0.209 HD
ENDBRANCH  50  53
ENDBRANCH   7  50
ENDBRANCH   4   7
ENDBRANCH   1   3
BRANCH   1  55
ATOM     55  CB  MLY d   1      46.532 -14.154 -15.265  0.00  0.00    -0.038 C 
ATOM     56  H   MLY d   1      46.343 -14.990 -15.938  0.00  0.00     0.036 H 
ATOM     57  H   MLY d   1      45.745 -13.910 -14.552  0.00  0.00     0.036 H 
BRANCH  55  58
ATOM     58  CG  MLY d   1      47.742 -14.552 -14.433  0.00  0.00    -0.061 C 
ATOM     59  H   MLY d   1      48.224 -13.658 -14.038  0.00  0.00     0.033 H 
ATOM     60  H   MLY d   1      48.452 -15.096 -15.056  0.00  0.00     0.033 H 
BRANCH  58  61
ATOM     61  CD  MLY d   1      47.286 -15.443 -13.277  0.00  0.00    -0.040 C 
ATOM     62  H   MLY d   1      46.966 -16.401 -13.686  0.00  0.00     0.035 H 
ATOM     63  H   MLY d   1      46.473 -14.939 -12.754  0.00  0.00     0.035 H 
BRANCH  61  64
ATOM     64  CE  MLY d   1      48.410 -15.694 -12.289  0.00  0.00     0.113 C 
ATOM     65  H   MLY d   1      48.744 -14.743 -11.875  0.00  0.00     0.079 H 
ATOM     66  H   MLY d   1      49.236 -16.186 -12.802  0.00  0.00     0.079 H 
BRANCH  64  67
ATOM     67  NZ  MLY d   1      47.934 -16.556 -11.199  0.00  0.00     0.080 N 
BRANCH  67  68
ATOM     68  CH1 MLY d   1      47.649 -17.940 -11.657  0.00  0.00     0.095 C 
ATOM     69  H   MLY d   1      46.879 -17.915 -12.428  0.00  0.00     0.071 H 
ATOM     70  H   MLY d   1      48.559 -18.381 -12.064  0.00  0.00     0.071 H 
ATOM     71  H   MLY d   1      47.300 -18.536 -10.813  0.00  0.00     0.071 H 
ENDBRANCH  67  68
BRANCH  67  72
ATOM     72  CH2 MLY d   1      48.891 -16.675 -10.113  0.00  0.00     0.095 C 
ATOM     73  H   MLY d   1      49.819 -17.102 -10.493  0.00  0.00     0.071 H 
ATOM     74  H   MLY d   1      49.088 -15.688  -9.694  0.00  0.00     0.071 H 
ATOM     75  H   MLY d   1      48.481 -17.324  -9.339  0.00  0.00     0.071 H 
ENDBRANCH  67  72
ENDBRANCH  64  67
ENDBRANCH  61  64
ENDBRANCH  58  61
ENDBRANCH  55  58
ENDBRANCH   1  55
BRANCH   1  76
ATOM     76  C   MLY d   1      45.490 -12.869 -17.073  0.00  0.00     0.241 C 
ATOM     77  O   MLY d   1      44.477 -12.238 -16.784  0.00  0.00    -0.271 OA
ATOM     78  N   ASP d   1      45.614 -13.503 -18.232  0.00  0.00    -0.346 N 
ATOM     79  H   ASP d   1      46.546 -13.727 -18.580  0.00  0.00     0.163 HD
BRANCH  78  80
ATOM     80  CA  ASP d   1      44.449 -13.887 -19.019  0.00  0.00     0.098 C 
ATOM     81  H   ASP d   1      44.837 -14.314 -19.944  0.00  0.00     0.088 H 
BRANCH  80  82
ATOM     82  C   ASP d   1      43.560 -12.722 -19.498  0.00  0.00     0.241 C 
ATOM     83  O   ASP d   1      42.349 -12.885 -19.655  0.00  0.00    -0.271 OA
ATOM     84  N   ARG d   1      44.120 -11.543 -19.755  0.00  0.00    -0.345 N 
ATOM     85  H   ARG d   1      45.112 -11.375 -19.590  0.00  0.00     0.163 HD
BRANCH  84  86
ATOM     86  CA  ARG d   1      43.241 -10.496 -20.287  0.00  0.00     0.096 C 
ATOM     87  H   ARG d   1      42.344 -10.509 -19.668  0.00  0.00     0.089 H 
BRANCH  86  88
ATOM     88  C   ARG d   1      42.872 -10.789 -21.741  0.00  0.00     0.196 C 
ATOM     89  O   ARG d   1      43.719 -11.322 -22.507  0.00  0.00    -0.646 OA
ATOM     90  O   ARG d   1      41.724 -10.498 -22.172  0.00  0.00    -0.646 OA
ENDBRANCH  86  88
BRANCH  86  91
ATOM     91  CB  ARG d   1      43.845  -9.088 -20.179  0.00  0.00    -0.035 C 
ATOM     92  H   ARG d   1      44.766  -9.047 -20.761  0.00  0.00     0.036 H 
ATOM     93  H   ARG d   1      44.056  -8.867 -19.133  0.00  0.00     0.036 H 
BRANCH  91  94
ATOM     94  CG  ARG d   1      42.861  -8.056 -20.722  0.00  0.00    -0.047 C 
ATOM     95  H   ARG d   1      41.907  -8.237 -20.228  0.00  0.00     0.035 H 
ATOM     96  H   ARG d   1      42.842  -8.175 -21.805  0.00  0.00     0.035 H 
BRANCH  94  97
ATOM     97  CD  ARG d   1      43.236  -6.618 -20.443  0.00  0.00     0.009 C 
ATOM     98  H   ARG d   1      43.990  -6.296 -21.161  0.00  0.00     0.064 H 
ATOM     99  H   ARG d   1      43.633  -6.539 -19.431  0.00  0.00     0.064 H 
BRANCH  97 100
ATOM    100  NE  ARG d   1      42.052  -5.764 -20.568  0.00  0.00    -0.227 N 
ATOM    101  CZ  ARG d   1      41.984  -4.497 -20.150  0.00  0.00     0.665 C 
ATOM    102  NH1 ARG d   1      43.040  -3.912 -19.583  0.00  0.00    -0.235 N 
ATOM    103  NH2 ARG d   1      40.857  -3.804 -20.296  0.00  0.00    -0.235 N 
ATOM    104  H   ARG d   1      43.909  -4.433 -19.465  0.00  0.00     0.174 HD
ATOM    105  H   ARG d   1      42.978  -2.944 -19.267  0.00  0.00     0.174 HD
ATOM    106  H   ARG d   1      40.042  -4.240 -20.728  0.00  0.00     0.174 HD
ATOM    107  H   ARG d   1      40.808  -2.837 -19.976  0.00  0.00     0.174 HD
ATOM    108  H   ARG d   1      41.222  -6.165 -21.005  0.00  0.00     0.177 HD
ENDBRANCH  97 100
ENDBRANCH  94  97
ENDBRANCH  91  94
ENDBRANCH  86  91
ENDBRANCH  84  86
ENDBRANCH  80  82
BRANCH  80 109
ATOM    109  CB  ASP d   1      43.622 -14.944 -18.230  0.00  0.00     0.043 C 
ATOM    110  H   ASP d   1      43.033 -14.411 -17.483  0.00  0.00     0.052 H 
ATOM    111  H   ASP d   1      44.325 -15.656 -17.797  0.00  0.00     0.052 H 
BRANCH 109 112
ATOM    112  CG  ASP d   1      42.645 -15.735 -19.114  0.00  0.00     0.175 C 
ATOM    113  OD1 ASP d   1      43.088 -16.289 -20.139  0.00  0.00    -0.648 OA
ATOM    114  OD2 ASP d   1      41.429 -15.781 -18.799  0.00  0.00    -0.648 OA
ENDBRANCH 109 112
ENDBRANCH  80 109
ENDBRANCH  78  80
ENDBRANCH   1  76
TORSDOF 35
