REMARK WARNING: 32 MAX_TORS EXCEEDED!!!
REMARK  45 active torsions:
REMARK  status: ('A' for Active; 'I' for Inactive)
REMARK    1  A    between atoms: C_1  and  CH3_3 
REMARK       I    between atoms: C_1  and  N_4 
REMARK    2  A    between atoms: N_4  and  CA_5 
REMARK    3  A    between atoms: CA_5  and  C_6 
REMARK    4  A    between atoms: CA_5  and  CB_8 
REMARK       I    between atoms: C_6  and  N_10 
REMARK    5  A    between atoms: CB_8  and  OG_9 
REMARK    6  A    between atoms: N_10  and  CA_11 
REMARK    7  A    between atoms: CA_11  and  C_12 
REMARK    8  A    between atoms: CA_11  and  CB_14 
REMARK       I    between atoms: C_12  and  N_19 
REMARK    9  A    between atoms: CB_14  and  CG_15 
REMARK   10  A    between atoms: CG_15  and  CD_16 
REMARK   11  A    between atoms: CD_16  and  CE_17 
REMARK   12  A    between atoms: CE_17  and  NZ_18 
REMARK   13  A    between atoms: N_19  and  CA_20 
REMARK   14  A    between atoms: CA_20  and  C_21 
REMARK   15  A    between atoms: CA_20  and  CB_23 
REMARK       I    between atoms: C_21  and  N_25 
REMARK   16  A    between atoms: CB_23  and  OG_24 
REMARK   17  A    between atoms: N_25  and  CA_26 
REMARK   18  A    between atoms: CA_26  and  C_27 
REMARK   19  A    between atoms: CA_26  and  CB_29 
REMARK       I    between atoms: C_27  and  N_34 
REMARK   20  A    between atoms: CB_29  and  CG_30 
REMARK   21  A    between atoms: CG_30  and  CD_31 
REMARK   22  A    between atoms: CD_31  and  CE_32 
REMARK   23  A    between atoms: CE_32  and  NZ_33 
REMARK   24  A    between atoms: N_34  and  CA_35 
REMARK   25  A    between atoms: CA_35  and  C_36 
REMARK   26  A    between atoms: CA_35  and  CB_38 
REMARK       I    between atoms: C_36  and  N_42 
REMARK   27  A    between atoms: CB_38  and  CG_39 
REMARK   28  A    between atoms: N_42  and  CA_43 
REMARK   29  A    between atoms: CA_43  and  C_44 
REMARK   30  A    between atoms: CA_43  and  CB_46 
REMARK       I    between atoms: C_44  and  N_53 
REMARK   31  A    between atoms: CB_46  and  CG_47 
REMARK   32  A    between atoms: CG_47  and  CD_48 
REMARK   33  A    between atoms: CD_48  and  NE_49 
REMARK       I    between atoms: NE_49  and  CZ_50 
REMARK       I    between atoms: CZ_50  and  NH1_51 
REMARK   34  A    between atoms: N_53  and  CA_54 
REMARK   35  A    between atoms: CA_54  and  C_55 
REMARK   36  A    between atoms: CA_54  and  CB_57 
REMARK       I    between atoms: C_55  and  N_62 
REMARK   37  A    between atoms: CB_57  and  CG_58 
REMARK   38  A    between atoms: CG_58  and  CD_59 
REMARK   39  A    between atoms: CD_59  and  CE_60 
REMARK   40  A    between atoms: CE_60  and  NZ_61 
REMARK   41  A    between atoms: N_62  and  CA_63 
REMARK   42  A    between atoms: CA_63  and  C_64 
REMARK   43  A    between atoms: CA_63  and  CB_66 
REMARK   44  A    between atoms: CB_66  and  CG_67 
REMARK   45  A    between atoms: CZ_72  and  OH_73 
ROOT
ATOM      1  CA  ASP d   1      31.733 -26.873  -2.808  0.00  0.00     0.098 C 
ATOM      2  H   ASP d   1      31.924 -26.310  -3.722  0.00  0.00     0.088 H 
ENDROOT
BRANCH   1   3
ATOM      3  N   ASP d   1      30.806 -26.040  -2.045  0.00  0.00    -0.346 N 
ATOM      4  C   LYS d   1      30.344 -26.456  -0.858  0.00  0.00     0.241 C 
ATOM      5  O   LYS d   1      30.413 -27.665  -0.515  0.00  0.00    -0.271 OA
ATOM      6  H   ASP d   1      30.509 -25.138  -2.418  0.00  0.00     0.163 HD
BRANCH   4   7
ATOM      7  CA  LYS d   1      29.692 -25.391   0.020  0.00  0.00     0.089 C 
ATOM      8  H   LYS d   1      29.276 -24.630  -0.640  0.00  0.00     0.087 H 
BRANCH   7   9
ATOM      9  N   LYS d   1      28.578 -25.938   0.830  0.00  0.00    -0.346 N 
ATOM     10  C   SER d   1      27.405 -26.277   0.305  0.00  0.00     0.243 C 
ATOM     11  O   SER d   1      27.119 -26.162  -0.892  0.00  0.00    -0.271 OA
ATOM     12  H   LYS d   1      28.717 -26.059   1.833  0.00  0.00     0.163 HD
BRANCH  10  13
ATOM     13  CA  SER d   1      26.372 -26.829   1.289  0.00  0.00     0.109 C 
ATOM     14  H   SER d   1      26.453 -26.285   2.230  0.00  0.00     0.090 H 
BRANCH  13  15
ATOM     15  N   SER d   1      25.014 -26.645   0.723  0.00  0.00    -0.344 N 
ATOM     16  C   LYS d   1      23.986 -26.336   1.496  0.00  0.00     0.241 C 
ATOM     17  O   LYS d   1      24.063 -26.210   2.725  0.00  0.00    -0.271 OA
ATOM     18  H   SER d   1      24.870 -26.759  -0.280  0.00  0.00     0.163 HD
BRANCH  16  19
ATOM     19  CA  LYS d   1      22.659 -26.140   0.747  0.00  0.00     0.089 C 
ATOM     20  H   LYS d   1      22.716 -25.245   0.128  0.00  0.00     0.087 H 
BRANCH  19  21
ATOM     21  N   LYS d   1      22.418 -27.289  -0.106  0.00  0.00    -0.346 N 
ATOM     22  C   SER d   1      22.769 -27.230  -1.384  0.00  0.00     0.243 C 
ATOM     23  O   SER d   1      23.334 -26.253  -1.844  0.00  0.00    -0.271 OA
ATOM     24  H   LYS d   1      21.984 -28.131   0.272  0.00  0.00     0.163 HD
BRANCH  22  25
ATOM     25  CA  SER d   1      22.451 -28.427  -2.264  0.00  0.00     0.109 C 
ATOM     26  H   SER d   1      21.528 -28.876  -1.898  0.00  0.00     0.090 H 
BRANCH  25  27
ATOM     27  N   SER d   1      22.257 -28.015  -3.657  0.00  0.00    -0.346 N 
ATOM     28  C   ACE d   1      21.048 -27.765  -4.172  0.00  0.00     0.214 C 
ATOM     29  O   ACE d   1      20.070 -27.549  -3.444  0.00  0.00    -0.274 OA
ATOM     30  H   SER d   1      23.076 -27.915  -4.257  0.00  0.00     0.163 HD
BRANCH  28  31
ATOM     31  CH3 ACE d   1      21.068 -27.399  -5.646  0.00  0.00    -0.003 C 
ATOM     32  H   ACE d   1      20.266 -27.928  -6.161  0.00  0.00     0.040 H 
ATOM     33  H   ACE d   1      20.924 -26.324  -5.754  0.00  0.00     0.040 H 
ATOM     34  H   ACE d   1      22.028 -27.683  -6.077  0.00  0.00     0.040 H 
ENDBRANCH  28  31
ENDBRANCH  25  27
BRANCH  25  35
ATOM     35  CB  SER d   1      23.571 -29.445  -2.192  0.00  0.00     0.044 C 
ATOM     36  H   SER d   1      24.014 -29.403  -1.197  0.00  0.00     0.077 H 
ATOM     37  H   SER d   1      24.304 -29.209  -2.964  0.00  0.00     0.077 H 
BRANCH  35  38
ATOM     38  OG  SER d   1      23.089 -30.763  -2.416  0.00  0.00    -0.398 OA
ATOM     39  H   SER d   1      22.435 -30.981  -1.748  0.00  0.00     0.209 HD
ENDBRANCH  35  38
ENDBRANCH  25  35
ENDBRANCH  22  25
ENDBRANCH  19  21
BRANCH  19  40
ATOM     40  CB  LYS d   1      21.515 -25.954   1.744  0.00  0.00    -0.038 C 
ATOM     41  H   LYS d   1      21.660 -25.003   2.257  0.00  0.00     0.036 H 
ATOM     42  H   LYS d   1      21.525 -26.796   2.436  0.00  0.00     0.036 H 
BRANCH  40  43
ATOM     43  CG  LYS d   1      20.134 -25.920   1.042  0.00  0.00    -0.061 C 
ATOM     44  H   LYS d   1      19.833 -26.941   0.807  0.00  0.00     0.033 H 
ATOM     45  H   LYS d   1      20.215 -25.324   0.133  0.00  0.00     0.033 H 
BRANCH  43  46
ATOM     46  CD  LYS d   1      19.077 -25.289   1.957  0.00  0.00    -0.043 C 
ATOM     47  H   LYS d   1      19.366 -24.265   2.195  0.00  0.00     0.035 H 
ATOM     48  H   LYS d   1      19.001 -25.868   2.877  0.00  0.00     0.035 H 
BRANCH  46  49
ATOM     49  CE  LYS d   1      17.712 -25.284   1.238  0.00  0.00     0.080 C 
ATOM     50  H   LYS d   1      17.530 -26.248   0.764  0.00  0.00     0.075 H 
ATOM     51  H   LYS d   1      17.697 -24.523   0.458  0.00  0.00     0.075 H 
BRANCH  49  52
ATOM     52  NZ  LYS d   1      16.668 -25.003   2.253  0.00  0.00    -0.079 N 
ATOM     53  H   LYS d   1      15.752 -24.994   1.804  0.00  0.00     0.274 HD
ATOM     54  H   LYS d   1      16.689 -25.728   2.970  0.00  0.00     0.274 HD
ATOM     55  H   LYS d   1      16.847 -24.095   2.681  0.00  0.00     0.274 HD
ENDBRANCH  49  52
ENDBRANCH  46  49
ENDBRANCH  43  46
ENDBRANCH  40  43
ENDBRANCH  19  40
ENDBRANCH  16  19
ENDBRANCH  13  15
BRANCH  13  56
ATOM     56  CB  SER d   1      26.628 -28.294   1.577  0.00  0.00     0.044 C 
ATOM     57  H   SER d   1      25.871 -28.623   2.289  0.00  0.00     0.077 H 
ATOM     58  H   SER d   1      27.648 -28.379   1.951  0.00  0.00     0.077 H 
BRANCH  56  59
ATOM     59  OG  SER d   1      26.524 -29.135   0.423  0.00  0.00    -0.398 OA
ATOM     60  H   SER d   1      25.639 -29.066   0.057  0.00  0.00     0.209 HD
ENDBRANCH  56  59
ENDBRANCH  13  56
ENDBRANCH  10  13
ENDBRANCH   7   9
BRANCH   7  61
ATOM     61  CB  LYS d   1      30.747 -24.771   0.947  0.00  0.00    -0.038 C 
ATOM     62  H   LYS d   1      31.523 -24.363   0.299  0.00  0.00     0.036 H 
ATOM     63  H   LYS d   1      31.061 -25.563   1.627  0.00  0.00     0.036 H 
BRANCH  61  64
ATOM     64  CG  LYS d   1      30.283 -23.648   1.801  0.00  0.00    -0.061 C 
ATOM     65  H   LYS d   1      29.350 -23.956   2.273  0.00  0.00     0.033 H 
ATOM     66  H   LYS d   1      30.172 -22.771   1.163  0.00  0.00     0.033 H 
BRANCH  64  67
ATOM     67  CD  LYS d   1      31.276 -23.287   2.921  0.00  0.00    -0.043 C 
ATOM     68  H   LYS d   1      32.038 -22.608   2.540  0.00  0.00     0.035 H 
ATOM     69  H   LYS d   1      31.771 -24.187   3.286  0.00  0.00     0.035 H 
BRANCH  67  70
ATOM     70  CE  LYS d   1      30.494 -22.616   4.061  0.00  0.00     0.080 C 
ATOM     71  H   LYS d   1      29.926 -23.420   4.528  0.00  0.00     0.075 H 
ATOM     72  H   LYS d   1      29.949 -21.799   3.589  0.00  0.00     0.075 H 
BRANCH  70  73
ATOM     73  NZ  LYS d   1      31.264 -21.978   5.182  0.00  0.00    -0.079 N 
ATOM     74  H   LYS d   1      30.612 -21.578   5.857  0.00  0.00     0.274 HD
ATOM     75  H   LYS d   1      31.840 -22.683   5.641  0.00  0.00     0.274 HD
ATOM     76  H   LYS d   1      31.861 -21.241   4.807  0.00  0.00     0.274 HD
ENDBRANCH  70  73
ENDBRANCH  67  70
ENDBRANCH  64  67
ENDBRANCH  61  64
ENDBRANCH   7  61
ENDBRANCH   4   7
ENDBRANCH   1   3
BRANCH   1  77
ATOM     77  C   ASP d   1      31.192 -28.204  -3.254  0.00  0.00     0.241 C 
ATOM     78  O   ASP d   1      31.931 -29.174  -3.358  0.00  0.00    -0.271 OA
ATOM     79  N   ARG d   1      29.890 -28.298  -3.527  0.00  0.00    -0.346 N 
ATOM     80  H   ARG d   1      29.247 -27.532  -3.329  0.00  0.00     0.163 HD
BRANCH  79  81
ATOM     81  CA  ARG d   1      29.433 -29.536  -4.116  0.00  0.00     0.089 C 
ATOM     82  H   ARG d   1      29.886 -30.376  -3.590  0.00  0.00     0.087 H 
BRANCH  81  83
ATOM     83  C   ARG d   1      29.836 -29.545  -5.588  0.00  0.00     0.241 C 
ATOM     84  O   ARG d   1      29.907 -28.492  -6.232  0.00  0.00    -0.271 OA
ATOM     85  N   LYS d   1      30.132 -30.709  -6.138  0.00  0.00    -0.346 N 
ATOM     86  H   LYS d   1      30.150 -31.567  -5.586  0.00  0.00     0.163 HD
BRANCH  85  87
ATOM     87  CA  LYS d   1      30.435 -30.721  -7.576  0.00  0.00     0.089 C 
ATOM     88  H   LYS d   1      30.860 -29.764  -7.879  0.00  0.00     0.087 H 
BRANCH  87  89
ATOM     89  C   LYS d   1      29.135 -30.950  -8.338  0.00  0.00     0.241 C 
ATOM     90  O   LYS d   1      28.541 -32.031  -8.255  0.00  0.00    -0.271 OA
ATOM     91  N   TYR d   1      28.676 -29.921  -9.049  0.00  0.00    -0.344 N 
ATOM     92  H   TYR d   1      29.218 -29.058  -9.086  0.00  0.00     0.163 HD
BRANCH  91  93
ATOM     93  CA  TYR d   1      27.408 -30.005  -9.778  0.00  0.00     0.100 C 
ATOM     94  H   TYR d   1      26.765 -30.713  -9.255  0.00  0.00     0.090 H 
BRANCH  93  95
ATOM     95  C   TYR d   1      27.610 -30.531 -11.190  0.00  0.00     0.197 C 
ATOM     96  O   TYR d   1      28.767 -30.549 -11.688  0.00  0.00    -0.646 OA
ATOM     97  O   TYR d   1      26.626 -30.946 -11.858  0.00  0.00    -0.646 OA
ENDBRANCH  93  95
BRANCH  93  98
ATOM     98  CB  TYR d   1      26.722 -28.642  -9.801  0.00  0.00    -0.013 C 
ATOM     99  H   TYR d   1      25.818 -28.726 -10.405  0.00  0.00     0.043 H 
ATOM    100  H   TYR d   1      27.423 -27.915 -10.212  0.00  0.00     0.043 H 
BRANCH  98 101
ATOM    101  CG  TYR d   1      26.324 -28.183  -8.416  0.00  0.00    -0.056 A 
ATOM    102  CD1 TYR d   1      25.372 -28.893  -7.672  0.00  0.00    -0.074 A 
ATOM    103  CE1 TYR d   1      25.008 -28.482  -6.382  0.00  0.00    -0.051 A 
ATOM    104  H   TYR d   1      24.907 -29.779  -8.103  0.00  0.00     0.084 H 
ATOM    105  CZ  TYR d   1      25.600 -27.351  -5.847  0.00  0.00     0.065 A 
ATOM    106  H   TYR d   1      24.270 -29.044  -5.809  0.00  0.00     0.087 H 
ATOM    107  CE2 TYR d   1      26.551 -26.634  -6.562  0.00  0.00    -0.051 A 
ATOM    108  CD2 TYR d   1      26.907 -27.050  -7.839  0.00  0.00    -0.074 A 
ATOM    109  H   TYR d   1      27.015 -25.750  -6.124  0.00  0.00     0.087 H 
ATOM    110  H   TYR d   1      27.652 -26.485  -8.400  0.00  0.00     0.084 H 
BRANCH 105 111
ATOM    111  OH  TYR d   1      25.247 -26.933  -4.593  0.00  0.00    -0.361 OA
ATOM    112  H   TYR d   1      26.022 -26.935  -4.026  0.00  0.00     0.217 HD
ENDBRANCH 105 111
ENDBRANCH  98 101
ENDBRANCH  93  98
ENDBRANCH  91  93
ENDBRANCH  87  89
BRANCH  87 113
ATOM    113  CB  LYS d   1      31.490 -31.782  -7.904  0.00  0.00    -0.038 C 
ATOM    114  H   LYS d   1      31.817 -31.639  -8.934  0.00  0.00     0.036 H 
ATOM    115  H   LYS d   1      31.047 -32.768  -7.763  0.00  0.00     0.036 H 
BRANCH 113 116
ATOM    116  CG  LYS d   1      32.714 -31.658  -6.979  0.00  0.00    -0.061 C 
ATOM    117  H   LYS d   1      33.545 -32.205  -7.423  0.00  0.00     0.033 H 
ATOM    118  H   LYS d   1      32.457 -32.066  -6.002  0.00  0.00     0.033 H 
BRANCH 116 119
ATOM    119  CD  LYS d   1      33.131 -30.172  -6.805  0.00  0.00    -0.043 C 
ATOM    120  H   LYS d   1      32.336 -29.655  -6.268  0.00  0.00     0.035 H 
ATOM    121  H   LYS d   1      33.297 -29.745  -7.794  0.00  0.00     0.035 H 
BRANCH 119 122
ATOM    122  CE  LYS d   1      34.425 -30.033  -5.999  0.00  0.00     0.080 C 
ATOM    123  H   LYS d   1      35.034 -30.914  -6.202  0.00  0.00     0.075 H 
ATOM    124  H   LYS d   1      34.149 -29.929  -4.950  0.00  0.00     0.075 H 
BRANCH 122 125
ATOM    125  NZ  LYS d   1      35.244 -28.813  -6.379  0.00  0.00    -0.079 N 
ATOM    126  H   LYS d   1      36.088 -28.780  -5.808  0.00  0.00     0.274 HD
ATOM    127  H   LYS d   1      35.501 -28.871  -7.364  0.00  0.00     0.274 HD
ATOM    128  H   LYS d   1      34.691 -27.971  -6.220  0.00  0.00     0.274 HD
ENDBRANCH 122 125
ENDBRANCH 119 122
ENDBRANCH 116 119
ENDBRANCH 113 116
ENDBRANCH  87 113
ENDBRANCH  85  87
ENDBRANCH  81  83
BRANCH  81 129
ATOM    129  CB  ARG d   1      27.918 -29.665  -3.998  0.00  0.00    -0.036 C 
ATOM    130  H   ARG d   1      27.459 -28.864  -4.578  0.00  0.00     0.036 H 
ATOM    131  H   ARG d   1      27.650 -29.605  -2.943  0.00  0.00     0.036 H 
BRANCH 129 132
ATOM    132  CG  ARG d   1      27.425 -30.986  -4.539  0.00  0.00    -0.048 C 
ATOM    133  H   ARG d   1      27.974 -31.803  -4.071  0.00  0.00     0.035 H 
ATOM    134  H   ARG d   1      27.584 -31.024  -5.617  0.00  0.00     0.035 H 
BRANCH 132 135
ATOM    135  CD  ARG d   1      25.963 -31.121  -4.238  0.00  0.00     0.009 C 
ATOM    136  H   ARG d   1      25.457 -30.257  -4.668  0.00  0.00     0.064 H 
ATOM    137  H   ARG d   1      25.854 -31.189  -3.156  0.00  0.00     0.064 H 
BRANCH 135 138
ATOM    138  NE  ARG d   1      25.363 -32.318  -4.818  0.00  0.00    -0.227 N 
ATOM    139  CZ  ARG d   1      24.899 -32.389  -6.069  0.00  0.00     0.665 C 
ATOM    140  NH1 ARG d   1      25.005 -31.343  -6.888  0.00  0.00    -0.235 N 
ATOM    141  NH2 ARG d   1      24.340 -33.517  -6.516  0.00  0.00    -0.235 N 
ATOM    142  H   ARG d   1      25.442 -30.482  -6.561  0.00  0.00     0.174 HD
ATOM    143  H   ARG d   1      24.649 -31.404  -7.842  0.00  0.00     0.174 HD
ATOM    144  H   ARG d   1      24.266 -34.328  -5.902  0.00  0.00     0.174 HD
ATOM    145  H   ARG d   1      23.987 -33.567  -7.472  0.00  0.00     0.174 HD
ATOM    146  H   ARG d   1      25.294 -33.151  -4.233  0.00  0.00     0.177 HD
ENDBRANCH 135 138
ENDBRANCH 132 135
ENDBRANCH 129 132
ENDBRANCH  81 129
ENDBRANCH  79  81
ENDBRANCH   1  77
BRANCH   1 147
ATOM    147  CB  ASP d   1      33.035 -27.105  -1.987  0.00  0.00     0.043 C 
ATOM    148  H   ASP d   1      32.882 -27.980  -1.355  0.00  0.00     0.052 H 
ATOM    149  H   ASP d   1      33.233 -26.202  -1.410  0.00  0.00     0.052 H 
BRANCH 147 150
ATOM    150  CG  ASP d   1      34.240 -27.370  -2.869  0.00  0.00     0.175 C 
ATOM    151  OD1 ASP d   1      34.419 -26.618  -3.868  0.00  0.00    -0.648 OA
ATOM    152  OD2 ASP d   1      35.021 -28.305  -2.572  0.00  0.00    -0.648 OA
ENDBRANCH 147 150
ENDBRANCH   1 147
TORSDOF 45
