REMARK WARNING: 32 MAX_TORS EXCEEDED!!!
REMARK  46 active torsions:
REMARK  status: ('A' for Active; 'I' for Inactive)
REMARK    1  A    between atoms: C_1  and  CH3_3 
REMARK       I    between atoms: C_1  and  N_4 
REMARK    2  A    between atoms: N_4  and  CA_5 
REMARK    3  A    between atoms: CA_5  and  C_6 
REMARK    4  A    between atoms: CA_5  and  CB_8 
REMARK       I    between atoms: C_6  and  N_10 
REMARK    5  A    between atoms: CB_8  and  OG_9 
REMARK    6  A    between atoms: N_10  and  CA_11 
REMARK    7  A    between atoms: CA_11  and  C_12 
REMARK    8  A    between atoms: CA_11  and  CB_14 
REMARK       I    between atoms: C_12  and  N_19 
REMARK    9  A    between atoms: CB_14  and  CG_15 
REMARK   10  A    between atoms: CG_15  and  CD_16 
REMARK   11  A    between atoms: CD_16  and  CE_17 
REMARK   12  A    between atoms: CE_17  and  NZ_18 
REMARK   13  A    between atoms: N_19  and  CA_20 
REMARK   14  A    between atoms: CA_20  and  C_21 
REMARK   15  A    between atoms: CA_20  and  CB_23 
REMARK       I    between atoms: C_21  and  N_25 
REMARK   16  A    between atoms: CB_23  and  OG_24 
REMARK   17  A    between atoms: N_25  and  CA_26 
REMARK   18  A    between atoms: CA_26  and  CB_27 
REMARK   19  A    between atoms: CA_26  and  C_33 
REMARK   20  A    between atoms: CB_27  and  CG_28 
REMARK   21  A    between atoms: CG_28  and  CD_29 
REMARK   22  A    between atoms: CD_29  and  CE_30 
REMARK   23  A    between atoms: CE_30  and  NZ_31 
REMARK   24  A    between atoms: NZ_31  and  CM_32 
REMARK       I    between atoms: C_33  and  N_35 
REMARK   25  A    between atoms: N_35  and  CA_36 
REMARK   26  A    between atoms: CA_36  and  C_37 
REMARK   27  A    between atoms: CA_36  and  CB_39 
REMARK       I    between atoms: C_37  and  N_43 
REMARK   28  A    between atoms: CB_39  and  CG_40 
REMARK   29  A    between atoms: N_43  and  CA_44 
REMARK   30  A    between atoms: CA_44  and  C_45 
REMARK   31  A    between atoms: CA_44  and  CB_47 
REMARK       I    between atoms: C_45  and  N_51 
REMARK   32  A    between atoms: CB_47  and  CG_48 
REMARK   33  A    between atoms: CG_48  and  CD_49 
REMARK   34  A    between atoms: CD_49  and  NE_50 
REMARK   35  A    between atoms: N_51  and  CA_52 
REMARK   36  A    between atoms: CA_52  and  C_53 
REMARK   37  A    between atoms: CA_52  and  CB_55 
REMARK       I    between atoms: C_53  and  N_60 
REMARK   38  A    between atoms: CB_55  and  CG_56 
REMARK   39  A    between atoms: CG_56  and  CD_57 
REMARK   40  A    between atoms: CD_57  and  CE_58 
REMARK   41  A    between atoms: CE_58  and  NZ_59 
REMARK   42  A    between atoms: N_60  and  CA_61 
REMARK   43  A    between atoms: CA_61  and  C_62 
REMARK   44  A    between atoms: CA_61  and  CB_64 
REMARK   45  A    between atoms: CB_64  and  CG_65 
REMARK   46  A    between atoms: CZ_70  and  OH_71 
ROOT
ATOM      1  C   MLZ d   1     -37.817  12.661   1.217  0.00  0.00     0.241 C 
ATOM      2  O   MLZ d   1     -38.871  12.200   0.781  0.00  0.00    -0.271 OA
ATOM      3  N   ASP d   1     -37.727  13.259   2.405  0.00  0.00    -0.346 N 
ATOM      4  H   ASP d   1     -36.809  13.377   2.833  0.00  0.00     0.163 HD
ENDROOT
BRANCH   1   5
ATOM      5  CA  MLZ d   1     -36.541  12.600   0.415  0.00  0.00     0.089 C 
ATOM      6  H   MLZ d   1     -35.668  12.528   1.064  0.00  0.00     0.087 H 
BRANCH   5   7
ATOM      7  N   MLZ d   1     -36.470  11.438  -0.431  0.00  0.00    -0.346 N 
ATOM      8  C   SER d   1     -36.130  10.249   0.037  0.00  0.00     0.243 C 
ATOM      9  O   SER d   1     -35.920  10.030   1.231  0.00  0.00    -0.271 OA
ATOM     10  H   MLZ d   1     -36.689  11.535  -1.423  0.00  0.00     0.163 HD
BRANCH   8  11
ATOM     11  CA  SER d   1     -36.014   9.142  -0.985  0.00  0.00     0.109 C 
ATOM     12  H   SER d   1     -35.586   9.522  -1.913  0.00  0.00     0.090 H 
BRANCH  11  13
ATOM     13  N   SER d   1     -35.123   8.101  -0.457  0.00  0.00    -0.344 N 
ATOM     14  C   LYS d   1     -34.440   7.290  -1.252  0.00  0.00     0.241 C 
ATOM     15  O   LYS d   1     -34.472   7.366  -2.483  0.00  0.00    -0.271 OA
ATOM     16  H   SER d   1     -35.027   7.999   0.553  0.00  0.00     0.163 HD
BRANCH  14  17
ATOM     17  CA  LYS d   1     -33.574   6.250  -0.524  0.00  0.00     0.089 C 
ATOM     18  H   LYS d   1     -32.820   6.793   0.046  0.00  0.00     0.087 H 
BRANCH  17  19
ATOM     19  N   LYS d   1     -34.384   5.471   0.405  0.00  0.00    -0.346 N 
ATOM     20  C   SER d   1     -34.538   5.876   1.665  0.00  0.00     0.243 C 
ATOM     21  O   SER d   1     -34.078   6.928   2.091  0.00  0.00    -0.271 OA
ATOM     22  H   LYS d   1     -34.835   4.612   0.089  0.00  0.00     0.163 HD
BRANCH  20  23
ATOM     23  CA  SER d   1     -35.334   4.971   2.573  0.00  0.00     0.109 C 
ATOM     24  H   SER d   1     -35.227   3.939   2.239  0.00  0.00     0.090 H 
BRANCH  23  25
ATOM     25  N   SER d   1     -34.839   5.162   3.919  0.00  0.00    -0.346 N 
ATOM     26  C   ACE d   1     -33.972   4.268   4.321  0.00  0.00     0.214 C 
ATOM     27  O   ACE d   1     -33.404   3.587   3.463  0.00  0.00    -0.274 OA
ATOM     28  H   SER d   1     -35.143   5.936   4.510  0.00  0.00     0.163 HD
BRANCH  26  29
ATOM     29  CH3 ACE d   1     -33.546   4.410   5.757  0.00  0.00    -0.003 C 
ATOM     30  H   ACE d   1     -33.553   3.430   6.235  0.00  0.00     0.040 H 
ATOM     31  H   ACE d   1     -32.540   4.828   5.797  0.00  0.00     0.040 H 
ATOM     32  H   ACE d   1     -34.237   5.074   6.276  0.00  0.00     0.040 H 
ENDBRANCH  26  29
ENDBRANCH  23  25
BRANCH  23  33
ATOM     33  CB  SER d   1     -36.802   5.335   2.552  0.00  0.00     0.044 C 
ATOM     34  H   SER d   1     -37.305   4.819   1.734  0.00  0.00     0.077 H 
ATOM     35  H   SER d   1     -36.920   6.408   2.401  0.00  0.00     0.077 H 
BRANCH  33  36
ATOM     36  OG  SER d   1     -37.372   4.950   3.796  0.00  0.00    -0.398 OA
ATOM     37  H   SER d   1     -38.306   5.173   3.802  0.00  0.00     0.209 HD
ENDBRANCH  33  36
ENDBRANCH  23  33
ENDBRANCH  20  23
ENDBRANCH  17  19
BRANCH  17  38
ATOM     38  CB  LYS d   1     -32.813   5.337  -1.503  0.00  0.00    -0.038 C 
ATOM     39  H   LYS d   1     -32.314   5.982  -2.226  0.00  0.00     0.036 H 
ATOM     40  H   LYS d   1     -33.541   4.657  -1.945  0.00  0.00     0.036 H 
BRANCH  38  41
ATOM     41  CG  LYS d   1     -31.719   4.466  -0.830  0.00  0.00    -0.061 C 
ATOM     42  H   LYS d   1     -32.203   3.679  -0.253  0.00  0.00     0.033 H 
ATOM     43  H   LYS d   1     -31.111   5.102  -0.186  0.00  0.00     0.033 H 
BRANCH  41  44
ATOM     44  CD  LYS d   1     -30.815   3.821  -1.879  0.00  0.00    -0.043 C 
ATOM     45  H   LYS d   1     -30.182   4.587  -2.328  0.00  0.00     0.035 H 
ATOM     46  H   LYS d   1     -31.432   3.353  -2.646  0.00  0.00     0.035 H 
BRANCH  44  47
ATOM     47  CE  LYS d   1     -29.935   2.761  -1.225  0.00  0.00     0.080 C 
ATOM     48  H   LYS d   1     -29.263   3.225  -0.503  0.00  0.00     0.075 H 
ATOM     49  H   LYS d   1     -29.329   2.259  -1.979  0.00  0.00     0.075 H 
BRANCH  47  50
ATOM     50  NZ  LYS d   1     -30.822   1.777  -0.542  0.00  0.00    -0.079 N 
ATOM     51  H   LYS d   1     -30.251   1.058  -0.097  0.00  0.00     0.274 HD
ATOM     52  H   LYS d   1     -31.379   2.257   0.165  0.00  0.00     0.274 HD
ATOM     53  H   LYS d   1     -31.441   1.345  -1.228  0.00  0.00     0.274 HD
ENDBRANCH  47  50
ENDBRANCH  44  47
ENDBRANCH  41  44
ENDBRANCH  38  41
ENDBRANCH  17  38
ENDBRANCH  14  17
ENDBRANCH  11  13
BRANCH  11  54
ATOM     54  CB  SER d   1     -37.405   8.592  -1.319  0.00  0.00     0.044 C 
ATOM     55  H   SER d   1     -37.276   7.789  -2.045  0.00  0.00     0.077 H 
ATOM     56  H   SER d   1     -38.005   9.421  -1.694  0.00  0.00     0.077 H 
BRANCH  54  57
ATOM     57  OG  SER d   1     -38.079   8.049  -0.196  0.00  0.00    -0.398 OA
ATOM     58  H   SER d   1     -37.562   7.327   0.168  0.00  0.00     0.209 HD
ENDBRANCH  54  57
ENDBRANCH  11  54
ENDBRANCH   8  11
ENDBRANCH   5   7
BRANCH   5  59
ATOM     59  CB  MLZ d   1     -36.573  13.879  -0.430  0.00  0.00    -0.038 C 
ATOM     60  H   MLZ d   1     -36.623  14.727   0.253  0.00  0.00     0.036 H 
ATOM     61  H   MLZ d   1     -37.435  13.817  -1.095  0.00  0.00     0.036 H 
BRANCH  59  62
ATOM     62  CG  MLZ d   1     -35.333  14.051  -1.293  0.00  0.00    -0.061 C 
ATOM     63  H   MLZ d   1     -35.075  13.155  -1.857  0.00  0.00     0.033 H 
ATOM     64  H   MLZ d   1     -34.427  14.228  -0.713  0.00  0.00     0.033 H 
BRANCH  62  65
ATOM     65  CD  MLZ d   1     -35.718  15.232  -2.182  0.00  0.00    -0.043 C 
ATOM     66  H   MLZ d   1     -35.383  16.137  -1.674  0.00  0.00     0.035 H 
ATOM     67  H   MLZ d   1     -36.795  15.176  -2.339  0.00  0.00     0.035 H 
BRANCH  65  68
ATOM     68  CE  MLZ d   1     -35.074  15.224  -3.538  0.00  0.00     0.081 C 
ATOM     69  H   MLZ d   1     -35.240  14.248  -3.994  0.00  0.00     0.075 H 
ATOM     70  H   MLZ d   1     -34.011  15.432  -3.417  0.00  0.00     0.075 H 
BRANCH  68  71
ATOM     71  NZ  MLZ d   1     -35.658  16.260  -4.421  0.00  0.00    -0.079 N 
ATOM     72  H   MLZ d   1     -35.989  17.060  -3.881  0.00  0.00     0.276 HD
ATOM     73  H   MLZ d   1     -36.470  15.901  -4.923  0.00  0.00     0.276 HD
BRANCH  71  74
ATOM     74  CM  MLZ d   1     -34.593  16.652  -5.349  0.00  0.00     0.065 C 
ATOM     75  H   MLZ d   1     -33.748  17.047  -4.785  0.00  0.00     0.067 H 
ATOM     76  H   MLZ d   1     -34.274  15.781  -5.922  0.00  0.00     0.067 H 
ATOM     77  H   MLZ d   1     -34.968  17.418  -6.028  0.00  0.00     0.067 H 
ENDBRANCH  71  74
ENDBRANCH  68  71
ENDBRANCH  65  68
ENDBRANCH  62  65
ENDBRANCH  59  62
ENDBRANCH   5  59
ENDBRANCH   1   5
BRANCH   3  78
ATOM     78  CA  ASP d   1     -38.924  13.756   3.118  0.00  0.00     0.098 C 
ATOM     79  H   ASP d   1     -38.557  14.227   4.030  0.00  0.00     0.088 H 
BRANCH  78  80
ATOM     80  C   ASP d   1     -39.880  12.670   3.575  0.00  0.00     0.241 C 
ATOM     81  O   ASP d   1     -41.080  12.908   3.670  0.00  0.00    -0.271 OA
ATOM     82  N   ARG d   1     -39.369  11.471   3.861  0.00  0.00    -0.346 N 
ATOM     83  H   ARG d   1     -38.384  11.273   3.684  0.00  0.00     0.163 HD
BRANCH  82  84
ATOM     84  CA  ARG d   1     -40.240  10.447   4.431  0.00  0.00     0.089 C 
ATOM     85  H   ARG d   1     -41.185  10.456   3.888  0.00  0.00     0.087 H 
BRANCH  84  86
ATOM     86  C   ARG d   1     -40.501  10.760   5.902  0.00  0.00     0.241 C 
ATOM     87  O   ARG d   1     -39.631  11.285   6.593  0.00  0.00    -0.271 OA
ATOM     88  N   LYS d   1     -41.701  10.458   6.386  0.00  0.00    -0.346 N 
ATOM     89  H   LYS d   1     -42.453  10.155   5.767  0.00  0.00     0.163 HD
BRANCH  88  90
ATOM     90  CA  LYS d   1     -41.916  10.571   7.828  0.00  0.00     0.089 C 
ATOM     91  H   LYS d   1     -41.368  11.439   8.196  0.00  0.00     0.087 H 
BRANCH  90  92
ATOM     92  C   LYS d   1     -41.377   9.317   8.513  0.00  0.00     0.241 C 
ATOM     93  O   LYS d   1     -41.783   8.191   8.197  0.00  0.00    -0.271 OA
ATOM     94  N   TYR d   1     -40.410   9.510   9.397  0.00  0.00    -0.344 N 
ATOM     95  H   TYR d   1     -40.075  10.459   9.563  0.00  0.00     0.163 HD
BRANCH  94  96
ATOM     96  CA  TYR d   1     -39.810   8.409  10.140  0.00  0.00     0.100 C 
ATOM     97  H   TYR d   1     -40.026   7.466   9.637  0.00  0.00     0.090 H 
BRANCH  96  98
ATOM     98  C   TYR d   1     -40.396   8.381  11.547  0.00  0.00     0.197 C 
ATOM     99  O   TYR d   1     -40.902   9.426  12.036  0.00  0.00    -0.646 OA
ATOM    100  O   TYR d   1     -40.374   7.316  12.219  0.00  0.00    -0.646 OA
ENDBRANCH  96  98
BRANCH  96 101
ATOM    101  CB  TYR d   1     -38.295   8.589  10.205  0.00  0.00    -0.013 C 
ATOM    102  H   TYR d   1     -37.894   7.806  10.849  0.00  0.00     0.043 H 
ATOM    103  H   TYR d   1     -38.094   9.592  10.582  0.00  0.00     0.043 H 
BRANCH 101 104
ATOM    104  CG  TYR d   1     -37.631   8.462   8.855  0.00  0.00    -0.056 A 
ATOM    105  CD1 TYR d   1     -37.574   7.232   8.213  0.00  0.00    -0.074 A 
ATOM    106  CE1 TYR d   1     -36.983   7.094   6.974  0.00  0.00    -0.051 A 
ATOM    107  H   TYR d   1     -38.005   6.357   8.698  0.00  0.00     0.084 H 
ATOM    108  CZ  TYR d   1     -36.430   8.194   6.356  0.00  0.00     0.065 A 
ATOM    109  H   TYR d   1     -36.954   6.120   6.487  0.00  0.00     0.087 H 
ATOM    110  CE2 TYR d   1     -36.461   9.436   6.963  0.00  0.00    -0.051 A 
ATOM    111  CD2 TYR d   1     -37.063   9.566   8.218  0.00  0.00    -0.074 A 
ATOM    112  H   TYR d   1     -36.022  10.303   6.469  0.00  0.00     0.087 H 
ATOM    113  H   TYR d   1     -37.089  10.541   8.705  0.00  0.00     0.084 H 
BRANCH 108 114
ATOM    114  OH  TYR d   1     -35.857   8.017   5.124  0.00  0.00    -0.361 OA
ATOM    115  H   TYR d   1     -36.310   8.566   4.480  0.00  0.00     0.217 HD
ENDBRANCH 108 114
ENDBRANCH 101 104
ENDBRANCH  96 101
ENDBRANCH  94  96
ENDBRANCH  90  92
BRANCH  90 116
ATOM    116  CB  LYS d   1     -43.384  10.836   8.180  0.00  0.00    -0.038 C 
ATOM    117  H   LYS d   1     -43.906   9.879   8.163  0.00  0.00     0.036 H 
ATOM    118  H   LYS d   1     -43.774  11.550   7.455  0.00  0.00     0.036 H 
BRANCH 116 119
ATOM    119  CG  LYS d   1     -43.570  11.446   9.583  0.00  0.00    -0.061 C 
ATOM    120  H   LYS d   1     -42.647  11.958   9.854  0.00  0.00     0.033 H 
ATOM    121  H   LYS d   1     -43.813  10.638  10.273  0.00  0.00     0.033 H 
BRANCH 119 122
ATOM    122  CD  LYS d   1     -44.714  12.471   9.626  0.00  0.00    -0.043 C 
ATOM    123  H   LYS d   1     -45.633  11.963   9.334  0.00  0.00     0.035 H 
ATOM    124  H   LYS d   1     -44.460  13.289   8.952  0.00  0.00     0.035 H 
BRANCH 122 125
ATOM    125  CE  LYS d   1     -44.921  13.061  11.037  0.00  0.00     0.080 C 
ATOM    126  H   LYS d   1     -43.944  13.362  11.415  0.00  0.00     0.075 H 
ATOM    127  H   LYS d   1     -45.402  12.296  11.647  0.00  0.00     0.075 H 
BRANCH 125 128
ATOM    128  NZ  LYS d   1     -45.801  14.267  11.049  0.00  0.00    -0.079 N 
ATOM    129  H   LYS d   1     -45.897  14.607  12.006  0.00  0.00     0.274 HD
ATOM    130  H   LYS d   1     -45.385  14.995  10.469  0.00  0.00     0.274 HD
ATOM    131  H   LYS d   1     -46.719  14.020  10.681  0.00  0.00     0.274 HD
ENDBRANCH 125 128
ENDBRANCH 122 125
ENDBRANCH 119 122
ENDBRANCH 116 119
ENDBRANCH  90 116
ENDBRANCH  88  90
ENDBRANCH  84  86
BRANCH  84 132
ATOM    132  CB  ARG d   1     -39.636   9.040   4.271  0.00  0.00    -0.036 C 
ATOM    133  H   ARG d   1     -38.785   8.957   4.947  0.00  0.00     0.036 H 
ATOM    134  H   ARG d   1     -39.347   8.912   3.228  0.00  0.00     0.036 H 
BRANCH 132 135
ATOM    135  CG  ARG d   1     -40.621   7.954   4.622  0.00  0.00    -0.041 C 
ATOM    136  H   ARG d   1     -41.541   8.132   4.066  0.00  0.00     0.035 H 
ATOM    137  H   ARG d   1     -40.790   7.978   5.699  0.00  0.00     0.035 H 
BRANCH 135 138
ATOM    138  CD  ARG d   1     -40.100   6.590   4.254  0.00  0.00     0.080 C 
ATOM    139  H   ARG d   1     -39.197   6.390   4.830  0.00  0.00     0.075 H 
ATOM    140  H   ARG d   1     -39.887   6.571   3.185  0.00  0.00     0.075 H 
BRANCH 138 141
ATOM    141  NE  ARG d   1     -41.091   5.560   4.557  0.00  0.00    -0.079 N 
ATOM    142  H   ARG d   1     -40.719   4.646   4.301  0.00  0.00     0.274 HD
ATOM    143  H   ARG d   1     -41.301   5.575   5.555  0.00  0.00     0.274 HD
ATOM    144  H   ARG d   1     -41.943   5.743   4.026  0.00  0.00     0.274 HD
ENDBRANCH 138 141
ENDBRANCH 135 138
ENDBRANCH 132 135
ENDBRANCH  84 132
ENDBRANCH  82  84
ENDBRANCH  78  80
BRANCH  78 145
ATOM    145  CB  ASP d   1     -39.670  14.779   2.231  0.00  0.00     0.043 C 
ATOM    146  H   ASP d   1     -40.332  14.219   1.571  0.00  0.00     0.052 H 
ATOM    147  H   ASP d   1     -38.918  15.362   1.700  0.00  0.00     0.052 H 
BRANCH 145 148
ATOM    148  CG  ASP d   1     -40.537  15.762   3.028  0.00  0.00     0.175 C 
ATOM    149  OD1 ASP d   1     -40.031  16.375   3.991  0.00  0.00    -0.648 OA
ATOM    150  OD2 ASP d   1     -41.724  15.970   2.650  0.00  0.00    -0.648 OA
ENDBRANCH 145 148
ENDBRANCH  78 145
ENDBRANCH   3  78
TORSDOF 46
