REMARK WARNING: 32 MAX_TORS EXCEEDED!!!
REMARK  43 active torsions:
REMARK  status: ('A' for Active; 'I' for Inactive)
REMARK    1  A    between atoms: C_1  and  CH3_3 
REMARK       I    between atoms: C_1  and  N_4 
REMARK    2  A    between atoms: N_4  and  CA_5 
REMARK    3  A    between atoms: CA_5  and  C_6 
REMARK    4  A    between atoms: CA_5  and  CB_8 
REMARK       I    between atoms: C_6  and  N_10 
REMARK    5  A    between atoms: CB_8  and  OG_9 
REMARK    6  A    between atoms: N_10  and  CA_11 
REMARK    7  A    between atoms: CA_11  and  C_12 
REMARK    8  A    between atoms: CA_11  and  CB_14 
REMARK       I    between atoms: C_12  and  N_19 
REMARK    9  A    between atoms: CB_14  and  CG_15 
REMARK   10  A    between atoms: CG_15  and  CD_16 
REMARK   11  A    between atoms: CD_16  and  CE_17 
REMARK   12  A    between atoms: CE_17  and  NZ_18 
REMARK   13  A    between atoms: N_19  and  CA_20 
REMARK   14  A    between atoms: CA_20  and  C_21 
REMARK   15  A    between atoms: CA_20  and  CB_23 
REMARK       I    between atoms: C_21  and  N_25 
REMARK   16  A    between atoms: CB_23  and  OG_24 
REMARK   17  A    between atoms: N_25  and  CA_26 
REMARK   18  A    between atoms: CA_26  and  CB_27 
REMARK   19  A    between atoms: CA_26  and  C_34 
REMARK   20  A    between atoms: CB_27  and  CG_28 
REMARK   21  A    between atoms: CG_28  and  CD_29 
REMARK   22  A    between atoms: CD_29  and  CE_30 
REMARK   23  A    between atoms: CE_30  and  NZ_31 
REMARK   24  A    between atoms: NZ_31  and  CH1_32 
REMARK   25  A    between atoms: NZ_31  and  CH2_33 
REMARK       I    between atoms: C_34  and  N_36 
REMARK   26  A    between atoms: N_36  and  CA_37 
REMARK   27  A    between atoms: CA_37  and  C_38 
REMARK   28  A    between atoms: CA_37  and  CB_40 
REMARK       I    between atoms: C_38  and  N_44 
REMARK   29  A    between atoms: CB_40  and  CG_41 
REMARK   30  A    between atoms: N_44  and  CA_45 
REMARK   31  A    between atoms: CA_45  and  C_46 
REMARK   32  A    between atoms: CA_45  and  CB_48 
REMARK       I    between atoms: C_46  and  N_55 
REMARK   33  A    between atoms: CB_48  and  CG_49 
REMARK   34  A    between atoms: CG_49  and  CD_50 
REMARK   35  A    between atoms: CD_50  and  NE_51 
REMARK       I    between atoms: NE_51  and  CZ_52 
REMARK       I    between atoms: CZ_52  and  NH1_53 
REMARK   36  A    between atoms: N_55  and  CA_56 
REMARK   37  A    between atoms: CA_56  and  C_57 
REMARK   38  A    between atoms: CA_56  and  CB_59 
REMARK       I    between atoms: C_57  and  N_60 
REMARK   39  A    between atoms: N_60  and  CA_61 
REMARK   40  A    between atoms: CA_61  and  C_62 
REMARK   41  A    between atoms: CA_61  and  CB_64 
REMARK   42  A    between atoms: CB_64  and  CG_65 
REMARK   43  A    between atoms: CZ_70  and  OH_71 
ROOT
ATOM      1  CA  MLY d   1      34.626 -33.973  16.151  0.00  0.00     0.089 C 
ATOM      2  H   MLY d   1      35.013 -34.728  16.836  0.00  0.00     0.087 H 
ENDROOT
BRANCH   1   3
ATOM      3  N   MLY d   1      33.613 -34.645  15.317  0.00  0.00    -0.346 N 
ATOM      4  C   SER d   1      32.716 -35.476  15.825  0.00  0.00     0.243 C 
ATOM      5  O   SER d   1      32.671 -35.776  17.032  0.00  0.00    -0.271 OA
ATOM      6  H   MLY d   1      33.603 -34.463  14.313  0.00  0.00     0.163 HD
BRANCH   4   7
ATOM      7  CA  SER d   1      31.751 -36.123  14.813  0.00  0.00     0.109 C 
ATOM      8  H   SER d   1      32.293 -36.343  13.893  0.00  0.00     0.090 H 
BRANCH   7   9
ATOM      9  N   SER d   1      31.223 -37.367  15.386  0.00  0.00    -0.344 N 
ATOM     10  C   LYS d   1      30.910 -38.408  14.629  0.00  0.00     0.241 C 
ATOM     11  O   LYS d   1      31.033 -38.416  13.401  0.00  0.00    -0.271 OA
ATOM     12  H   SER d   1      31.093 -37.432  16.396  0.00  0.00     0.163 HD
BRANCH  10  13
ATOM     13  CA  LYS d   1      30.426 -39.654  15.407  0.00  0.00     0.089 C 
ATOM     14  H   LYS d   1      31.265 -40.051  15.978  0.00  0.00     0.087 H 
BRANCH  13  15
ATOM     15  N   LYS d   1      29.376 -39.297  16.346  0.00  0.00    -0.346 N 
ATOM     16  C   SER d   1      29.671 -38.982  17.604  0.00  0.00     0.243 C 
ATOM     17  O   SER d   1      30.821 -38.933  18.008  0.00  0.00    -0.271 OA
ATOM     18  H   LYS d   1      28.404 -39.288  16.038  0.00  0.00     0.163 HD
BRANCH  16  19
ATOM     19  CA  SER d   1      28.501 -38.649  18.524  0.00  0.00     0.109 C 
ATOM     20  H   SER d   1      27.668 -39.261  18.180  0.00  0.00     0.090 H 
BRANCH  19  21
ATOM     21  N   SER d   1      28.735 -39.016  19.923  0.00  0.00    -0.346 N 
ATOM     22  C   ACE d   1      28.364 -40.235  20.367  0.00  0.00     0.214 C 
ATOM     23  O   ACE d   1      28.177 -41.192  19.589  0.00  0.00    -0.274 OA
ATOM     24  H   SER d   1      29.177 -38.352  20.559  0.00  0.00     0.163 HD
BRANCH  22  25
ATOM     25  CH3 ACE d   1      28.426 -40.404  21.870  0.00  0.00    -0.003 C 
ATOM     26  H   ACE d   1      27.483 -40.819  22.227  0.00  0.00     0.040 H 
ATOM     27  H   ACE d   1      29.242 -41.080  22.125  0.00  0.00     0.040 H 
ATOM     28  H   ACE d   1      28.597 -39.434  22.337  0.00  0.00     0.040 H 
ENDBRANCH  22  25
ENDBRANCH  19  21
BRANCH  19  29
ATOM     29  CB  SER d   1      28.119 -37.182  18.414  0.00  0.00     0.044 C 
ATOM     30  H   SER d   1      28.327 -36.826  17.405  0.00  0.00     0.077 H 
ATOM     31  H   SER d   1      28.699 -36.600  19.130  0.00  0.00     0.077 H 
BRANCH  29  32
ATOM     32  OG  SER d   1      26.729 -37.032  18.694  0.00  0.00    -0.398 OA
ATOM     33  H   SER d   1      26.219 -37.545  18.062  0.00  0.00     0.209 HD
ENDBRANCH  29  32
ENDBRANCH  19  29
ENDBRANCH  16  19
ENDBRANCH  13  15
BRANCH  13  34
ATOM     34  CB  LYS d   1      29.955 -40.748  14.439  0.00  0.00    -0.038 C 
ATOM     35  H   LYS d   1      30.827 -41.092  13.883  0.00  0.00     0.036 H 
ATOM     36  H   LYS d   1      29.180 -40.315  13.806  0.00  0.00     0.036 H 
BRANCH  34  37
ATOM     37  CG  LYS d   1      29.343 -41.976  15.150  0.00  0.00    -0.061 C 
ATOM     38  H   LYS d   1      28.353 -41.713  15.522  0.00  0.00     0.033 H 
ATOM     39  H   LYS d   1      29.994 -42.270  15.973  0.00  0.00     0.033 H 
BRANCH  37  40
ATOM     40  CD  LYS d   1      29.213 -43.148  14.177  0.00  0.00    -0.043 C 
ATOM     41  H   LYS d   1      30.161 -43.260  13.651  0.00  0.00     0.035 H 
ATOM     42  H   LYS d   1      28.389 -42.934  13.496  0.00  0.00     0.035 H 
BRANCH  40  43
ATOM     43  CE  LYS d   1      28.906 -44.472  14.902  0.00  0.00     0.080 C 
ATOM     44  H   LYS d   1      29.771 -44.755  15.502  0.00  0.00     0.075 H 
ATOM     45  H   LYS d   1      28.686 -45.239  14.159  0.00  0.00     0.075 H 
BRANCH  43  46
ATOM     46  NZ  LYS d   1      27.731 -44.318  15.796  0.00  0.00    -0.079 N 
ATOM     47  H   LYS d   1      27.544 -45.204  16.266  0.00  0.00     0.274 HD
ATOM     48  H   LYS d   1      27.926 -43.598  16.491  0.00  0.00     0.274 HD
ATOM     49  H   LYS d   1      26.918 -44.047  15.243  0.00  0.00     0.274 HD
ENDBRANCH  43  46
ENDBRANCH  40  43
ENDBRANCH  37  40
ENDBRANCH  34  37
ENDBRANCH  13  34
ENDBRANCH  10  13
ENDBRANCH   7   9
BRANCH   7  50
ATOM     50  CB  SER d   1      30.621 -35.181  14.462  0.00  0.00     0.044 C 
ATOM     51  H   SER d   1      29.960 -35.691  13.761  0.00  0.00     0.077 H 
ATOM     52  H   SER d   1      31.054 -34.276  14.036  0.00  0.00     0.077 H 
BRANCH  50  53
ATOM     53  OG  SER d   1      29.851 -34.809  15.610  0.00  0.00    -0.398 OA
ATOM     54  H   SER d   1      29.471 -35.596  16.008  0.00  0.00     0.209 HD
ENDBRANCH  50  53
ENDBRANCH   7  50
ENDBRANCH   4   7
ENDBRANCH   1   3
BRANCH   1  55
ATOM     55  CB  MLY d   1      35.722 -33.404  15.264  0.00  0.00    -0.038 C 
ATOM     56  H   MLY d   1      36.459 -32.945  15.923  0.00  0.00     0.036 H 
ATOM     57  H   MLY d   1      35.244 -32.713  14.570  0.00  0.00     0.036 H 
BRANCH  55  58
ATOM     58  CG  MLY d   1      36.459 -34.442  14.424  0.00  0.00    -0.061 C 
ATOM     59  H   MLY d   1      35.729 -34.918  13.769  0.00  0.00     0.033 H 
ATOM     60  H   MLY d   1      36.939 -35.143  15.108  0.00  0.00     0.033 H 
BRANCH  58  61
ATOM     61  CD  MLY d   1      37.551 -33.831  13.540  0.00  0.00    -0.040 C 
ATOM     62  H   MLY d   1      38.302 -34.591  13.325  0.00  0.00     0.035 H 
ATOM     63  H   MLY d   1      38.004 -32.989  14.064  0.00  0.00     0.035 H 
BRANCH  61  64
ATOM     64  CE  MLY d   1      36.960 -33.343  12.243  0.00  0.00     0.113 C 
ATOM     65  H   MLY d   1      36.336 -32.480  12.477  0.00  0.00     0.079 H 
ATOM     66  H   MLY d   1      36.416 -34.178  11.802  0.00  0.00     0.079 H 
BRANCH  64  67
ATOM     67  NZ  MLY d   1      37.960 -32.903  11.256  0.00  0.00     0.080 N 
BRANCH  67  68
ATOM     68  CH1 MLY d   1      37.218 -32.152  10.210  0.00  0.00     0.095 C 
ATOM     69  H   MLY d   1      36.478 -32.807   9.750  0.00  0.00     0.071 H 
ATOM     70  H   MLY d   1      36.716 -31.298  10.665  0.00  0.00     0.071 H 
ATOM     71  H   MLY d   1      37.917 -31.802   9.450  0.00  0.00     0.071 H 
ENDBRANCH  67  68
BRANCH  67  72
ATOM     72  CH2 MLY d   1      38.758 -33.939  10.607  0.00  0.00     0.095 C 
ATOM     73  H   MLY d   1      39.317 -34.492  11.362  0.00  0.00     0.071 H 
ATOM     74  H   MLY d   1      38.099 -34.621  10.070  0.00  0.00     0.071 H 
ATOM     75  H   MLY d   1      39.452 -33.475   9.906  0.00  0.00     0.071 H 
ENDBRANCH  67  72
ENDBRANCH  64  67
ENDBRANCH  61  64
ENDBRANCH  58  61
ENDBRANCH  55  58
ENDBRANCH   1  55
BRANCH   1  76
ATOM     76  C   MLY d   1      34.060 -32.844  16.964  0.00  0.00     0.241 C 
ATOM     77  O   MLY d   1      33.085 -32.178  16.576  0.00  0.00    -0.271 OA
ATOM     78  N   ASP d   1      34.650 -32.623  18.142  0.00  0.00    -0.346 N 
ATOM     79  H   ASP d   1      35.247 -33.343  18.549  0.00  0.00     0.163 HD
BRANCH  78  80
ATOM     80  CA  ASP d   1      34.450 -31.355  18.861  0.00  0.00     0.098 C 
ATOM     81  H   ASP d   1      35.058 -31.423  19.763  0.00  0.00     0.088 H 
BRANCH  80  82
ATOM     82  C   ASP d   1      33.022 -31.126  19.330  0.00  0.00     0.241 C 
ATOM     83  O   ASP d   1      32.586 -29.981  19.434  0.00  0.00    -0.271 OA
ATOM     84  N   ARG d   1      32.271 -32.189  19.647  0.00  0.00    -0.346 N 
ATOM     85  H   ARG d   1      32.613 -33.135  19.478  0.00  0.00     0.163 HD
BRANCH  84  86
ATOM     86  CA  ARG d   1      30.959 -31.971  20.237  0.00  0.00     0.089 C 
ATOM     87  H   ARG d   1      30.460 -31.181  19.675  0.00  0.00     0.087 H 
BRANCH  86  88
ATOM     88  C   ARG d   1      31.144 -31.563  21.693  0.00  0.00     0.241 C 
ATOM     89  O   ARG d   1      32.073 -32.018  22.354  0.00  0.00    -0.271 OA
ATOM     90  N   LYS d   1      30.284 -30.677  22.177  0.00  0.00    -0.346 N 
ATOM     91  H   LYS d   1      29.602 -30.248  21.552  0.00  0.00     0.163 HD
BRANCH  90  92
ATOM     92  CA  LYS d   1      30.296 -30.303  23.596  0.00  0.00     0.086 C 
ATOM     93  H   LYS d   1      31.320 -30.256  23.965  0.00  0.00     0.086 H 
BRANCH  92  94
ATOM     94  C   LYS d   1      29.495 -31.362  24.362  0.00  0.00     0.240 C 
ATOM     95  O   LYS d   1      28.269 -31.408  24.241  0.00  0.00    -0.271 OA
ATOM     96  N   TYR d   1      30.183 -32.233  25.101  0.00  0.00    -0.344 N 
ATOM     97  H   TYR d   1      31.202 -32.217  25.070  0.00  0.00     0.163 HD
BRANCH  96  98
ATOM     98  CA  TYR d   1      29.507 -33.214  25.958  0.00  0.00     0.100 C 
ATOM     99  H   TYR d   1      28.515 -33.388  25.541  0.00  0.00     0.090 H 
BRANCH  98 100
ATOM    100  C   TYR d   1      29.368 -32.669  27.381  0.00  0.00     0.197 C 
ATOM    101  O   TYR d   1      29.061 -31.464  27.585  0.00  0.00    -0.646 OA
ATOM    102  O   TYR d   1      29.564 -33.435  28.362  0.00  0.00    -0.646 OA
ENDBRANCH  98 100
BRANCH  98 103
ATOM    103  CB  TYR d   1      30.253 -34.559  25.978  0.00  0.00    -0.013 C 
ATOM    104  H   TYR d   1      29.659 -35.249  26.578  0.00  0.00     0.043 H 
ATOM    105  H   TYR d   1      31.250 -34.370  26.376  0.00  0.00     0.043 H 
BRANCH 103 106
ATOM    106  CG  TYR d   1      30.427 -35.187  24.614  0.00  0.00    -0.056 A 
ATOM    107  CD1 TYR d   1      29.333 -35.737  23.931  0.00  0.00    -0.074 A 
ATOM    108  CE1 TYR d   1      29.491 -36.313  22.677  0.00  0.00    -0.051 A 
ATOM    109  H   TYR d   1      28.345 -35.712  24.390  0.00  0.00     0.084 H 
ATOM    110  CZ  TYR d   1      30.754 -36.334  22.097  0.00  0.00     0.065 A 
ATOM    111  H   TYR d   1      28.636 -36.743  22.155  0.00  0.00     0.087 H 
ATOM    112  CE2 TYR d   1      31.851 -35.800  22.754  0.00  0.00    -0.051 A 
ATOM    113  CD2 TYR d   1      31.684 -35.231  24.003  0.00  0.00    -0.074 A 
ATOM    114  H   TYR d   1      32.837 -35.828  22.290  0.00  0.00     0.087 H 
ATOM    115  H   TYR d   1      32.546 -34.810  24.520  0.00  0.00     0.084 H 
BRANCH 110 116
ATOM    116  OH  TYR d   1      30.923 -36.887  20.866  0.00  0.00    -0.361 OA
ATOM    117  H   TYR d   1      31.264 -36.223  20.262  0.00  0.00     0.217 HD
ENDBRANCH 110 116
ENDBRANCH 103 106
ENDBRANCH  98 103
ENDBRANCH  96  98
ENDBRANCH  92  94
BRANCH  92 118
ATOM    118  CB  LYS d   1      29.664 -28.920  23.791  0.00  0.00    -0.049 C 
ATOM    119  H   LYS d   1      30.229 -28.180  23.224  0.00  0.00     0.030 H 
ATOM    120  H   LYS d   1      28.633 -28.940  23.438  0.00  0.00     0.030 H 
ATOM    121  H   LYS d   1      29.682 -28.660  24.849  0.00  0.00     0.030 H 
ENDBRANCH  92 118
ENDBRANCH  90  92
ENDBRANCH  86  88
BRANCH  86 122
ATOM    122  CB  ARG d   1      30.052 -33.215  20.144  0.00  0.00    -0.036 C 
ATOM    123  H   ARG d   1      30.418 -33.963  20.847  0.00  0.00     0.036 H 
ATOM    124  H   ARG d   1      30.077 -33.586  19.119  0.00  0.00     0.036 H 
BRANCH 122 125
ATOM    125  CG  ARG d   1      28.608 -32.880  20.502  0.00  0.00    -0.048 C 
ATOM    126  H   ARG d   1      28.306 -32.034  19.885  0.00  0.00     0.035 H 
ATOM    127  H   ARG d   1      28.576 -32.673  21.572  0.00  0.00     0.035 H 
BRANCH 125 128
ATOM    128  CD  ARG d   1      27.628 -34.022  20.226  0.00  0.00     0.009 C 
ATOM    129  H   ARG d   1      27.770 -34.798  20.979  0.00  0.00     0.064 H 
ATOM    130  H   ARG d   1      27.817 -34.415  19.227  0.00  0.00     0.064 H 
BRANCH 128 131
ATOM    131  NE  ARG d   1      26.240 -33.543  20.293  0.00  0.00    -0.227 N 
ATOM    132  CZ  ARG d   1      25.183 -34.207  19.810  0.00  0.00     0.665 C 
ATOM    133  NH1 ARG d   1      25.346 -35.388  19.206  0.00  0.00    -0.235 N 
ATOM    134  NH2 ARG d   1      23.955 -33.694  19.923  0.00  0.00    -0.235 N 
ATOM    135  H   ARG d   1      26.280 -35.788  19.111  0.00  0.00     0.174 HD
ATOM    136  H   ARG d   1      24.537 -35.889  18.840  0.00  0.00     0.174 HD
ATOM    137  H   ARG d   1      23.819 -32.792  20.379  0.00  0.00     0.174 HD
ATOM    138  H   ARG d   1      23.153 -34.204  19.553  0.00  0.00     0.174 HD
ATOM    139  H   ARG d   1      26.070 -32.641  20.739  0.00  0.00     0.177 HD
ENDBRANCH 128 131
ENDBRANCH 125 128
ENDBRANCH 122 125
ENDBRANCH  86 122
ENDBRANCH  84  86
ENDBRANCH  80  82
BRANCH  80 140
ATOM    140  CB  ASP d   1      34.918 -30.157  17.976  0.00  0.00     0.043 C 
ATOM    141  H   ASP d   1      34.078 -29.857  17.350  0.00  0.00     0.052 H 
ATOM    142  H   ASP d   1      35.781 -30.487  17.397  0.00  0.00     0.052 H 
BRANCH 140 143
ATOM    143  CG  ASP d   1      35.347 -28.936  18.803  0.00  0.00     0.175 C 
ATOM    144  OD1 ASP d   1      36.068 -29.115  19.807  0.00  0.00    -0.648 OA
ATOM    145  OD2 ASP d   1      34.969 -27.793  18.453  0.00  0.00    -0.648 OA
ENDBRANCH 140 143
ENDBRANCH  80 140
ENDBRANCH  78  80
ENDBRANCH   1  76
TORSDOF 43
