REMARK WARNING: 32 MAX_TORS EXCEEDED!!!
REMARK  44 active torsions:
REMARK  status: ('A' for Active; 'I' for Inactive)
REMARK    1  A    between atoms: C_1  and  CH3_3 
REMARK       I    between atoms: C_1  and  N_4 
REMARK    2  A    between atoms: N_4  and  CA_5 
REMARK    3  A    between atoms: CA_5  and  C_6 
REMARK    4  A    between atoms: CA_5  and  CB_8 
REMARK       I    between atoms: C_6  and  N_10 
REMARK    5  A    between atoms: CB_8  and  OG_9 
REMARK    6  A    between atoms: N_10  and  CA_11 
REMARK    7  A    between atoms: CA_11  and  C_12 
REMARK    8  A    between atoms: CA_11  and  CB_14 
REMARK       I    between atoms: C_12  and  N_19 
REMARK    9  A    between atoms: CB_14  and  CG_15 
REMARK   10  A    between atoms: CG_15  and  CD_16 
REMARK   11  A    between atoms: CD_16  and  CE_17 
REMARK   12  A    between atoms: CE_17  and  NZ_18 
REMARK   13  A    between atoms: N_19  and  CA_20 
REMARK   14  A    between atoms: CA_20  and  C_21 
REMARK   15  A    between atoms: CA_20  and  CB_23 
REMARK       I    between atoms: C_21  and  N_25 
REMARK   16  A    between atoms: CB_23  and  OG_24 
REMARK   17  A    between atoms: N_25  and  CA_26 
REMARK   18  A    between atoms: CA_26  and  CB_27 
REMARK   19  A    between atoms: CA_26  and  C_32 
REMARK   20  A    between atoms: CB_27  and  CG_28 
REMARK   21  A    between atoms: CG_28  and  CD_29 
REMARK   22  A    between atoms: CD_29  and  CE_30 
REMARK   23  A    between atoms: CE_30  and  NZ_31 
REMARK   24  A    between atoms: NZ_31  and  CM1_34 
REMARK   25  A    between atoms: NZ_31  and  CM2_35 
REMARK   26  A    between atoms: NZ_31  and  CM3_36 
REMARK       I    between atoms: C_32  and  N_37 
REMARK   27  A    between atoms: N_37  and  CA_38 
REMARK   28  A    between atoms: CA_38  and  C_39 
REMARK   29  A    between atoms: CA_38  and  CB_41 
REMARK       I    between atoms: C_39  and  N_45 
REMARK   30  A    between atoms: CB_41  and  CG_42 
REMARK   31  A    between atoms: N_45  and  CA_46 
REMARK   32  A    between atoms: CA_46  and  C_47 
REMARK   33  A    between atoms: CA_46  and  CB_49 
REMARK       I    between atoms: C_47  and  N_56 
REMARK   34  A    between atoms: CB_49  and  CG_50 
REMARK   35  A    between atoms: CG_50  and  CD_51 
REMARK   36  A    between atoms: CD_51  and  NE_52 
REMARK       I    between atoms: NE_52  and  CZ_53 
REMARK       I    between atoms: CZ_53  and  NH1_54 
REMARK   37  A    between atoms: N_56  and  CA_57 
REMARK   38  A    between atoms: CA_57  and  C_58 
REMARK   39  A    between atoms: CA_57  and  CB_60 
REMARK       I    between atoms: C_58  and  N_61 
REMARK   40  A    between atoms: N_61  and  CA_62 
REMARK   41  A    between atoms: CA_62  and  C_63 
REMARK   42  A    between atoms: CA_62  and  CB_65 
REMARK   43  A    between atoms: CB_65  and  CG_66 
REMARK   44  A    between atoms: CZ_71  and  OH_72 
ROOT
ATOM      1  CA  M3L d   1     -34.597  33.980  16.081  0.00  0.00     0.089 C 
ATOM      2  H   M3L d   1     -35.016  34.723  16.759  0.00  0.00     0.087 H 
ENDROOT
BRANCH   1   3
ATOM      3  N   M3L d   1     -33.632  34.646  15.219  0.00  0.00    -0.346 N 
ATOM      4  C   SER d   1     -32.740  35.483  15.721  0.00  0.00     0.243 C 
ATOM      5  O   SER d   1     -32.698  35.770  16.920  0.00  0.00    -0.271 OA
ATOM      6  H   M3L d   1     -33.644  34.465  14.215  0.00  0.00     0.163 HD
BRANCH   4   7
ATOM      7  CA  SER d   1     -31.759  36.117  14.737  0.00  0.00     0.109 C 
ATOM      8  H   SER d   1     -32.263  36.312  13.790  0.00  0.00     0.090 H 
BRANCH   7   9
ATOM      9  N   SER d   1     -31.274  37.357  15.337  0.00  0.00    -0.344 N 
ATOM     10  C   LYS d   1     -30.892  38.394  14.599  0.00  0.00     0.241 C 
ATOM     11  O   LYS d   1     -30.902  38.394  13.367  0.00  0.00    -0.271 OA
ATOM     12  H   SER d   1     -31.227  37.429  16.353  0.00  0.00     0.163 HD
BRANCH  10  13
ATOM     13  CA  LYS d   1     -30.447  39.627  15.389  0.00  0.00     0.089 C 
ATOM     14  H   LYS d   1     -31.305  39.993  15.954  0.00  0.00     0.087 H 
BRANCH  13  15
ATOM     15  N   LYS d   1     -29.394  39.281  16.318  0.00  0.00    -0.346 N 
ATOM     16  C   SER d   1     -29.694  38.954  17.570  0.00  0.00     0.243 C 
ATOM     17  O   SER d   1     -30.845  38.908  17.983  0.00  0.00    -0.271 OA
ATOM     18  H   LYS d   1     -28.421  39.288  16.012  0.00  0.00     0.163 HD
BRANCH  16  19
ATOM     19  CA  SER d   1     -28.536  38.650  18.487  0.00  0.00     0.109 C 
ATOM     20  H   SER d   1     -27.663  39.209  18.151  0.00  0.00     0.090 H 
BRANCH  19  21
ATOM     21  N   SER d   1     -28.851  39.073  19.852  0.00  0.00    -0.346 N 
ATOM     22  C   ACE d   1     -28.558  40.322  20.229  0.00  0.00     0.214 C 
ATOM     23  O   ACE d   1     -28.217  41.174  19.401  0.00  0.00    -0.274 OA
ATOM     24  H   SER d   1     -29.288  38.424  20.507  0.00  0.00     0.163 HD
BRANCH  22  25
ATOM     25  CH3 ACE d   1     -28.468  40.556  21.711  0.00  0.00    -0.003 C 
ATOM     26  H   ACE d   1     -27.431  40.754  21.984  0.00  0.00     0.040 H 
ATOM     27  H   ACE d   1     -29.086  41.413  21.980  0.00  0.00     0.040 H 
ATOM     28  H   ACE d   1     -28.822  39.671  22.239  0.00  0.00     0.040 H 
ENDBRANCH  22  25
ENDBRANCH  19  21
BRANCH  19  29
ATOM     29  CB  SER d   1     -28.182  37.166  18.433  0.00  0.00     0.044 C 
ATOM     30  H   SER d   1     -28.397  36.783  17.435  0.00  0.00     0.077 H 
ATOM     31  H   SER d   1     -28.773  36.630  19.175  0.00  0.00     0.077 H 
BRANCH  29  32
ATOM     32  OG  SER d   1     -26.801  36.983  18.716  0.00  0.00    -0.398 OA
ATOM     33  H   SER d   1     -26.277  37.456  18.066  0.00  0.00     0.209 HD
ENDBRANCH  29  32
ENDBRANCH  19  29
ENDBRANCH  16  19
ENDBRANCH  13  15
BRANCH  13  34
ATOM     34  CB  LYS d   1     -29.984  40.739  14.452  0.00  0.00    -0.038 C 
ATOM     35  H   LYS d   1     -30.853  41.085  13.893  0.00  0.00     0.036 H 
ATOM     36  H   LYS d   1     -29.201  40.330  13.813  0.00  0.00     0.036 H 
BRANCH  34  37
ATOM     37  CG  LYS d   1     -29.398  41.943  15.195  0.00  0.00    -0.061 C 
ATOM     38  H   LYS d   1     -28.486  41.636  15.706  0.00  0.00     0.033 H 
ATOM     39  H   LYS d   1     -30.130  42.308  15.915  0.00  0.00     0.033 H 
BRANCH  37  40
ATOM     40  CD  LYS d   1     -29.067  43.059  14.213  0.00  0.00    -0.043 C 
ATOM     41  H   LYS d   1     -29.976  43.324  13.672  0.00  0.00     0.035 H 
ATOM     42  H   LYS d   1     -28.289  42.705  13.537  0.00  0.00     0.035 H 
BRANCH  40  43
ATOM     43  CE  LYS d   1     -28.551  44.307  14.935  0.00  0.00     0.080 C 
ATOM     44  H   LYS d   1     -27.609  44.081  15.434  0.00  0.00     0.075 H 
ATOM     45  H   LYS d   1     -29.278  44.628  15.681  0.00  0.00     0.075 H 
BRANCH  43  46
ATOM     46  NZ  LYS d   1     -28.343  45.395  13.933  0.00  0.00    -0.079 N 
ATOM     47  H   LYS d   1     -27.999  46.230  14.406  0.00  0.00     0.274 HD
ATOM     48  H   LYS d   1     -27.660  45.091  13.239  0.00  0.00     0.274 HD
ATOM     49  H   LYS d   1     -29.228  45.604  13.472  0.00  0.00     0.274 HD
ENDBRANCH  43  46
ENDBRANCH  40  43
ENDBRANCH  37  40
ENDBRANCH  34  37
ENDBRANCH  13  34
ENDBRANCH  10  13
ENDBRANCH   7   9
BRANCH   7  50
ATOM     50  CB  SER d   1     -30.593  35.188  14.438  0.00  0.00     0.044 C 
ATOM     51  H   SER d   1     -29.910  35.701  13.761  0.00  0.00     0.077 H 
ATOM     52  H   SER d   1     -30.988  34.273  13.997  0.00  0.00     0.077 H 
BRANCH  50  53
ATOM     53  OG  SER d   1     -29.879  34.844  15.615  0.00  0.00    -0.398 OA
ATOM     54  H   SER d   1     -29.533  35.641  16.023  0.00  0.00     0.209 HD
ENDBRANCH  50  53
ENDBRANCH   7  50
ENDBRANCH   4   7
ENDBRANCH   1   3
BRANCH   1  55
ATOM     55  CB  M3L d   1     -35.675  33.358  15.197  0.00  0.00    -0.038 C 
ATOM     56  H   M3L d   1     -36.367  32.822  15.846  0.00  0.00     0.036 H 
ATOM     57  H   M3L d   1     -35.178  32.710  14.475  0.00  0.00     0.036 H 
BRANCH  55  58
ATOM     58  CG  M3L d   1     -36.477  34.392  14.418  0.00  0.00    -0.061 C 
ATOM     59  H   M3L d   1     -35.794  34.903  13.739  0.00  0.00     0.033 H 
ATOM     60  H   M3L d   1     -36.940  35.067  15.138  0.00  0.00     0.033 H 
BRANCH  58  61
ATOM     61  CD  M3L d   1     -37.593  33.766  13.577  0.00  0.00    -0.042 C 
ATOM     62  H   M3L d   1     -38.225  34.565  13.190  0.00  0.00     0.035 H 
ATOM     63  H   M3L d   1     -38.160  33.082  14.208  0.00  0.00     0.035 H 
BRANCH  61  64
ATOM     64  CE  M3L d   1     -37.029  32.986  12.404  0.00  0.00     0.084 C 
ATOM     65  H   M3L d   1     -37.100  31.925  12.646  0.00  0.00     0.076 H 
ATOM     66  H   M3L d   1     -36.003  33.319  12.246  0.00  0.00     0.076 H 
BRANCH  64  67
ATOM     67  NZ  M3L d   1     -37.779  33.214  11.141  0.00  0.00    -0.079 N 
BRANCH  67  68
ATOM     68  CM1 M3L d   1     -39.108  32.602  11.168  0.00  0.00     0.067 C 
ATOM     69  H   M3L d   1     -39.008  31.526  11.313  0.00  0.00     0.068 H 
ATOM     70  H   M3L d   1     -39.687  33.029  11.987  0.00  0.00     0.068 H 
ATOM     71  H   M3L d   1     -39.615  32.797  10.223  0.00  0.00     0.068 H 
ENDBRANCH  67  68
BRANCH  67  72
ATOM     72  CM2 M3L d   1     -37.024  32.609  10.009  0.00  0.00     0.067 C 
ATOM     73  H   M3L d   1     -36.040  33.073   9.941  0.00  0.00     0.068 H 
ATOM     74  H   M3L d   1     -36.911  31.538  10.180  0.00  0.00     0.068 H 
ATOM     75  H   M3L d   1     -37.570  32.774   9.080  0.00  0.00     0.068 H 
ENDBRANCH  67  72
BRANCH  67  76
ATOM     76  CM3 M3L d   1     -37.950  34.646  10.896  0.00  0.00     0.067 C 
ATOM     77  H   M3L d   1     -38.504  35.091  11.722  0.00  0.00     0.068 H 
ATOM     78  H   M3L d   1     -36.971  35.119  10.817  0.00  0.00     0.068 H 
ATOM     79  H   M3L d   1     -38.501  34.791   9.967  0.00  0.00     0.068 H 
ENDBRANCH  67  76
ENDBRANCH  64  67
ENDBRANCH  61  64
ENDBRANCH  58  61
ENDBRANCH  55  58
ENDBRANCH   1  55
BRANCH   1  80
ATOM     80  C   M3L d   1     -33.972  32.910  16.939  0.00  0.00     0.241 C 
ATOM     81  O   M3L d   1     -32.974  32.288  16.571  0.00  0.00    -0.271 OA
ATOM     82  N   ASP d   1     -34.547  32.694  18.117  0.00  0.00    -0.346 N 
ATOM     83  H   ASP d   1     -35.148  33.413  18.520  0.00  0.00     0.163 HD
BRANCH  82  84
ATOM     84  CA  ASP d   1     -34.335  31.452  18.842  0.00  0.00     0.098 C 
ATOM     85  H   ASP d   1     -34.935  31.544  19.747  0.00  0.00     0.088 H 
BRANCH  84  86
ATOM     86  C   ASP d   1     -32.907  31.220  19.305  0.00  0.00     0.241 C 
ATOM     87  O   ASP d   1     -32.474  30.078  19.424  0.00  0.00    -0.271 OA
ATOM     88  N   ARG d   1     -32.160  32.280  19.583  0.00  0.00    -0.346 N 
ATOM     89  H   ARG d   1     -32.499  33.224  19.398  0.00  0.00     0.163 HD
BRANCH  88  90
ATOM     90  CA  ARG d   1     -30.844  32.058  20.158  0.00  0.00     0.089 C 
ATOM     91  H   ARG d   1     -30.369  31.219  19.650  0.00  0.00     0.087 H 
BRANCH  90  92
ATOM     92  C   ARG d   1     -31.019  31.743  21.644  0.00  0.00     0.241 C 
ATOM     93  O   ARG d   1     -31.896  32.307  22.297  0.00  0.00    -0.271 OA
ATOM     94  N   LYS d   1     -30.208  30.826  22.166  0.00  0.00    -0.346 N 
ATOM     95  H   LYS d   1     -29.559  30.329  21.556  0.00  0.00     0.163 HD
BRANCH  94  96
ATOM     96  CA  LYS d   1     -30.228  30.515  23.599  0.00  0.00     0.086 C 
ATOM     97  H   LYS d   1     -31.250  30.567  23.975  0.00  0.00     0.086 H 
BRANCH  96  98
ATOM     98  C   LYS d   1     -29.349  31.535  24.312  0.00  0.00     0.240 C 
ATOM     99  O   LYS d   1     -28.143  31.590  24.066  0.00  0.00    -0.271 OA
ATOM    100  N   TYR d   1     -29.954  32.346  25.176  0.00  0.00    -0.344 N 
ATOM    101  H   TYR d   1     -30.939  32.193  25.393  0.00  0.00     0.163 HD
BRANCH 100 102
ATOM    102  CA  TYR d   1     -29.243  33.456  25.826  0.00  0.00     0.100 C 
ATOM    103  H   TYR d   1     -28.359  33.653  25.220  0.00  0.00     0.090 H 
BRANCH 102 104
ATOM    104  C   TYR d   1     -28.724  33.127  27.226  0.00  0.00     0.197 C 
ATOM    105  O   TYR d   1     -28.890  31.981  27.723  0.00  0.00    -0.646 OA
ATOM    106  O   TYR d   1     -28.123  34.013  27.891  0.00  0.00    -0.646 OA
ENDBRANCH 102 104
BRANCH 102 107
ATOM    107  CB  TYR d   1     -30.144  34.686  25.873  0.00  0.00    -0.013 C 
ATOM    108  H   TYR d   1     -29.654  35.435  26.494  0.00  0.00     0.043 H 
ATOM    109  H   TYR d   1     -31.111  34.377  26.269  0.00  0.00     0.043 H 
BRANCH 107 110
ATOM    110  CG  TYR d   1     -30.375  35.294  24.510  0.00  0.00    -0.056 A 
ATOM    111  CD1 TYR d   1     -29.309  35.810  23.777  0.00  0.00    -0.074 A 
ATOM    112  CE1 TYR d   1     -29.501  36.373  22.522  0.00  0.00    -0.051 A 
ATOM    113  H   TYR d   1     -28.304  35.771  24.197  0.00  0.00     0.084 H 
ATOM    114  CZ  TYR d   1     -30.773  36.422  21.985  0.00  0.00     0.065 A 
ATOM    115  H   TYR d   1     -28.654  36.773  21.965  0.00  0.00     0.087 H 
ATOM    116  CE2 TYR d   1     -31.858  35.915  22.693  0.00  0.00    -0.051 A 
ATOM    117  CD2 TYR d   1     -31.652  35.354  23.952  0.00  0.00    -0.074 A 
ATOM    118  H   TYR d   1     -32.860  35.956  22.267  0.00  0.00     0.087 H 
ATOM    119  H   TYR d   1     -32.501  34.956  24.509  0.00  0.00     0.084 H 
BRANCH 114 120
ATOM    120  OH  TYR d   1     -30.957  36.983  20.745  0.00  0.00    -0.361 OA
ATOM    121  H   TYR d   1     -31.334  36.329  20.152  0.00  0.00     0.217 HD
ENDBRANCH 114 120
ENDBRANCH 107 110
ENDBRANCH 102 107
ENDBRANCH 100 102
ENDBRANCH  96  98
BRANCH  96 122
ATOM    122  CB  LYS d   1     -29.722  29.091  23.861  0.00  0.00    -0.049 C 
ATOM    123  H   LYS d   1     -30.361  28.378  23.340  0.00  0.00     0.030 H 
ATOM    124  H   LYS d   1     -28.699  28.998  23.497  0.00  0.00     0.030 H 
ATOM    125  H   LYS d   1     -29.748  28.889  24.932  0.00  0.00     0.030 H 
ENDBRANCH  96 122
ENDBRANCH  94  96
ENDBRANCH  90  92
BRANCH  90 126
ATOM    126  CB  ARG d   1     -29.913  33.261  19.953  0.00  0.00    -0.036 C 
ATOM    127  H   ARG d   1     -30.346  34.117  20.471  0.00  0.00     0.036 H 
ATOM    128  H   ARG d   1     -29.814  33.435  18.881  0.00  0.00     0.036 H 
BRANCH 126 129
ATOM    129  CG  ARG d   1     -28.523  33.016  20.523  0.00  0.00    -0.048 C 
ATOM    130  H   ARG d   1     -28.171  32.063  20.127  0.00  0.00     0.035 H 
ATOM    131  H   ARG d   1     -28.608  33.033  21.610  0.00  0.00     0.035 H 
BRANCH 129 132
ATOM    132  CD  ARG d   1     -27.506  34.078  20.128  0.00  0.00     0.009 C 
ATOM    133  H   ARG d   1     -27.657  34.966  20.742  0.00  0.00     0.064 H 
ATOM    134  H   ARG d   1     -27.637  34.327  19.075  0.00  0.00     0.064 H 
BRANCH 132 135
ATOM    135  NE  ARG d   1     -26.149  33.573  20.338  0.00  0.00    -0.227 N 
ATOM    136  CZ  ARG d   1     -25.034  34.196  19.960  0.00  0.00     0.665 C 
ATOM    137  NH1 ARG d   1     -25.091  35.375  19.346  0.00  0.00    -0.235 N 
ATOM    138  NH2 ARG d   1     -23.852  33.637  20.200  0.00  0.00    -0.235 N 
ATOM    139  H   ARG d   1     -25.995  35.810  19.161  0.00  0.00     0.174 HD
ATOM    140  H   ARG d   1     -24.231  35.843  19.061  0.00  0.00     0.174 HD
ATOM    141  H   ARG d   1     -23.801  32.734  20.672  0.00  0.00     0.174 HD
ATOM    142  H   ARG d   1     -22.996  34.111  19.912  0.00  0.00     0.174 HD
ATOM    143  H   ARG d   1     -26.049  32.675  20.810  0.00  0.00     0.177 HD
ENDBRANCH 132 135
ENDBRANCH 129 132
ENDBRANCH 126 129
ENDBRANCH  90 126
ENDBRANCH  88  90
ENDBRANCH  84  86
BRANCH  84 144
ATOM    144  CB  ASP d   1     -34.798  30.251  17.989  0.00  0.00     0.043 C 
ATOM    145  H   ASP d   1     -33.987  29.988  17.309  0.00  0.00     0.052 H 
ATOM    146  H   ASP d   1     -35.706  30.543  17.462  0.00  0.00     0.052 H 
BRANCH 144 147
ATOM    147  CG  ASP d   1     -35.120  29.020  18.838  0.00  0.00     0.175 C 
ATOM    148  OD1 ASP d   1     -35.805  29.165  19.884  0.00  0.00    -0.648 OA
ATOM    149  OD2 ASP d   1     -34.697  27.907  18.468  0.00  0.00    -0.648 OA
ENDBRANCH 144 147
ENDBRANCH  84 144
ENDBRANCH  82  84
ENDBRANCH   1  80
TORSDOF 44
