REMARK  5 active torsions:
REMARK  status: ('A' for Active; 'I' for Inactive)
REMARK    1  A    between atoms: C4_3  and  N11_8 
REMARK    2  A    between atoms: N13_10  and  C51_35 
REMARK    3  A    between atoms: N20_15  and  C38_26 
REMARK    4  A    between atoms: C24_17  and  C26_18 
REMARK    5  A    between atoms: C42_29  and  C47_32 
ROOT
ATOM      1  C26 BJZ d   1     -11.003   0.158  26.176  0.00  0.00    -0.049 A 
ATOM      2  C27 BJZ d   1     -11.544  -0.819  27.031  0.00  0.00    -0.075 A 
ATOM      3  C29 BJZ d   1     -10.965  -2.099  27.120  0.00  0.00    -0.062 A 
ATOM      4  C31 BJZ d   1      -9.864  -2.413  26.302  0.00  0.00     0.044 A 
ATOM      5  C32 BJZ d   1      -9.329  -1.477  25.415  0.00  0.00    -0.062 A 
ATOM      6  C34 BJZ d   1      -9.910  -0.197  25.337  0.00  0.00    -0.075 A 
ATOM      7  C36 BJZ d   1      -9.323  -3.742  26.349  0.00  0.00     0.099 C 
ATOM      8  N37 BJZ d   1      -8.879  -4.811  26.393  0.00  0.00    -0.191 NA
ATOM      9  H   BJZ d   1     -12.422  -0.582  27.632  0.00  0.00     0.084 H 
ATOM     10  H   BJZ d   1     -11.365  -2.838  27.814  0.00  0.00     0.085 H 
ATOM     11  H   BJZ d   1      -8.473  -1.734  24.791  0.00  0.00     0.085 H 
ATOM     12  H   BJZ d   1      -9.518   0.530  24.626  0.00  0.00     0.084 H 
ENDROOT
BRANCH   1  13
ATOM     13  C24 BJZ d   1     -11.559   1.573  26.249  0.00  0.00     0.022 C 
ATOM     14  C14 BJZ d   1     -10.924   2.456  27.335  0.00  0.00     0.143 A 
ATOM     15  N13 BJZ d   1     -11.274   2.075  28.698  0.00  0.00    -0.317 N 
ATOM     16  C15 BJZ d   1      -9.400   2.209  27.377  0.00  0.00     0.263 A 
ATOM     17  C17 BJZ d   1     -11.215   3.913  26.938  0.00  0.00     0.029 C 
ATOM     18  C12 BJZ d   1     -10.219   1.570  29.356  0.00  0.00     0.333 A 
ATOM     19  N11 BJZ d   1      -9.104   1.645  28.579  0.00  0.00    -0.232 N 
ATOM     20  O55 BJZ d   1     -10.300   1.110  30.491  0.00  0.00    -0.246 OA
ATOM     21  O16 BJZ d   1      -8.630   2.483  26.451  0.00  0.00    -0.270 OA
ATOM     22  N20 BJZ d   1     -11.599   3.783  25.529  0.00  0.00    -0.362 N 
ATOM     23  H   BJZ d   1     -10.364   4.577  27.091  0.00  0.00     0.069 H 
ATOM     24  H   BJZ d   1     -11.987   4.378  27.551  0.00  0.00     0.069 H 
ATOM     25  C21 BJZ d   1     -11.455   2.427  24.997  0.00  0.00     0.006 C 
ATOM     26  H   BJZ d   1     -10.522   2.277  24.453  0.00  0.00     0.065 H 
ATOM     27  H   BJZ d   1     -12.206   2.180  24.247  0.00  0.00     0.065 H 
ATOM     28  H   BJZ d   1     -12.599   1.319  26.452  0.00  0.00     0.054 H 
BRANCH  15  29
ATOM     29  C51 BJZ d   1     -12.645   2.128  29.250  0.00  0.00    -0.013 C 
ATOM     30  H   BJZ d   1     -12.984   1.117  29.474  0.00  0.00     0.056 H 
ATOM     31  H   BJZ d   1     -12.645   2.723  30.163  0.00  0.00     0.056 H 
ATOM     32  H   BJZ d   1     -13.313   2.583  28.518  0.00  0.00     0.056 H 
ENDBRANCH  15  29
BRANCH  19  33
ATOM     33  C4  BJZ d   1      -7.872   1.123  28.896  0.00  0.00     0.050 A 
ATOM     34  C2  BJZ d   1      -7.161   0.284  27.980  0.00  0.00    -0.035 A 
ATOM     35  C1  BJZ d   1      -5.974  -0.355  28.407  0.00  0.00     0.037 A 
ATOM     36  H   BJZ d   1      -7.530   0.139  26.965  0.00  0.00     0.089 H 
ATOM     37  C8  BJZ d   1      -5.457  -0.173  29.695  0.00  0.00    -0.041 A 
ATOM     38 CL56 BJZ d   1      -5.097  -1.371  27.331  0.00  0.00    -0.084 Cl
ATOM     39  C7  BJZ d   1      -6.140   0.688  30.564  0.00  0.00     0.037 A 
ATOM     40  H   BJZ d   1      -4.549  -0.686  30.013  0.00  0.00     0.088 H 
ATOM     41  C5  BJZ d   1      -7.327   1.330  30.176  0.00  0.00    -0.035 A 
ATOM     42 CL10 BJZ d   1      -5.516   0.992  32.173  0.00  0.00    -0.084 Cl
ATOM     43  H   BJZ d   1      -7.832   1.997  30.875  0.00  0.00     0.089 H 
ENDBRANCH  19  33
BRANCH  22  44
ATOM     44  C38 BJZ d   1     -12.120   4.826  24.786  0.00  0.00     0.125 A 
ATOM     45  N39 BJZ d   1     -12.414   6.005  25.409  0.00  0.00    -0.242 NA
ATOM     46  C40 BJZ d   1     -12.924   7.048  24.694  0.00  0.00     0.021 A 
ATOM     47  C42 BJZ d   1     -13.142   6.981  23.310  0.00  0.00     0.058 A 
ATOM     48  H   BJZ d   1     -13.172   7.971  25.219  0.00  0.00     0.116 H 
ATOM     49  C43 BJZ d   1     -12.827   5.778  22.661  0.00  0.00    -0.061 A 
ATOM     50  C45 BJZ d   1     -12.325   4.687  23.394  0.00  0.00    -0.038 A 
ATOM     51  H   BJZ d   1     -12.972   5.688  21.584  0.00  0.00     0.085 H 
ATOM     52  H   BJZ d   1     -12.097   3.745  22.895  0.00  0.00     0.089 H 
BRANCH  47  53
ATOM     53  C47 BJZ d   1     -13.669   8.141  22.567  0.00  0.00     0.210 C 
ATOM     54  O48 BJZ d   1     -13.764   8.150  21.378  0.00  0.00    -0.644 OA
ATOM     55  O49 BJZ d   1     -14.013   9.179  23.339  0.00  0.00    -0.644 OA
ENDBRANCH  47  53
ENDBRANCH  22  44
ENDBRANCH   1  13
TORSDOF 5
