REMARK  16 active torsions:
REMARK  status: ('A' for Active; 'I' for Inactive)
REMARK    1  A    between atoms: C5_1  and  C3_2 
REMARK    2  A    between atoms: C5_1  and  C6_6 
REMARK       I    between atoms: C3_2  and  N1_4 
REMARK    3  A    between atoms: N1_4  and  O2_5 
REMARK    4  A    between atoms: C6_6  and  C12_7 
REMARK    5  A    between atoms: C6_6  and  C7_9 
REMARK       I    between atoms: C12_7  and  N14_14 
REMARK    6  A    between atoms: C7_9  and  C8_10 
REMARK    7  A    between atoms: C8_10  and  C9_11 
REMARK    8  A    between atoms: C9_11  and  C10_12 
REMARK    9  A    between atoms: C10_12  and  C11_13 
REMARK   10  A    between atoms: N14_14  and  C15_15 
REMARK   11  A    between atoms: C15_15  and  C16_16 
REMARK   12  A    between atoms: C15_15  and  C19_19 
REMARK   13  A    between atoms: C16_16  and  C18_17 
REMARK   14  A    between atoms: C16_16  and  C17_18 
REMARK       I    between atoms: C19_19  and  N21_21 
REMARK   15  A    between atoms: C22_22  and  C26_26 
REMARK   16  A    between atoms: C26_26  and  O27_27 
ROOT
ATOM      1  C12 BB2 d   1      16.913   9.640  24.725  0.00  0.00     0.223 C 
ATOM      2  O13 BB2 d   1      16.888  10.435  23.785  0.00  0.00    -0.273 OA
ATOM      3  N14 BB2 d   1      17.413   8.437  24.677  0.00  0.00    -0.347 N 
ATOM      4  H17 BB2 d   1      17.424   7.871  25.501  0.00  0.00     0.163 HD
ENDROOT
BRANCH   3   5
ATOM      5  C15 BB2 d   1      17.952   7.916  23.441  0.00  0.00     0.092 C 
ATOM      6  H18 BB2 d   1      17.781   8.661  22.650  0.00  0.00     0.088 H 
BRANCH   5   7
ATOM      7  C16 BB2 d   1      19.465   7.684  23.513  0.00  0.00    -0.033 C 
ATOM      8  H19 BB2 d   1      19.809   7.163  22.608  0.00  0.00     0.042 H 
BRANCH   7   9
ATOM      9  C18 BB2 d   1      20.180   9.059  23.646  0.00  0.00    -0.071 C 
ATOM     10  H20 BB2 d   1      21.268   8.903  23.698  0.00  0.00     0.028 H 
ATOM     11  H21 BB2 d   1      19.837   9.563  24.561  0.00  0.00     0.028 H 
ATOM     12  H22 BB2 d   1      19.941   9.683  22.772  0.00  0.00     0.028 H 
ENDBRANCH   7   9
BRANCH   7  13
ATOM     13  C17 BB2 d   1      19.783   6.877  24.719  0.00  0.00    -0.071 C 
ATOM     14  H23 BB2 d   1      19.287   5.898  24.646  0.00  0.00     0.028 H 
ATOM     15  H24 BB2 d   1      19.427   7.403  25.617  0.00  0.00     0.028 H 
ATOM     16  H25 BB2 d   1      20.871   6.732  24.787  0.00  0.00     0.028 H 
ENDBRANCH   7  13
ENDBRANCH   5   7
BRANCH   5  17
ATOM     17  C19 BB2 d   1      17.128   6.643  23.087  0.00  0.00     0.243 C 
ATOM     18  O20 BB2 d   1      16.684   5.906  23.988  0.00  0.00    -0.271 OA
ATOM     19  N21 BB2 d   1      16.884   6.340  21.784  0.00  0.00    -0.344 N 
ATOM     20  C22 BB2 d   1      16.120   5.170  21.343  0.00  0.00     0.035 C 
ATOM     21  C23 BB2 d   1      17.329   7.143  20.618  0.00  0.00    -0.002 C 
ATOM     22  C25 BB2 d   1      15.902   5.364  19.840  0.00  0.00    -0.043 C 
ATOM     23  H26 BB2 d   1      15.162   5.107  21.880  0.00  0.00     0.076 H 
ATOM     24  C24 BB2 d   1      16.329   6.778  19.523  0.00  0.00    -0.048 C 
ATOM     25  H31 BB2 d   1      14.841   5.222  19.589  0.00  0.00     0.036 H 
ATOM     26  H32 BB2 d   1      16.512   4.646  19.272  0.00  0.00     0.036 H 
ATOM     27  H29 BB2 d   1      16.805   6.825  18.533  0.00  0.00     0.035 H 
ATOM     28  H30 BB2 d   1      15.464   7.458  19.547  0.00  0.00     0.035 H 
ATOM     29  H27 BB2 d   1      18.352   6.870  20.321  0.00  0.00     0.064 H 
ATOM     30  H28 BB2 d   1      17.288   8.219  20.844  0.00  0.00     0.064 H 
BRANCH  20  31
ATOM     31  C26 BB2 d   1      16.933   3.865  21.545  0.00  0.00     0.036 C 
ATOM     32  H33 BB2 d   1      17.367   3.835  22.555  0.00  0.00     0.077 H 
ATOM     33  H34 BB2 d   1      17.738   3.794  20.798  0.00  0.00     0.077 H 
BRANCH  31  34
ATOM     34  O27 BB2 d   1      15.989   2.790  21.371  0.00  0.00    -0.399 OA
ATOM     35  H35 BB2 d   1      15.296   2.871  22.016  0.00  0.00     0.209 HD
ENDBRANCH  31  34
ENDBRANCH  20  31
ENDBRANCH   5  17
ENDBRANCH   3   5
BRANCH   1  36
ATOM     36  C6  BB2 d   1      16.306  10.001  26.041  0.00  0.00     0.032 C 
ATOM     37  H5  BB2 d   1      16.632   9.305  26.828  0.00  0.00     0.055 H 
BRANCH  36  38
ATOM     38  C5  BB2 d   1      16.693  11.444  26.420  0.00  0.00     0.022 C 
ATOM     39  H1  BB2 d   1      17.778  11.605  26.342  0.00  0.00     0.048 H 
ATOM     40  H2  BB2 d   1      16.167  12.181  25.795  0.00  0.00     0.048 H 
BRANCH  38  41
ATOM     41  C3  BB2 d   1      16.232  11.498  27.837  0.00  0.00     0.241 C 
ATOM     42  O4  BB2 d   1      16.870  10.895  28.673  0.00  0.00    -0.271 OA
ATOM     43  N1  BB2 d   1      15.107  12.180  28.104  0.00  0.00    -0.237 N 
ATOM     44  H3  BB2 d   1      14.592  12.652  27.388  0.00  0.00     0.197 HD
BRANCH  43  45
ATOM     45  O2  BB2 d   1      14.706  12.192  29.408  0.00  0.00    -0.287 OA
ATOM     46  H4  BB2 d   1      13.906  12.698  29.488  0.00  0.00     0.244 HD
ENDBRANCH  43  45
ENDBRANCH  38  41
ENDBRANCH  36  38
BRANCH  36  47
ATOM     47  C7  BB2 d   1      14.734   9.909  25.815  0.00  0.00    -0.053 C 
ATOM     48  H6  BB2 d   1      14.439  10.675  25.082  0.00  0.00     0.034 H 
ATOM     49  H7  BB2 d   1      14.229  10.104  26.773  0.00  0.00     0.034 H 
BRANCH  47  50
ATOM     50  C8  BB2 d   1      14.278   8.511  25.287  0.00  0.00    -0.064 C 
ATOM     51  H8  BB2 d   1      14.561   7.740  26.019  0.00  0.00     0.033 H 
ATOM     52  H9  BB2 d   1      14.778   8.308  24.328  0.00  0.00     0.033 H 
BRANCH  50  53
ATOM     53  C9  BB2 d   1      12.789   8.473  25.083  0.00  0.00    -0.065 C 
ATOM     54  H10 BB2 d   1      12.533   8.956  24.128  0.00  0.00     0.033 H 
ATOM     55  H11 BB2 d   1      12.289   9.002  25.907  0.00  0.00     0.033 H 
BRANCH  53  56
ATOM     56  C10 BB2 d   1      12.318   6.953  25.057  0.00  0.00    -0.069 C 
ATOM     57  H12 BB2 d   1      11.262   6.921  24.749  0.00  0.00     0.032 H 
ATOM     58  H13 BB2 d   1      12.416   6.541  26.072  0.00  0.00     0.032 H 
BRANCH  56  59
ATOM     59  C11 BB2 d   1      13.144   6.058  24.080  0.00  0.00    -0.077 C 
ATOM     60  H14 BB2 d   1      12.763   5.027  24.116  0.00  0.00     0.027 H 
ATOM     61  H15 BB2 d   1      14.202   6.068  24.379  0.00  0.00     0.027 H 
ATOM     62  H16 BB2 d   1      13.049   6.448  23.056  0.00  0.00     0.027 H 
ENDBRANCH  56  59
ENDBRANCH  53  56
ENDBRANCH  50  53
ENDBRANCH  47  50
ENDBRANCH  36  47
ENDBRANCH   1  36
TORSDOF 16
