REMARK  16 active torsions:
REMARK  status: ('A' for Active; 'I' for Inactive)
REMARK    1  A    between atoms: C5_1  and  C3_2 
REMARK    2  A    between atoms: C5_1  and  C6_6 
REMARK       I    between atoms: C3_2  and  N1_4 
REMARK    3  A    between atoms: N1_4  and  O2_5 
REMARK    4  A    between atoms: C6_6  and  C12_7 
REMARK    5  A    between atoms: C6_6  and  C7_9 
REMARK       I    between atoms: C12_7  and  N14_14 
REMARK    6  A    between atoms: C7_9  and  C8_10 
REMARK    7  A    between atoms: C8_10  and  C9_11 
REMARK    8  A    between atoms: C9_11  and  C10_12 
REMARK    9  A    between atoms: C10_12  and  C11_13 
REMARK   10  A    between atoms: N14_14  and  C15_15 
REMARK   11  A    between atoms: C15_15  and  C16_16 
REMARK   12  A    between atoms: C15_15  and  C19_19 
REMARK   13  A    between atoms: C16_16  and  C18_17 
REMARK   14  A    between atoms: C16_16  and  C17_18 
REMARK       I    between atoms: C19_19  and  N21_21 
REMARK   15  A    between atoms: C22_22  and  C26_26 
REMARK   16  A    between atoms: C26_26  and  O27_27 
ROOT
ATOM      1  C12 BB2 d   1       2.576 -18.513 -30.364  0.00  0.00     0.223 C 
ATOM      2  O13 BB2 d   1       2.454 -17.743 -31.337  0.00  0.00    -0.273 OA
ATOM      3  N14 BB2 d   1       2.990 -19.780 -30.448  0.00  0.00    -0.347 N 
ATOM      4  H   BB2 d   1       3.117 -20.317 -29.590  0.00  0.00     0.163 HD
ENDROOT
BRANCH   3   5
ATOM      5  C15 BB2 d   1       3.257 -20.400 -31.690  0.00  0.00     0.092 C 
ATOM      6  H   BB2 d   1       3.046 -19.706 -32.504  0.00  0.00     0.088 H 
BRANCH   5   7
ATOM      7  C16 BB2 d   1       4.731 -20.770 -31.888  0.00  0.00    -0.033 C 
ATOM      8  H   BB2 d   1       4.764 -21.744 -32.376  0.00  0.00     0.042 H 
BRANCH   7   9
ATOM      9  C18 BB2 d   1       5.368 -19.673 -32.812  0.00  0.00    -0.071 C 
ATOM     10  H   BB2 d   1       4.845 -19.657 -33.768  0.00  0.00     0.028 H 
ATOM     11  H   BB2 d   1       5.279 -18.699 -32.332  0.00  0.00     0.028 H 
ATOM     12  H   BB2 d   1       6.421 -19.904 -32.975  0.00  0.00     0.028 H 
ENDBRANCH   7   9
BRANCH   7  13
ATOM     13  C17 BB2 d   1       5.554 -21.129 -30.627  0.00  0.00    -0.071 C 
ATOM     14  H   BB2 d   1       5.559 -20.280 -29.944  0.00  0.00     0.028 H 
ATOM     15  H   BB2 d   1       5.104 -21.991 -30.134  0.00  0.00     0.028 H 
ATOM     16  H   BB2 d   1       6.577 -21.369 -30.918  0.00  0.00     0.028 H 
ENDBRANCH   7  13
ENDBRANCH   5   7
BRANCH   5  17
ATOM     17  C19 BB2 d   1       2.351 -21.648 -31.739  0.00  0.00     0.243 C 
ATOM     18  O20 BB2 d   1       2.062 -22.231 -30.666  0.00  0.00    -0.271 OA
ATOM     19  N21 BB2 d   1       1.866 -21.979 -33.005  0.00  0.00    -0.344 N 
ATOM     20  C22 BB2 d   1       1.036 -23.124 -33.423  0.00  0.00     0.035 C 
ATOM     21  C23 BB2 d   1       2.252 -21.188 -34.230  0.00  0.00    -0.002 C 
ATOM     22  C25 BB2 d   1       1.070 -23.125 -34.979  0.00  0.00    -0.043 C 
ATOM     23  H   BB2 d   1       0.028 -23.044 -33.017  0.00  0.00     0.076 H 
ATOM     24  C24 BB2 d   1       1.527 -21.740 -35.453  0.00  0.00    -0.048 C 
ATOM     25  H   BB2 d   1       0.079 -23.346 -35.374  0.00  0.00     0.036 H 
ATOM     26  H   BB2 d   1       1.760 -23.889 -35.337  0.00  0.00     0.036 H 
ATOM     27  H   BB2 d   1       2.160 -21.782 -36.339  0.00  0.00     0.035 H 
ATOM     28  H   BB2 d   1       0.700 -21.108 -35.778  0.00  0.00     0.035 H 
ATOM     29  H   BB2 d   1       3.328 -21.266 -34.384  0.00  0.00     0.064 H 
ATOM     30  H   BB2 d   1       1.973 -20.144 -34.087  0.00  0.00     0.064 H 
BRANCH  20  31
ATOM     31  C26 BB2 d   1       1.682 -24.458 -32.933  0.00  0.00     0.036 C 
ATOM     32  H   BB2 d   1       1.504 -24.528 -31.860  0.00  0.00     0.077 H 
ATOM     33  H   BB2 d   1       2.737 -24.426 -33.206  0.00  0.00     0.077 H 
BRANCH  31  34
ATOM     34  O27 BB2 d   1       1.110 -25.659 -33.548  0.00  0.00    -0.399 OA
ATOM     35  H   BB2 d   1       0.173 -25.706 -33.345  0.00  0.00     0.209 HD
ENDBRANCH  31  34
ENDBRANCH  20  31
ENDBRANCH   5  17
ENDBRANCH   3   5
BRANCH   1  36
ATOM     36  C6  BB2 d   1       2.226 -18.156 -28.885  0.00  0.00     0.032 C 
ATOM     37  H   BB2 d   1       2.699 -18.896 -28.239  0.00  0.00     0.055 H 
BRANCH  36  38
ATOM     38  C5  BB2 d   1       2.736 -16.805 -28.382  0.00  0.00     0.022 C 
ATOM     39  H   BB2 d   1       3.826 -16.797 -28.386  0.00  0.00     0.048 H 
ATOM     40  H   BB2 d   1       2.377 -16.009 -29.034  0.00  0.00     0.048 H 
BRANCH  38  41
ATOM     41  C3  BB2 d   1       2.221 -16.583 -26.959  0.00  0.00     0.241 C 
ATOM     42  O4  BB2 d   1       2.884 -17.062 -26.052  0.00  0.00    -0.271 OA
ATOM     43  N1  BB2 d   1       1.077 -15.923 -26.740  0.00  0.00    -0.237 N 
ATOM     44  H   BB2 d   1       0.464 -15.537 -27.458  0.00  0.00     0.197 HD
BRANCH  43  45
ATOM     45  O2  BB2 d   1       0.878 -15.857 -25.436  0.00  0.00    -0.287 OA
ATOM     46  H   BB2 d   1       0.060 -15.386 -25.262  0.00  0.00     0.244 HD
ENDBRANCH  43  45
ENDBRANCH  38  41
ENDBRANCH  36  38
BRANCH  36  47
ATOM     47  C7  BB2 d   1       0.657 -18.100 -28.861  0.00  0.00    -0.053 C 
ATOM     48  H   BB2 d   1       0.299 -17.269 -29.468  0.00  0.00     0.034 H 
ATOM     49  H   BB2 d   1       0.299 -17.947 -27.843  0.00  0.00     0.034 H 
BRANCH  47  50
ATOM     50  C8  BB2 d   1       0.128 -19.440 -29.420  0.00  0.00    -0.064 C 
ATOM     51  H   BB2 d   1       0.466 -20.213 -28.730  0.00  0.00     0.033 H 
ATOM     52  H   BB2 d   1       0.501 -19.513 -30.442  0.00  0.00     0.033 H 
BRANCH  50  53
ATOM     53  C9  BB2 d   1      -1.401 -19.580 -29.509  0.00  0.00    -0.065 C 
ATOM     54  H   BB2 d   1      -1.762 -19.173 -30.453  0.00  0.00     0.033 H 
ATOM     55  H   BB2 d   1      -1.878 -19.027 -28.700  0.00  0.00     0.033 H 
BRANCH  53  56
ATOM     56  C10 BB2 d   1      -1.754 -21.104 -29.405  0.00  0.00    -0.069 C 
ATOM     57  H   BB2 d   1      -2.704 -21.228 -28.885  0.00  0.00     0.032 H 
ATOM     58  H   BB2 d   1      -0.976 -21.626 -28.847  0.00  0.00     0.032 H 
BRANCH  56  59
ATOM     59  C11 BB2 d   1      -1.855 -21.674 -30.791  0.00  0.00    -0.077 C 
ATOM     60  H   BB2 d   1      -2.636 -21.150 -31.342  0.00  0.00     0.027 H 
ATOM     61  H   BB2 d   1      -0.901 -21.550 -31.304  0.00  0.00     0.027 H 
ATOM     62  H   BB2 d   1      -2.100 -22.734 -30.730  0.00  0.00     0.027 H 
ENDBRANCH  56  59
ENDBRANCH  53  56
ENDBRANCH  50  53
ENDBRANCH  47  50
ENDBRANCH  36  47
ENDBRANCH   1  36
TORSDOF 16
