REMARK  7 active torsions:
REMARK  status: ('A' for Active; 'I' for Inactive)
REMARK    1  A    between atoms: C1_1  and  O17_2 
REMARK    2  A    between atoms: O17_2  and  C13_10 
REMARK    3  A    between atoms: C2_3  and  C2'_4 
REMARK    4  A    between atoms: C6_8  and  C6'_9 
REMARK    5  A    between atoms: C11_12  and  N5_13 
REMARK    6  A    between atoms: N5_13  and  C21_18 
REMARK    7  A    between atoms: C15_15  and  N18_16 
ROOT
ATOM      1  C21 65B d   1      51.635  64.233  15.174  0.00  0.00     0.049 A 
ATOM      2  C22 65B d   1      51.304  64.586  16.501  0.00  0.00    -0.055 A 
ATOM      3  C23 65B d   1      52.006  65.585  17.158  0.00  0.00    -0.061 A 
ATOM      4  C24 65B d   1      53.034  66.248  16.480  0.00  0.00     0.044 A 
ATOM      5  C25 65B d   1      53.334  65.876  15.153  0.00  0.00    -0.061 A 
ATOM      6  C26 65B d   1      52.657  64.873  14.488  0.00  0.00    -0.055 A 
ATOM      7  C27 65B d   1      53.838  67.297  17.087  0.00  0.00     0.099 C 
ATOM      8  N27 65B d   1      54.534  68.143  17.475  0.00  0.00    -0.191 NA
ATOM      9  H   65B d   1      50.491  64.070  17.012  0.00  0.00     0.087 H 
ATOM     10  H   65B d   1      51.761  65.849  18.187  0.00  0.00     0.085 H 
ATOM     11  H   65B d   1      54.133  66.402  14.631  0.00  0.00     0.085 H 
ATOM     12  H   65B d   1      52.915  64.595  13.466  0.00  0.00     0.087 H 
ENDROOT
BRANCH   1  13
ATOM     13  N5  65B d   1      50.976  63.239  14.495  0.00  0.00    -0.188 N 
ATOM     14  H   65B d   1      51.432  62.819  13.685  0.00  0.00     0.184 HD
BRANCH  13  15
ATOM     15  C11 65B d   1      49.704  62.773  14.863  0.00  0.00     0.731 A 
ATOM     16  N12 65B d   1      49.136  63.113  16.013  0.00  0.00    -0.036 NA
ATOM     17  C13 65B d   1      47.924  62.631  16.352  0.00  0.00     0.210 A 
ATOM     18  C14 65B d   1      47.295  61.831  15.496  0.00  0.00     0.110 A 
ATOM     19  C15 65B d   1      47.875  61.484  14.309  0.00  0.00     0.162 A 
ATOM     20 BR   65B d   1      45.620  61.237  16.068  0.00  0.00    -0.042 Br
ATOM     21  N16 65B d   1      49.064  61.955  14.042  0.00  0.00    -0.044 NA
BRANCH  17  22
ATOM     22  O17 65B d   1      47.222  62.885  17.484  0.00  0.00    -0.289 OA
BRANCH  22  23
ATOM     23  C1  65B d   1      47.904  63.568  18.455  0.00  0.00     0.089 A 
ATOM     24  C2  65B d   1      48.475  62.945  19.534  0.00  0.00    -0.026 A 
ATOM     25  C3  65B d   1      49.169  63.638  20.466  0.00  0.00    -0.054 A 
ATOM     26  C4  65B d   1      49.326  65.045  20.272  0.00  0.00     0.045 A 
ATOM     27  H   65B d   1      49.595  63.139  21.337  0.00  0.00     0.086 H 
ATOM     28  C5  65B d   1      48.795  65.715  19.179  0.00  0.00    -0.054 A 
ATOM     29  C4' 65B d   1      50.020  65.869  21.203  0.00  0.00     0.099 C 
ATOM     30  C6  65B d   1      48.049  64.933  18.281  0.00  0.00    -0.026 A 
ATOM     31  H   65B d   1      48.947  66.783  19.026  0.00  0.00     0.086 H 
ATOM     32  N4' 65B d   1      50.583  66.511  21.977  0.00  0.00    -0.191 NA
BRANCH  24  33
ATOM     33  C2' 65B d   1      48.267  61.478  19.620  0.00  0.00    -0.049 C 
ATOM     34  H   65B d   1      47.199  61.266  19.676  0.00  0.00     0.033 H 
ATOM     35  H   65B d   1      48.687  61.000  18.735  0.00  0.00     0.033 H 
ATOM     36  H   65B d   1      48.762  61.094  20.512  0.00  0.00     0.033 H 
ENDBRANCH  24  33
BRANCH  30  37
ATOM     37  C6' 65B d   1      47.372  65.515  17.062  0.00  0.00    -0.049 C 
ATOM     38  H   65B d   1      46.651  66.271  17.374  0.00  0.00     0.033 H 
ATOM     39  H   65B d   1      48.121  65.971  16.415  0.00  0.00     0.033 H 
ATOM     40  H   65B d   1      46.857  64.722  16.521  0.00  0.00     0.033 H 
ENDBRANCH  30  37
ENDBRANCH  22  23
ENDBRANCH  17  22
BRANCH  19  41
ATOM     41  N18 65B d   1      47.178  60.656  13.445  0.00  0.00    -0.382 N 
ATOM     42  H   65B d   1      46.250  60.318  13.700  0.00  0.00     0.157 HD
ATOM     43  H   65B d   1      47.592  60.385  12.553  0.00  0.00     0.157 HD
ENDBRANCH  19  41
ENDBRANCH  13  15
ENDBRANCH   1  13
TORSDOF 7
