REMARK  10 active torsions:
REMARK  status: ('A' for Active; 'I' for Inactive)
REMARK    1  A    between atoms: C2_2  and  O1_1 
REMARK    2  A    between atoms: O1_1  and  C8_8 
REMARK    3  A    between atoms: C6_6  and  N17_17 
REMARK    4  A    between atoms: C9_9  and  C15_15 
REMARK    5  A    between atoms: C13_13  and  C14_14 
REMARK    6  A    between atoms: N17_17  and  C18_18 
REMARK    7  A    between atoms: N21_21  and  C25_25 
REMARK    8  A    between atoms: C25_25  and  C26_26 
REMARK    9  A    between atoms: C29_29  and  S32_32 
REMARK   10  A    between atoms: S32_32  and  C35_35 
ROOT
ATOM      1  C8  DJZ d   1      47.863  63.386  18.011  0.00  0.00     0.089 A 
ATOM      2  C9  DJZ d   1      47.959  64.807  17.758  0.00  0.00    -0.026 A 
ATOM      3  C10 DJZ d   1      48.790  65.628  18.613  0.00  0.00    -0.054 A 
ATOM      4  C11 DJZ d   1      49.499  65.031  19.734  0.00  0.00     0.045 A 
ATOM      5  C12 DJZ d   1      49.386  63.593  19.998  0.00  0.00    -0.054 A 
ATOM      6  C13 DJZ d   1      48.589  62.817  19.130  0.00  0.00    -0.026 A 
ATOM      7  C16 DJZ d   1      50.282  65.928  20.533  0.00  0.00     0.099 C 
ATOM      8  N24 DJZ d   1      50.904  66.641  21.168  0.00  0.00    -0.191 NA
ATOM      9  H   DJZ d   1      48.885  66.696  18.416  0.00  0.00     0.086 H 
ATOM     10  H   DJZ d   1      49.904  63.136  20.842  0.00  0.00     0.086 H 
ENDROOT
BRANCH   2  11
ATOM     11  C15 DJZ d   1      47.211  65.532  16.607  0.00  0.00    -0.049 C 
ATOM     12  H   DJZ d   1      47.523  65.111  15.651  0.00  0.00     0.033 H 
ATOM     13  H   DJZ d   1      46.137  65.397  16.732  0.00  0.00     0.033 H 
ATOM     14  H   DJZ d   1      47.450  66.595  16.633  0.00  0.00     0.033 H 
ENDBRANCH   2  11
BRANCH   6  15
ATOM     15  C14 DJZ d   1      48.580  61.357  19.472  0.00  0.00    -0.049 C 
ATOM     16  H   DJZ d   1      49.596  60.967  19.420  0.00  0.00     0.033 H 
ATOM     17  H   DJZ d   1      48.190  61.224  20.481  0.00  0.00     0.033 H 
ATOM     18  H   DJZ d   1      47.947  60.823  18.763  0.00  0.00     0.033 H 
ENDBRANCH   6  15
BRANCH   1  19
ATOM     19  O1  DJZ d   1      47.064  62.601  17.141  0.00  0.00    -0.290 OA
BRANCH  19  20
ATOM     20  C2  DJZ d   1      47.535  62.289  15.880  0.00  0.00     0.190 A 
ATOM     21  N3  DJZ d   1      48.732  62.847  15.371  0.00  0.00    -0.038 NA
ATOM     22  C6  DJZ d   1      49.265  62.591  14.100  0.00  0.00     0.724 A 
ATOM     23  N4  DJZ d   1      48.599  61.692  13.210  0.00  0.00    -0.075 NA
ATOM     24  C5  DJZ d   1      47.407  61.102  13.679  0.00  0.00     0.025 A 
ATOM     25  C7  DJZ d   1      46.848  61.395  15.029  0.00  0.00    -0.013 A 
ATOM     26  H   DJZ d   1      46.875  60.406  13.030  0.00  0.00     0.115 H 
ATOM     27  H   DJZ d   1      45.920  60.925  15.356  0.00  0.00     0.092 H 
BRANCH  22  28
ATOM     28  N17 DJZ d   1      50.431  63.204  13.716  0.00  0.00    -0.218 N 
ATOM     29  H   DJZ d   1      50.667  63.252  12.725  0.00  0.00     0.178 HD
BRANCH  28  30
ATOM     30  C18 DJZ d   1      51.320  63.775  14.675  0.00  0.00     0.029 C 
ATOM     31  C19 DJZ d   1      52.738  63.680  14.119  0.00  0.00    -0.021 C 
ATOM     32  C20 DJZ d   1      53.563  64.498  15.063  0.00  0.00     0.116 C 
ATOM     33  H   DJZ d   1      52.802  64.048  13.095  0.00  0.00     0.038 H 
ATOM     34  H   DJZ d   1      53.086  62.649  14.059  0.00  0.00     0.038 H 
ATOM     35  N21 DJZ d   1      53.190  65.911  15.024  0.00  0.00     0.092 N 
ATOM     36  H   DJZ d   1      54.609  64.411  14.768  0.00  0.00     0.080 H 
ATOM     37  H   DJZ d   1      53.396  64.127  16.074  0.00  0.00     0.080 H 
ATOM     38  C22 DJZ d   1      51.877  66.028  15.700  0.00  0.00     0.116 C 
ATOM     39  C23 DJZ d   1      50.788  65.254  14.893  0.00  0.00    -0.021 C 
ATOM     40  H   DJZ d   1      51.598  67.080  15.760  0.00  0.00     0.080 H 
ATOM     41  H   DJZ d   1      51.951  65.603  16.701  0.00  0.00     0.080 H 
ATOM     42  H   DJZ d   1      49.844  65.244  15.438  0.00  0.00     0.038 H 
ATOM     43  H   DJZ d   1      50.606  65.740  13.934  0.00  0.00     0.038 H 
ATOM     44  H   DJZ d   1      51.351  63.270  15.641  0.00  0.00     0.073 H 
BRANCH  35  45
ATOM     45  C25 DJZ d   1      54.234  66.674  15.709  0.00  0.00     0.137 C 
ATOM     46  H   DJZ d   1      55.200  66.394  15.289  0.00  0.00     0.087 H 
ATOM     47  H   DJZ d   1      54.184  66.450  16.774  0.00  0.00     0.087 H 
BRANCH  45  48
ATOM     48  C26 DJZ d   1      54.039  68.193  15.518  0.00  0.00    -0.030 A 
ATOM     49  C27 DJZ d   1      54.523  69.039  16.567  0.00  0.00    -0.074 A 
ATOM     50  C28 DJZ d   1      54.323  70.436  16.376  0.00  0.00    -0.061 A 
ATOM     51  H   DJZ d   1      55.013  68.639  17.455  0.00  0.00     0.084 H 
ATOM     52  C29 DJZ d   1      53.667  71.065  15.210  0.00  0.00     0.058 A 
ATOM     53  H   DJZ d   1      54.686  71.101  17.160  0.00  0.00     0.085 H 
ATOM     54  C30 DJZ d   1      53.177  70.184  14.128  0.00  0.00    -0.061 A 
ATOM     55  C31 DJZ d   1      53.366  68.785  14.287  0.00  0.00    -0.074 A 
ATOM     56  H   DJZ d   1      52.690  70.592  13.243  0.00  0.00     0.085 H 
ATOM     57  H   DJZ d   1      53.018  68.113  13.502  0.00  0.00     0.084 H 
BRANCH  52  58
ATOM     58  S32 DJZ d   1      53.477  72.901  15.124  0.00  0.00     0.171 S 
ATOM     59  O33 DJZ d   1      54.246  73.098  13.917  0.00  0.00    -0.223 OA
ATOM     60  O34 DJZ d   1      52.044  73.155  14.905  0.00  0.00    -0.223 OA
BRANCH  58  61
ATOM     61  C35 DJZ d   1      54.474  73.498  16.537  0.00  0.00     0.020 C 
ATOM     62  H   DJZ d   1      55.405  72.933  16.588  0.00  0.00     0.049 H 
ATOM     63  H   DJZ d   1      54.697  74.556  16.401  0.00  0.00     0.049 H 
ATOM     64  H   DJZ d   1      53.912  73.359  17.461  0.00  0.00     0.049 H 
ENDBRANCH  58  61
ENDBRANCH  52  58
ENDBRANCH  45  48
ENDBRANCH  35  45
ENDBRANCH  28  30
ENDBRANCH  22  28
ENDBRANCH  19  20
ENDBRANCH   1  19
TORSDOF 10
