REMARK  12 active torsions:
REMARK  status: ('A' for Active; 'I' for Inactive)
REMARK    1  A    between atoms: OBD_7  and  PAZ_3 
REMARK    2  A    between atoms: NBH_11  and  CBC_6 
REMARK    3  A    between atoms: PBK_14  and  OBD_7 
REMARK    4  A    between atoms: OBU_24  and  PBK_14 
REMARK    5  A    between atoms: CBM_16  and  NBV_25 
REMARK    6  A    between atoms: CBQ_20  and  NBP_19 
REMARK    7  A    between atoms: CBT_23  and  CBS_22 
REMARK    8  A    between atoms: CBT_23  and  OBU_24 
REMARK    9  A    between atoms: NBV_25  and  CBW_26 
REMARK   10  A    between atoms: NBV_25  and  CBZ_29 
REMARK   11  A    between atoms: CBX_27  and  OCA_30 
REMARK   12  A    between atoms: CBY_28  and  OCB_31 
ROOT
ATOM      1  OBB M7M d   1       1.992  21.508   0.009  0.00  0.00    -0.265 OA
ATOM      2  NBE M7M d   1       2.120  20.757  -2.093  0.00  0.00    -0.154 N 
ATOM      3  CBF M7M d   1       2.178  20.571  -0.780  0.00  0.00     0.290 A 
ATOM      4  CBG M7M d   1       2.467  19.306  -0.360  0.00  0.00     0.149 A 
ATOM      5  NBH M7M d   1       2.580  18.899   0.874  0.00  0.00    -0.340 N 
ATOM      6  CBI M7M d   1       2.865  17.610   0.822  0.00  0.00     0.049 A 
ATOM      7  CBM M7M d   1       2.332  19.737  -2.921  0.00  0.00     0.684 A 
ATOM      8  NBN M7M d   1       2.614  18.498  -2.513  0.00  0.00    -0.174 N 
ATOM      9  CBO M7M d   1       2.683  18.273  -1.206  0.00  0.00     0.159 A 
ATOM     10  NBP M7M d   1       2.919  17.232  -0.446  0.00  0.00    -0.296 N 
ATOM     11  H   M7M d   1       1.913  21.683  -2.468  0.00  0.00     0.187 HD
ATOM     12  H   M7M d   1       3.029  16.962   1.683  0.00  0.00     0.141 H 
ATOM     13  H   M7M d   1       2.772  17.747  -3.185  0.00  0.00     0.186 HD
ENDROOT
BRANCH  10  14
ATOM     14  CBQ M7M d   1       3.211  15.880  -0.917  0.00  0.00     0.139 C 
ATOM     15  OBR M7M d   1       3.403  14.990   0.166  0.00  0.00    -0.353 OA
ATOM     16  CBS M7M d   1       4.773  14.700   0.382  0.00  0.00     0.089 C 
ATOM     17  CBY M7M d   1       5.514  15.577  -0.585  0.00  0.00     0.091 C 
ATOM     18  H   M7M d   1       4.976  13.635   0.266  0.00  0.00     0.090 H 
ATOM     19  CBX M7M d   1       4.517  15.959  -1.644  0.00  0.00     0.105 C 
ATOM     20  H   M7M d   1       5.919  16.474  -0.116  0.00  0.00     0.091 H 
ATOM     21  H   M7M d   1       4.763  16.922  -2.092  0.00  0.00     0.093 H 
ATOM     22  H   M7M d   1       2.385  15.523  -1.532  0.00  0.00     0.122 H 
BRANCH  16  23
ATOM     23  CBT M7M d   1       5.174  15.158   1.766  0.00  0.00     0.058 C 
ATOM     24  H   M7M d   1       4.797  16.165   1.942  0.00  0.00     0.079 H 
ATOM     25  H   M7M d   1       6.261  15.164   1.849  0.00  0.00     0.079 H 
BRANCH  23  26
ATOM     26  OBU M7M d   1       4.632  14.277   2.717  0.00  0.00    -0.287 OA
BRANCH  26  27
ATOM     27  PBK M7M d   1       4.798  14.588   4.260  0.00  0.00     0.418 P 
ATOM     28  OBJ M7M d   1       3.711  13.864   4.923  0.00  0.00    -0.624 OA
ATOM     29  OBL M7M d   1       5.021  16.038   4.477  0.00  0.00    -0.624 OA
BRANCH  27  30
ATOM     30  OBD M7M d   1       6.180  13.834   4.565  0.00  0.00    -0.173 OA
BRANCH  30  31
ATOM     31  PAZ M7M d   1       6.440  12.275   4.297  0.00  0.00     0.431 P 
ATOM     32  OAX M7M d   1       7.812  12.192   3.468  0.00  0.00    -0.616 OA
ATOM     33  OAY M7M d   1       6.710  11.603   5.597  0.00  0.00    -0.616 OA
ATOM     34  OBA M7M d   1       5.330  11.775   3.437  0.00  0.00    -0.616 OA
ENDBRANCH  30  31
ENDBRANCH  27  30
ENDBRANCH  26  27
ENDBRANCH  23  26
ENDBRANCH  16  23
BRANCH  17  35
ATOM     35  OCB M7M d   1       6.624  14.872  -1.114  0.00  0.00    -0.390 OA
ATOM     36  H   M7M d   1       6.318  14.066  -1.537  0.00  0.00     0.210 HD
ENDBRANCH  17  35
BRANCH  19  37
ATOM     37  OCA M7M d   1       4.455  14.993  -2.677  0.00  0.00    -0.388 OA
ATOM     38  H   M7M d   1       5.318  14.911  -3.089  0.00  0.00     0.210 HD
ENDBRANCH  19  37
ENDBRANCH  10  14
BRANCH   5  39
ATOM     39  CBC M7M d   1       2.406  19.733   2.070  0.00  0.00    -0.013 C 
ATOM     40  H   M7M d   1       3.132  20.546   2.053  0.00  0.00     0.057 H 
ATOM     41  H   M7M d   1       1.397  20.145   2.080  0.00  0.00     0.057 H 
ATOM     42  H   M7M d   1       2.560  19.125   2.961  0.00  0.00     0.057 H 
ENDBRANCH   5  39
BRANCH   7  43
ATOM     43  NBV M7M d   1       2.256  20.013  -4.211  0.00  0.00    -0.226 N 
BRANCH  43  44
ATOM     44  CBW M7M d   1       2.470  18.971  -5.178  0.00  0.00    -0.003 C 
ATOM     45  H   M7M d   1       3.472  18.560  -5.052  0.00  0.00     0.057 H 
ATOM     46  H   M7M d   1       1.732  18.183  -5.030  0.00  0.00     0.057 H 
ATOM     47  H   M7M d   1       2.368  19.383  -6.182  0.00  0.00     0.057 H 
ENDBRANCH  43  44
BRANCH  43  48
ATOM     48  CBZ M7M d   1       1.959  21.365  -4.617  0.00  0.00    -0.003 C 
ATOM     49  H   M7M d   1       0.990  21.659  -4.215  0.00  0.00     0.057 H 
ATOM     50  H   M7M d   1       2.730  22.035  -4.237  0.00  0.00     0.057 H 
ATOM     51  H   M7M d   1       1.933  21.419  -5.705  0.00  0.00     0.057 H 
ENDBRANCH  43  48
ENDBRANCH   7  43
TORSDOF 12
