REMARK  24 active torsions:
REMARK  status: ('A' for Active; 'I' for Inactive)
REMARK    1  A    between atoms: C_1  and  N_2 
REMARK    2  A    between atoms: S_4  and  C3_7 
REMARK    3  A    between atoms: N6_10  and  S_4 
REMARK    4  A    between atoms: C8_12  and  N6_10 
REMARK    5  A    between atoms: N6_10  and  C10_14 
REMARK    6  A    between atoms: C9_13  and  C8_12 
REMARK    7  A    between atoms: C8_12  and  C26_30 
REMARK    8  A    between atoms: C15_19  and  C9_13 
REMARK    9  A    between atoms: C10_14  and  C11_15 
REMARK   10  A    between atoms: C11_15  and  C12_16 
REMARK   11  A    between atoms: C12_16  and  C13_17 
REMARK   12  A    between atoms: C12_16  and  C14_18 
REMARK   13  A    between atoms: C16_20  and  C15_19 
REMARK   14  A    between atoms: C17_21  and  C16_20 
REMARK   15  A    between atoms: N18_22  and  C17_21 
REMARK   16  A    between atoms: C17_21  and  C41_45 
REMARK       I    between atoms: C19_23  and  N18_22 
REMARK   17  A    between atoms: C20_24  and  C19_23 
REMARK   18  A    between atoms: C20_24  and  N21_25 
REMARK   19  A    between atoms: C42_46  and  C20_24 
REMARK       I    between atoms: N21_25  and  C22_26 
REMARK   20  A    between atoms: C22_26  and  O23_27 
REMARK   21  A    between atoms: O23_27  and  C24_28 
REMARK   22  A    between atoms: C26_30  and  O27_31 
REMARK   23  A    between atoms: C42_46  and  C29_33 
REMARK   24  A    between atoms: C30_34  and  C42_46 
ROOT
ATOM      1  C16 595 d   1     -18.890  17.710  -8.104  0.00  0.00    -0.046 C 
ATOM      2  H23 595 d   1     -18.133  17.385  -8.833  0.00  0.00     0.035 H 
ATOM      3  H24 595 d   1     -19.692  18.254  -8.625  0.00  0.00     0.035 H 
ENDROOT
BRANCH   1   4
ATOM      4  C15 595 d   1     -18.226  18.658  -7.093  0.00  0.00    -0.061 C 
ATOM      5  H21 595 d   1     -17.945  19.579  -7.624  0.00  0.00     0.033 H 
ATOM      6  H22 595 d   1     -18.964  18.895  -6.312  0.00  0.00     0.033 H 
BRANCH   4   7
ATOM      7  C9  595 d   1     -16.966  18.100  -6.405  0.00  0.00    -0.043 C 
ATOM      8  H8  595 d   1     -17.249  17.256  -5.759  0.00  0.00     0.036 H 
ATOM      9  H9  595 d   1     -16.257  17.753  -7.172  0.00  0.00     0.036 H 
BRANCH   7  10
ATOM     10  C8  595 d   1     -16.297  19.191  -5.551  0.00  0.00     0.043 C 
ATOM     11  H7  595 d   1     -17.146  19.673  -5.044  0.00  0.00     0.077 H 
BRANCH  10  12
ATOM     12  N6  595 d   1     -15.697  20.324  -6.330  0.00  0.00    -0.300 N 
BRANCH  12  13
ATOM     13  S   595 d   1     -16.317  21.872  -6.001  0.00  0.00     0.261 S 
ATOM     14  O   595 d   1     -17.953  21.706  -5.568  0.00  0.00    -0.200 OA
ATOM     15  O7  595 d   1     -16.112  22.784  -7.407  0.00  0.00    -0.200 OA
BRANCH  13  16
ATOM     16  C3  595 d   1     -15.367  22.601  -4.785  0.00  0.00     0.079 A 
ATOM     17  C2  595 d   1     -14.395  23.567  -5.072  0.00  0.00    -0.058 A 
ATOM     18  C1  595 d   1     -13.614  24.179  -4.088  0.00  0.00    -0.056 A 
ATOM     19  H4  595 d   1     -14.241  23.854  -6.106  0.00  0.00     0.086 H 
ATOM     20  C   595 d   1     -13.728  23.869  -2.734  0.00  0.00     0.025 A 
ATOM     21  H3  595 d   1     -12.889  24.926  -4.391  0.00  0.00     0.086 H 
ATOM     22  C5  595 d   1     -14.700  22.903  -2.445  0.00  0.00    -0.056 A 
ATOM     23  C4  595 d   1     -15.489  22.298  -3.431  0.00  0.00    -0.058 A 
ATOM     24  H6  595 d   1     -14.848  22.611  -1.412  0.00  0.00     0.086 H 
ATOM     25  H5  595 d   1     -16.226  21.563  -3.128  0.00  0.00     0.086 H 
BRANCH  20  26
ATOM     26  N   595 d   1     -12.978  24.460  -1.781  0.00  0.00    -0.399 N 
ATOM     27  H1  595 d   1     -12.275  25.166  -2.043  0.00  0.00     0.156 HD
ATOM     28  H2  595 d   1     -13.108  24.206  -0.791  0.00  0.00     0.156 HD
ENDBRANCH  20  26
ENDBRANCH  13  16
ENDBRANCH  12  13
BRANCH  12  29
ATOM     29  C10 595 d   1     -14.946  20.128  -7.600  0.00  0.00     0.006 C 
ATOM     30  H10 595 d   1     -15.318  20.851  -8.341  0.00  0.00     0.065 H 
ATOM     31  H11 595 d   1     -15.130  19.105  -7.961  0.00  0.00     0.065 H 
BRANCH  29  32
ATOM     32  C11 595 d   1     -13.444  20.324  -7.443  0.00  0.00    -0.047 C 
ATOM     33  H12 595 d   1     -12.920  19.543  -8.014  0.00  0.00     0.035 H 
ATOM     34  H13 595 d   1     -13.182  20.237  -6.378  0.00  0.00     0.035 H 
BRANCH  32  35
ATOM     35  C12 595 d   1     -13.000  21.692  -7.952  0.00  0.00    -0.060 C 
ATOM     36  H14 595 d   1     -13.423  22.474  -7.304  0.00  0.00     0.038 H 
BRANCH  35  37
ATOM     37  C13 595 d   1     -13.455  21.934  -9.396  0.00  0.00    -0.073 C 
ATOM     38  H15 595 d   1     -13.117  22.927  -9.725  0.00  0.00     0.028 H 
ATOM     39  H16 595 d   1     -14.553  21.885  -9.448  0.00  0.00     0.028 H 
ATOM     40  H17 595 d   1     -13.022  21.163 -10.051  0.00  0.00     0.028 H 
ENDBRANCH  35  37
BRANCH  35  41
ATOM     41  C14 595 d   1     -11.472  21.751  -7.905  0.00  0.00    -0.073 C 
ATOM     42  H18 595 d   1     -11.130  21.579  -6.874  0.00  0.00     0.028 H 
ATOM     43  H19 595 d   1     -11.133  22.741  -8.243  0.00  0.00     0.028 H 
ATOM     44  H20 595 d   1     -11.055  20.975  -8.564  0.00  0.00     0.028 H 
ENDBRANCH  35  41
ENDBRANCH  32  35
ENDBRANCH  29  32
ENDBRANCH  12  29
ENDBRANCH  10  12
BRANCH  10  45
ATOM     45  C26 595 d   1     -15.473  18.623  -4.378  0.00  0.00     0.036 C 
ATOM     46  H32 595 d   1     -15.961  17.692  -4.054  0.00  0.00     0.077 H 
ATOM     47  H33 595 d   1     -15.511  19.360  -3.562  0.00  0.00     0.077 H 
BRANCH  45  48
ATOM     48  O27 595 d   1     -14.088  18.320  -4.619  0.00  0.00    -0.399 OA
ATOM     49  H34 595 d   1     -14.023  17.670  -5.309  0.00  0.00     0.209 HD
ENDBRANCH  45  48
ENDBRANCH  10  45
ENDBRANCH   7  10
ENDBRANCH   4   7
ENDBRANCH   1   4
BRANCH   1  50
ATOM     50  C17 595 d   1     -19.491  16.472  -7.436  0.00  0.00     0.009 C 
ATOM     51  H25 595 d   1     -18.752  16.007  -6.768  0.00  0.00     0.071 H 
BRANCH  50  52
ATOM     52  N18 595 d   1     -20.691  16.828  -6.686  0.00  0.00    -0.355 N 
ATOM     53  C19 595 d   1     -21.203  16.157  -5.641  0.00  0.00     0.241 C 
ATOM     54  O28 595 d   1     -20.633  15.221  -5.102  0.00  0.00    -0.271 OA
ATOM     55  H26 595 d   1     -21.179  17.651  -6.978  0.00  0.00     0.162 HD
BRANCH  53  56
ATOM     56  C20 595 d   1     -22.533  16.621  -5.111  0.00  0.00     0.102 C 
ATOM     57  H27 595 d   1     -22.783  17.530  -5.677  0.00  0.00     0.089 H 
BRANCH  56  58
ATOM     58  N21 595 d   1     -23.580  15.672  -5.483  0.00  0.00    -0.323 N 
ATOM     59  C22 595 d   1     -24.586  15.771  -6.371  0.00  0.00     0.360 C 
ATOM     60  O25 595 d   1     -24.864  16.728  -7.089  0.00  0.00    -0.239 OA
ATOM     61  H28 595 d   1     -23.542  14.800  -4.994  0.00  0.00     0.165 HD
BRANCH  59  62
ATOM     62  O23 595 d   1     -25.389  14.702  -6.490  0.00  0.00    -0.309 OA
BRANCH  62  63
ATOM     63  C24 595 d   1     -26.562  14.775  -7.337  0.00  0.00     0.015 C 
ATOM     64  H29 595 d   1     -27.094  13.812  -7.311  0.00  0.00     0.067 H 
ATOM     65  H30 595 d   1     -26.255  14.996  -8.370  0.00  0.00     0.067 H 
ATOM     66  H31 595 d   1     -27.228  15.572  -6.973  0.00  0.00     0.067 H 
ENDBRANCH  62  63
ENDBRANCH  59  62
ENDBRANCH  56  58
BRANCH  56  67
ATOM     67  C42 595 d   1     -22.408  17.110  -3.667  0.00  0.00     0.025 C 
ATOM     68  H48 595 d   1     -22.277  16.166  -3.117  0.00  0.00     0.058 H 
BRANCH  67  69
ATOM     69  C29 595 d   1     -23.610  17.730  -2.982  0.00  0.00    -0.047 A 
ATOM     70  C36 595 d   1     -23.722  17.560  -1.599  0.00  0.00    -0.076 A 
ATOM     71  C37 595 d   1     -24.780  18.112  -0.885  0.00  0.00    -0.082 A 
ATOM     72  H40 595 d   1     -22.968  16.986  -1.072  0.00  0.00     0.084 H 
ATOM     73  C38 595 d   1     -25.757  18.863  -1.542  0.00  0.00    -0.083 A 
ATOM     74  H41 595 d   1     -24.847  17.959   0.186  0.00  0.00     0.083 H 
ATOM     75  C39 595 d   1     -25.655  19.051  -2.917  0.00  0.00    -0.082 A 
ATOM     76  H42 595 d   1     -26.584  19.294  -0.988  0.00  0.00     0.083 H 
ATOM     77  C40 595 d   1     -24.587  18.487  -3.623  0.00  0.00    -0.076 A 
ATOM     78  H43 595 d   1     -26.403  19.635  -3.441  0.00  0.00     0.083 H 
ATOM     79  H44 595 d   1     -24.519  18.643  -4.694  0.00  0.00     0.084 H 
ENDBRANCH  67  69
BRANCH  67  80
ATOM     80  C30 595 d   1     -21.134  17.883  -3.357  0.00  0.00    -0.047 A 
ATOM     81  C31 595 d   1     -20.061  17.257  -2.725  0.00  0.00    -0.076 A 
ATOM     82  C32 595 d   1     -18.895  17.976  -2.441  0.00  0.00    -0.082 A 
ATOM     83  H35 595 d   1     -20.130  16.210  -2.453  0.00  0.00     0.084 H 
ATOM     84  C33 595 d   1     -18.742  19.321  -2.769  0.00  0.00    -0.083 A 
ATOM     85  H36 595 d   1     -18.077  17.465  -1.945  0.00  0.00     0.083 H 
ATOM     86  C34 595 d   1     -19.806  19.963  -3.400  0.00  0.00    -0.082 A 
ATOM     87  H37 595 d   1     -17.825  19.852  -2.541  0.00  0.00     0.083 H 
ATOM     88  C35 595 d   1     -20.964  19.234  -3.666  0.00  0.00    -0.076 A 
ATOM     89  H38 595 d   1     -19.735  21.008  -3.678  0.00  0.00     0.083 H 
ATOM     90  H39 595 d   1     -21.788  19.751  -4.145  0.00  0.00     0.084 H 
ENDBRANCH  67  80
ENDBRANCH  56  67
ENDBRANCH  53  56
ENDBRANCH  50  52
BRANCH  50  91
ATOM     91  C41 595 d   1     -19.907  15.496  -8.547  0.00  0.00    -0.057 C 
ATOM     92  H45 595 d   1     -20.344  14.593  -8.097  0.00  0.00     0.030 H 
ATOM     93  H46 595 d   1     -19.024  15.219  -9.141  0.00  0.00     0.030 H 
ATOM     94  H47 595 d   1     -20.651  15.978  -9.199  0.00  0.00     0.030 H 
ENDBRANCH  50  91
ENDBRANCH   1  50
TORSDOF 24
