REMARK  2 active torsions:
REMARK  status: ('A' for Active; 'I' for Inactive)
REMARK    1  A    between atoms: CAL_12  and  CAR_18 
REMARK    2  A    between atoms: CAO_15  and  CAQ_17 
ROOT
ATOM      1  CAA 01I d   1     -21.831  39.490   0.793  0.00  0.00    -0.059 A 
ATOM      2  CAB 01I d   1     -22.027  39.435  -0.582  0.00  0.00     0.002 A 
ATOM      3  CAC 01I d   1     -21.352  38.532  -1.344  0.00  0.00     0.087 A 
ATOM      4  CAD 01I d   1     -20.441  37.628  -0.833  0.00  0.00    -0.038 A 
ATOM      5  CAE 01I d   1     -20.232  37.664   0.523  0.00  0.00    -0.010 A 
ATOM      6  CAF 01I d   1     -20.915  38.589   1.329  0.00  0.00    -0.024 A 
ATOM      7  CAG 01I d   1     -19.334  36.805   1.137  0.00  0.00     0.012 A 
ATOM      8  CAH 01I d   1     -19.109  36.861   2.480  0.00  0.00     0.087 A 
ATOM      9  CAI 01I d   1     -19.790  37.735   3.290  0.00  0.00    -0.049 A 
ATOM     10  CAJ 01I d   1     -20.684  38.620   2.698  0.00  0.00    -0.070 A 
ATOM     11  CAK 01I d   1     -22.863  40.163  -1.496  0.00  0.00    -0.031 A 
ATOM     12  CAL 01I d   1     -22.601  39.631  -2.760  0.00  0.00     0.153 A 
ATOM     13  OAM 01I d   1     -21.746  38.700  -2.693  0.00  0.00    -0.303 OA
ATOM     14  CAN 01I d   1     -18.488  35.774   0.619  0.00  0.00    -0.030 A 
ATOM     15  CAO 01I d   1     -17.821  35.264   1.743  0.00  0.00     0.153 A 
ATOM     16  OAP 01I d   1     -18.145  35.874   2.814  0.00  0.00    -0.303 OA
ATOM     17  H   01I d   1     -22.367  40.203   1.420  0.00  0.00     0.086 H 
ATOM     18  H   01I d   1     -19.915  36.921  -1.475  0.00  0.00     0.089 H 
ATOM     19  H   01I d   1     -19.634  37.735   4.369  0.00  0.00     0.087 H 
ATOM     20  H   01I d   1     -21.210  39.347   3.316  0.00  0.00     0.085 H 
ATOM     21  H   01I d   1     -23.559  40.966  -1.253  0.00  0.00     0.089 H 
ATOM     22  H   01I d   1     -18.385  35.456  -0.418  0.00  0.00     0.089 H 
ENDROOT
BRANCH  12  23
ATOM     23  CAR 01I d   1     -23.104  39.896  -4.145  0.00  0.00     0.234 C 
ATOM     24  OAS 01I d   1     -22.500  39.363  -5.113  0.00  0.00    -0.642 OA
ATOM     25  OAV 01I d   1     -24.098  40.642  -4.299  0.00  0.00    -0.642 OA
ENDBRANCH  12  23
BRANCH  15  26
ATOM     26  CAQ 01I d   1     -16.828  34.181   1.915  0.00  0.00     0.234 C 
ATOM     27  OAT 01I d   1     -16.239  34.105   3.024  0.00  0.00    -0.642 OA
ATOM     28  OAU 01I d   1     -16.672  33.386   0.952  0.00  0.00    -0.642 OA
ENDBRANCH  15  26
TORSDOF 2
