REMARK  2 active torsions:
REMARK  status: ('A' for Active; 'I' for Inactive)
REMARK    1  A    between atoms: N3_3  and  CN3_4 
REMARK    2  A    between atoms: C6_7  and  N6_8 
ROOT
ATOM      1  N9  3MA d   1      16.587  14.258  22.170  0.00  0.00    -0.335 N 
ATOM      2  C4  3MA d   1      17.123  13.100  21.622  0.00  0.00     0.142 A 
ATOM      3  N3  3MA d   1      16.877  11.811  22.009  0.00  0.00    -0.330 N 
ATOM      4  C2  3MA d   1      17.590  10.968  21.241  0.00  0.00     0.069 A 
ATOM      5  N1  3MA d   1      18.422  11.217  20.224  0.00  0.00    -0.224 NA
ATOM      6  C6  3MA d   1      18.627  12.484  19.858  0.00  0.00     0.155 A 
ATOM      7  C5  3MA d   1      17.949  13.503  20.593  0.00  0.00     0.147 A 
ATOM      8  N7  3MA d   1      17.929  14.900  20.488  0.00  0.00    -0.236 NA
ATOM      9  C8  3MA d   1      17.113  15.286  21.434  0.00  0.00     0.066 A 
ATOM     10  H1  3MA d   1      15.932  14.329  22.962  0.00  0.00     0.168 HD
ATOM     11  H5  3MA d   1      17.471   9.919  21.485  0.00  0.00     0.143 H 
ATOM     12  H8  3MA d   1      16.873  16.332  21.620  0.00  0.00     0.143 H 
ENDROOT
BRANCH   3  13
ATOM     13  CN3 3MA d   1      15.983  11.363  23.063  0.00  0.00    -0.012 C 
ATOM     14  H2  3MA d   1      16.009  10.265  23.124  0.00  0.00     0.057 H 
ATOM     15  H3  3MA d   1      14.958  11.693  22.839  0.00  0.00     0.057 H 
ATOM     16  H4  3MA d   1      16.305  11.792  24.024  0.00  0.00     0.057 H 
ENDBRANCH   3  13
BRANCH   6  17
ATOM     17  N6  3MA d   1      19.426  12.709  18.829  0.00  0.00    -0.382 N 
ATOM     18  H6  3MA d   1      19.607  13.674  18.519  0.00  0.00     0.157 HD
ATOM     19  H7  3MA d   1      19.868  11.919  18.337  0.00  0.00     0.157 HD
ENDBRANCH   6  17
TORSDOF 2
