REMARK  4 active torsions:
REMARK  status: ('A' for Active; 'I' for Inactive)
REMARK    1  A    between atoms: N1_1  and  C2_2 
REMARK    2  A    between atoms: C5_5  and  C17_17 
REMARK    3  A    between atoms: C7_7  and  N8_8 
REMARK       I    between atoms: N8_8  and  C9_9 
REMARK    4  A    between atoms: C9_9  and  C11_11 
ROOT
ATOM      1  C2  LLX d   1      65.450  28.733  -0.343  0.00  0.00     0.052 A 
ATOM      2  C3  LLX d   1      64.221  28.125  -0.069  0.00  0.00    -0.055 A 
ATOM      3  C4  LLX d   1      63.789  27.979   1.241  0.00  0.00    -0.070 A 
ATOM      4  C5  LLX d   1      64.566  28.437   2.317  0.00  0.00    -0.024 A 
ATOM      5  C6  LLX d   1      65.792  29.077   2.041  0.00  0.00    -0.044 A 
ATOM      6  C7  LLX d   1      66.221  29.218   0.726  0.00  0.00     0.062 A 
ATOM      7  H3  LLX d   1      63.603  27.766  -0.884  0.00  0.00     0.087 H 
ATOM      8  H4  LLX d   1      62.835  27.503   1.437  0.00  0.00     0.084 H 
ATOM      9  H5  LLX d   1      66.400  29.459   2.854  0.00  0.00     0.088 H 
ENDROOT
BRANCH   6  10
ATOM     10  N8  LLX d   1      67.478  29.788   0.459  0.00  0.00    -0.321 N 
ATOM     11  C9  LLX d   1      67.622  30.832  -0.373  0.00  0.00     0.256 C 
ATOM     12  O10 LLX d   1      66.632  31.323  -0.889  0.00  0.00    -0.267 OA
ATOM     13  H6  LLX d   1      68.289  29.405   0.902  0.00  0.00     0.169 HD
BRANCH  11  14
ATOM     14  C11 LLX d   1      69.004  31.317  -0.605  0.00  0.00     0.032 A 
ATOM     15  C12 LLX d   1      70.060  30.416  -0.487  0.00  0.00    -0.068 A 
ATOM     16  C13 LLX d   1      71.367  30.826  -0.685  0.00  0.00    -0.082 A 
ATOM     17  H7  LLX d   1      69.856  29.381  -0.237  0.00  0.00     0.085 H 
ATOM     18  C14 LLX d   1      71.638  32.146  -1.005  0.00  0.00    -0.083 A 
ATOM     19  H8  LLX d   1      72.179  30.114  -0.590  0.00  0.00     0.083 H 
ATOM     20  C15 LLX d   1      70.594  33.057  -1.119  0.00  0.00    -0.082 A 
ATOM     21  H9  LLX d   1      72.661  32.468  -1.166  0.00  0.00     0.083 H 
ATOM     22  C16 LLX d   1      69.278  32.658  -0.916  0.00  0.00    -0.068 A 
ATOM     23  H10 LLX d   1      70.809  34.090  -1.369  0.00  0.00     0.083 H 
ATOM     24  H11 LLX d   1      68.470  33.376  -0.997  0.00  0.00     0.085 H 
ENDBRANCH  11  14
ENDBRANCH   6  10
BRANCH   1  25
ATOM     25  N1  LLX d   1      65.882  28.888  -1.678  0.00  0.00    -0.397 N 
ATOM     26  H1  LLX d   1      65.305  28.527  -2.451  0.00  0.00     0.156 HD
ATOM     27  H2  LLX d   1      66.774  29.362  -1.879  0.00  0.00     0.156 HD
ENDBRANCH   1  25
BRANCH   4  28
ATOM     28  C17 LLX d   1      64.095  28.308   3.730  0.00  0.00    -0.026 A 
ATOM     29  C18 LLX d   1      65.012  28.118   4.774  0.00  0.00    -0.072 A 
ATOM     30  C19 LLX d   1      64.554  28.039   6.088  0.00  0.00    -0.082 A 
ATOM     31  H12 LLX d   1      66.071  28.033   4.560  0.00  0.00     0.084 H 
ATOM     32  C20 LLX d   1      63.194  28.144   6.388  0.00  0.00    -0.083 A 
ATOM     33  H13 LLX d   1      65.266  27.893   6.892  0.00  0.00     0.083 H 
ATOM     34  C21 LLX d   1      62.273  28.341   5.364  0.00  0.00    -0.082 A 
ATOM     35  H14 LLX d   1      62.857  28.072   7.416  0.00  0.00     0.083 H 
ATOM     36  C22 LLX d   1      62.720  28.425   4.048  0.00  0.00    -0.072 A 
ATOM     37  H15 LLX d   1      61.216  28.428   5.589  0.00  0.00     0.083 H 
ATOM     38  H16 LLX d   1      62.002  28.583   3.252  0.00  0.00     0.084 H 
ENDBRANCH   4  28
TORSDOF 4
