REMARK  2 active torsions:
REMARK  status: ('A' for Active; 'I' for Inactive)
REMARK    1  A    between atoms: CAL_12  and  CAR_18 
REMARK    2  A    between atoms: CAO_15  and  CAQ_17 
ROOT
ATOM      1  CAA 01I d   1      23.249   9.923  12.236  0.00  0.00    -0.059 A 
ATOM      2  CAB 01I d   1      23.176  10.598  13.443  0.00  0.00     0.002 A 
ATOM      3  CAC 01I d   1      22.999   9.907  14.729  0.00  0.00     0.087 A 
ATOM      4  CAD 01I d   1      22.889   8.519  14.829  0.00  0.00    -0.038 A 
ATOM      5  CAE 01I d   1      22.957   7.813  13.619  0.00  0.00    -0.010 A 
ATOM      6  CAF 01I d   1      23.137   8.532  12.297  0.00  0.00    -0.024 A 
ATOM      7  CAG 01I d   1      22.866   6.424  13.540  0.00  0.00     0.012 A 
ATOM      8  CAH 01I d   1      22.941   5.762  12.224  0.00  0.00     0.087 A 
ATOM      9  CAI 01I d   1      23.110   6.444  11.031  0.00  0.00    -0.049 A 
ATOM     10  CAJ 01I d   1      23.206   7.833  11.086  0.00  0.00    -0.070 A 
ATOM     11  CAK 01I d   1      23.253  12.007  13.701  0.00  0.00    -0.031 A 
ATOM     12  CAL 01I d   1      23.124  12.133  15.091  0.00  0.00     0.153 A 
ATOM     13  OAM 01I d   1      22.971  10.916  15.742  0.00  0.00    -0.303 OA
ATOM     14  CAN 01I d   1      22.694   5.387  14.528  0.00  0.00    -0.030 A 
ATOM     15  CAO 01I d   1      22.673   4.185  13.791  0.00  0.00     0.153 A 
ATOM     16  OAP 01I d   1      22.825   4.360  12.429  0.00  0.00    -0.303 OA
ATOM     17  H1  01I d   1      23.386  10.445  11.296  0.00  0.00     0.086 H 
ATOM     18  H2  01I d   1      22.759   8.018  15.782  0.00  0.00     0.089 H 
ATOM     19  H3  01I d   1      23.166   5.915  10.086  0.00  0.00     0.087 H 
ATOM     20  H4  01I d   1      23.338   8.388  10.165  0.00  0.00     0.085 H 
ATOM     21  H5  01I d   1      23.384  12.807  12.973  0.00  0.00     0.089 H 
ATOM     22  H6  01I d   1      22.601   5.506  15.606  0.00  0.00     0.089 H 
ENDROOT
BRANCH  12  23
ATOM     23  CAR 01I d   1      23.151  13.452  15.802  0.00  0.00     0.234 C 
ATOM     24  OAS 01I d   1      23.026  13.463  17.049  0.00  0.00    -0.642 OA
ATOM     25  OAV 01I d   1      23.293  14.502  15.130  0.00  0.00    -0.642 OA
ENDBRANCH  12  23
BRANCH  15  26
ATOM     26  CAQ 01I d   1      22.514   2.807  14.341  0.00  0.00     0.234 C 
ATOM     27  OAT 01I d   1      22.382   2.627  15.573  0.00  0.00    -0.642 OA
ATOM     28  OAU 01I d   1      22.512   1.875  13.512  0.00  0.00    -0.642 OA
ENDBRANCH  15  26
TORSDOF 2
