REMARK  2 active torsions:
REMARK  status: ('A' for Active; 'I' for Inactive)
REMARK    1  A    between atoms: CAL_12  and  CAR_18 
REMARK    2  A    between atoms: CAO_15  and  CAQ_17 
ROOT
ATOM      1  CAA 14I d   1      22.866   9.397  11.257  0.00  0.00    -0.070 A 
ATOM      2  CAB 14I d   1      22.701  10.561  12.009  0.00  0.00    -0.049 A 
ATOM      3  CAC 14I d   1      22.596  10.436  13.387  0.00  0.00     0.087 A 
ATOM      4  CAD 14I d   1      22.648   9.144  14.083  0.00  0.00     0.013 A 
ATOM      5  CAE 14I d   1      22.802   7.979  13.341  0.00  0.00     0.000 A 
ATOM      6  CAF 14I d   1      22.918   8.130  11.855  0.00  0.00    -0.024 A 
ATOM      7  CAG 14I d   1      22.871   6.685  13.847  0.00  0.00     0.013 A 
ATOM      8  CAH 14I d   1      23.036   5.568  12.907  0.00  0.00     0.087 A 
ATOM      9  CAI 14I d   1      23.146   5.730  11.536  0.00  0.00    -0.049 A 
ATOM     10  CAJ 14I d   1      23.081   7.012  11.024  0.00  0.00    -0.070 A 
ATOM     11  CAK 14I d   1      22.514   9.402  15.495  0.00  0.00    -0.030 A 
ATOM     12  CAL 14I d   1      22.389  10.800  15.571  0.00  0.00     0.153 A 
ATOM     13  OAM 14I d   1      22.440  11.447  14.359  0.00  0.00    -0.303 OA
ATOM     14  CAN 14I d   1      22.801   6.132  15.177  0.00  0.00    -0.030 A 
ATOM     15  CAO 14I d   1      22.925   4.752  14.970  0.00  0.00     0.153 A 
ATOM     16  OAP 14I d   1      23.084   4.383  13.657  0.00  0.00    -0.303 OA
ATOM     17  H1  14I d   1      22.957   9.475  10.180  0.00  0.00     0.085 H 
ATOM     18  H2  14I d   1      22.656  11.533  11.531  0.00  0.00     0.087 H 
ATOM     19  H3  14I d   1      23.279   4.875  10.883  0.00  0.00     0.087 H 
ATOM     20  H4  14I d   1      23.158   7.157   9.953  0.00  0.00     0.085 H 
ATOM     21  H5  14I d   1      22.510   8.682  16.312  0.00  0.00     0.089 H 
ATOM     22  H6  14I d   1      22.680   6.662  16.120  0.00  0.00     0.089 H 
ENDROOT
BRANCH  12  23
ATOM     23  CAR 14I d   1      22.228  11.601  16.808  0.00  0.00     0.234 C 
ATOM     24  OAS 14I d   1      22.176  11.035  17.912  0.00  0.00    -0.642 OA
ATOM     25  OAV 14I d   1      22.136  12.834  16.668  0.00  0.00    -0.642 OA
ENDBRANCH  12  23
BRANCH  15  26
ATOM     26  CAQ 14I d   1      22.900   3.700  16.008  0.00  0.00     0.234 C 
ATOM     27  OAT 14I d   1      23.013   2.532  15.574  0.00  0.00    -0.642 OA
ATOM     28  OAU 14I d   1      22.781   4.007  17.217  0.00  0.00    -0.642 OA
ENDBRANCH  15  26
TORSDOF 2
