REMARK  9 active torsions:
REMARK  status: ('A' for Active; 'I' for Inactive)
REMARK    1  A    between atoms: N9_9  and  C10_10 
REMARK    2  A    between atoms: N11_11  and  C22_22 
REMARK    3  A    between atoms: C12_12  and  C23_23 
REMARK    4  A    between atoms: C14_14  and  C15_15 
REMARK       I    between atoms: C15_15  and  N17_17 
REMARK    5  A    between atoms: N17_17  and  O18_18 
REMARK    6  A    between atoms: O18_18  and  C19_19 
REMARK    7  A    between atoms: C19_19  and  C20_20 
REMARK    8  A    between atoms: C20_20  and  O21_21 
REMARK    9  A    between atoms: C23_23  and  C25_25 
ROOT
ATOM      1  C10 LSG d   1      32.044  26.671  40.829  0.00  0.00     0.124 A 
ATOM      2  N11 LSG d   1      32.149  25.361  40.593  0.00  0.00    -0.334 N 
ATOM      3  C12 LSG d   1      31.339  25.135  39.526  0.00  0.00     0.082 A 
ATOM      4  C13 LSG d   1      30.690  26.324  39.071  0.00  0.00    -0.034 A 
ATOM      5  C14 LSG d   1      31.099  27.346  39.896  0.00  0.00     0.080 A 
ATOM      6  H   LSG d   1      30.002  26.406  38.230  0.00  0.00     0.088 H 
ENDROOT
BRANCH   1   7
ATOM      7  N9  LSG d   1      32.717  27.353  41.789  0.00  0.00    -0.339 N 
ATOM      8  C5  LSG d   1      34.063  27.315  41.999  0.00  0.00     0.072 A 
ATOM      9  C4  LSG d   1      34.960  26.516  41.297  0.00  0.00    -0.053 A 
ATOM     10  C6  LSG d   1      34.600  28.144  43.099  0.00  0.00     0.144 A 
ATOM     11  C3  LSG d   1      36.301  26.499  41.631  0.00  0.00    -0.065 A 
ATOM     12  H   LSG d   1      34.601  25.897  40.475  0.00  0.00     0.087 H 
ATOM     13  C2  LSG d   1      36.819  27.305  42.685  0.00  0.00     0.009 A 
ATOM     14  H   LSG d   1      36.979  25.853  41.074  0.00  0.00     0.085 H 
ATOM     15  C1  LSG d   1      35.959  28.131  43.410  0.00  0.00    -0.027 A 
ATOM     16  I8  LSG d   1      38.895  27.222  43.173  0.00  0.00    -0.044 I 
ATOM     17  H   LSG d   1      36.346  28.760  44.212  0.00  0.00     0.090 H 
ATOM     18  F7  LSG d   1      33.714  28.893  43.772  0.00  0.00    -0.204 F 
ATOM     19  H   LSG d   1      32.167  27.947  42.409  0.00  0.00     0.167 HD
ENDBRANCH   1   7
BRANCH   2  20
ATOM     20  C22 LSG d   1      33.024  24.406  41.314  0.00  0.00    -0.012 C 
ATOM     21  H   LSG d   1      34.064  24.713  41.203  0.00  0.00     0.057 H 
ATOM     22  H   LSG d   1      32.757  24.398  42.371  0.00  0.00     0.057 H 
ATOM     23  H   LSG d   1      32.892  23.408  40.897  0.00  0.00     0.057 H 
ENDBRANCH   2  20
BRANCH   5  24
ATOM     24  C15 LSG d   1      30.819  28.799  40.049  0.00  0.00     0.279 C 
ATOM     25  O16 LSG d   1      31.280  29.392  41.048  0.00  0.00    -0.265 OA
ATOM     26  N17 LSG d   1      30.055  29.455  39.180  0.00  0.00    -0.231 N 
ATOM     27  H   LSG d   1      29.727  28.993  38.332  0.00  0.00     0.197 HD
BRANCH  26  28
ATOM     28  O18 LSG d   1      29.683  30.867  39.456  0.00  0.00    -0.275 OA
BRANCH  28  29
ATOM     29  C19 LSG d   1      28.514  31.532  38.929  0.00  0.00     0.065 C 
ATOM     30  H   LSG d   1      27.677  30.834  38.935  0.00  0.00     0.081 H 
ATOM     31  H   LSG d   1      28.725  31.867  37.913  0.00  0.00     0.081 H 
BRANCH  29  32
ATOM     32  C20 LSG d   1      28.155  32.744  39.787  0.00  0.00     0.039 C 
ATOM     33  H   LSG d   1      29.039  33.362  39.945  0.00  0.00     0.077 H 
ATOM     34  H   LSG d   1      27.784  32.415  40.758  0.00  0.00     0.077 H 
BRANCH  32  35
ATOM     35  O21 LSG d   1      27.138  33.505  39.104  0.00  0.00    -0.399 OA
ATOM     36  H   LSG d   1      26.362  32.955  38.973  0.00  0.00     0.209 HD
ENDBRANCH  32  35
ENDBRANCH  29  32
ENDBRANCH  28  29
ENDBRANCH  26  28
ENDBRANCH   5  24
BRANCH   3  37
ATOM     37  C23 LSG d   1      31.173  23.808  38.888  0.00  0.00     0.172 C 
ATOM     38  O24 LSG d   1      31.809  22.795  39.200  0.00  0.00    -0.291 OA
BRANCH  37  39
ATOM     39  C25 LSG d   1      30.155  23.837  37.796  0.00  0.00    -0.015 C 
ATOM     40  H   LSG d   1      30.628  23.564  36.853  0.00  0.00     0.038 H 
ATOM     41  H   LSG d   1      29.359  23.128  38.024  0.00  0.00     0.038 H 
ATOM     42  H   LSG d   1      29.737  24.841  37.717  0.00  0.00     0.038 H 
ENDBRANCH  37  39
ENDBRANCH   3  37
TORSDOF 9
