REMARK  18 active torsions:
REMARK  status: ('A' for Active; 'I' for Inactive)
REMARK    1  A    between atoms: O4_20  and  C1_1 
REMARK    2  A    between atoms: C2_2  and  O2_7 
REMARK    3  A    between atoms: C3_3  and  O3_8 
REMARK    4  A    between atoms: C4_4  and  O4_9 
REMARK    5  A    between atoms: C5_5  and  C6_6 
REMARK    6  A    between atoms: C6_6  and  O6_11 
REMARK    7  A    between atoms: O4_32  and  C1_12 
REMARK    8  A    between atoms: C2_13  and  O2_18 
REMARK    9  A    between atoms: C3_14  and  O3_19 
REMARK   10  A    between atoms: C4_15  and  O4_20 
REMARK   11  A    between atoms: C5_16  and  C6_17 
REMARK   12  A    between atoms: C6_17  and  O6_22 
REMARK   13  A    between atoms: C1_23  and  O1_29 
REMARK   14  A    between atoms: C2_24  and  O2_30 
REMARK   15  A    between atoms: C3_25  and  O3_31 
REMARK   16  A    between atoms: C4_26  and  O4_32 
REMARK   17  A    between atoms: C5_27  and  C6_28 
REMARK   18  A    between atoms: C6_28  and  O6_34 
ROOT
ATOM      1  C1  MOL d   1      11.322  15.557  41.118  0.00  0.00     0.159 C 
ATOM      2  C2  MOL d   1      10.708  16.002  42.423  0.00  0.00     0.110 C 
ATOM      3  C3  MOL d   1      10.217  17.422  42.196  0.00  0.00     0.092 C 
ATOM      4  C4  MOL d   1      11.419  18.260  41.829  0.00  0.00     0.096 C 
ATOM      5  C5  MOL d   1      12.154  17.762  40.577  0.00  0.00     0.089 C 
ATOM      6  O5  MOL d   1      12.440  16.376  40.757  0.00  0.00    -0.348 OA
ATOM      7  H12 MOL d   1      11.702  14.532  41.242  0.00  0.00     0.133 H 
ATOM      8  H13 MOL d   1      11.461  15.989  43.224  0.00  0.00     0.094 H 
ATOM      9  H14 MOL d   1       9.488  17.445  41.373  0.00  0.00     0.091 H 
ATOM     10  H15 MOL d   1      12.121  18.312  42.674  0.00  0.00     0.091 H 
ATOM     11  H16 MOL d   1      11.515  17.914  39.695  0.00  0.00     0.090 H 
ENDROOT
BRANCH   1  12
ATOM     12  O4  MOL d   1      10.285  15.520  40.166  0.00  0.00    -0.348 OA
BRANCH  12  13
ATOM     13  C4  MOL d   1      10.222  14.455  39.246  0.00  0.00     0.096 C 
ATOM     14  C3  MOL d   1       8.991  13.648  39.690  0.00  0.00     0.092 C 
ATOM     15  C2  MOL d   1       8.749  12.588  38.665  0.00  0.00     0.110 C 
ATOM     16  H24 MOL d   1       8.114  14.306  39.781  0.00  0.00     0.091 H 
ATOM     17  C1  MOL d   1       8.581  13.167  37.296  0.00  0.00     0.156 C 
ATOM     18  H23 MOL d   1       9.623  11.919  38.661  0.00  0.00     0.094 H 
ATOM     19  O5  MOL d   1       9.603  14.084  36.967  0.00  0.00    -0.349 OA
ATOM     20  H22 MOL d   1       8.554  12.349  36.562  0.00  0.00     0.133 H 
ATOM     21  C5  MOL d   1       9.907  15.118  37.876  0.00  0.00     0.089 C 
ATOM     22  H26 MOL d   1       9.068  15.821  37.985  0.00  0.00     0.090 H 
ATOM     23  H25 MOL d   1      11.139  13.848  39.218  0.00  0.00     0.091 H 
BRANCH  14  24
ATOM     24  O3  MOL d   1       9.264  13.002  40.952  0.00  0.00    -0.390 OA
ATOM     25  H31 MOL d   1       9.463  13.661  41.607  0.00  0.00     0.210 HD
ENDBRANCH  14  24
BRANCH  15  26
ATOM     26  O2  MOL d   1       7.591  11.818  38.946  0.00  0.00    -0.388 OA
ATOM     27  H30 MOL d   1       7.691  11.393  39.790  0.00  0.00     0.210 HD
ENDBRANCH  15  26
BRANCH  17  28
ATOM     28  O1  MOL d   1       7.393  13.938  37.232  0.00  0.00    -0.369 OA
ATOM     29  H29 MOL d   1       7.291  14.288  36.355  0.00  0.00     0.212 HD
ENDBRANCH  17  28
BRANCH  21  30
ATOM     30  C6  MOL d   1      11.113  15.820  37.262  0.00  0.00     0.043 C 
ATOM     31  H27 MOL d   1      11.835  15.070  36.906  0.00  0.00     0.078 H 
ATOM     32  H28 MOL d   1      11.592  16.460  38.018  0.00  0.00     0.078 H 
BRANCH  30  33
ATOM     33  O6  MOL d   1      10.665  16.635  36.146  0.00  0.00    -0.398 OA
ATOM     34  H32 MOL d   1      10.251  16.080  35.496  0.00  0.00     0.209 HD
ENDBRANCH  30  33
ENDBRANCH  21  30
ENDBRANCH  12  13
ENDBRANCH   1  12
BRANCH   2  35
ATOM     35  O2  MOL d   1       9.637  15.130  42.770  0.00  0.00    -0.388 OA
ATOM     36  H19 MOL d   1       9.225  15.438  43.569  0.00  0.00     0.210 HD
ENDBRANCH   2  35
BRANCH   3  37
ATOM     37  O3  MOL d   1       9.584  17.886  43.404  0.00  0.00    -0.390 OA
ATOM     38  H20 MOL d   1       9.296  18.783  43.285  0.00  0.00     0.210 HD
ENDBRANCH   3  37
BRANCH   5  39
ATOM     39  C6  MOL d   1      13.462  18.437  40.368  0.00  0.00     0.043 C 
ATOM     40  H17 MOL d   1      14.214  18.002  41.042  0.00  0.00     0.078 H 
ATOM     41  H18 MOL d   1      13.361  19.512  40.577  0.00  0.00     0.078 H 
BRANCH  39  42
ATOM     42  O6  MOL d   1      13.880  18.242  38.967  0.00  0.00    -0.398 OA
ATOM     43  H21 MOL d   1      13.227  18.618  38.388  0.00  0.00     0.209 HD
ENDBRANCH  39  42
ENDBRANCH   5  39
BRANCH   4  44
ATOM     44  O4  MOL d   1      10.853  19.582  41.514  0.00  0.00    -0.348 OA
BRANCH  44  45
ATOM     45  C1  MOL d   1      11.334  20.671  42.389  0.00  0.00     0.159 C 
ATOM     46  C2  MOL d   1      10.134  21.453  42.773  0.00  0.00     0.110 C 
ATOM     47  C3  MOL d   1       9.524  22.109  41.522  0.00  0.00     0.092 C 
ATOM     48  H2  MOL d   1      10.441  22.248  43.468  0.00  0.00     0.094 H 
ATOM     49  C4  MOL d   1      10.618  22.945  40.857  0.00  0.00     0.090 C 
ATOM     50  H3  MOL d   1       9.123  21.345  40.840  0.00  0.00     0.091 H 
ATOM     51  C5  MOL d   1      11.818  22.060  40.469  0.00  0.00     0.089 C 
ATOM     52  H4  MOL d   1      10.944  23.726  41.560  0.00  0.00     0.091 H 
ATOM     53  O5  MOL d   1      12.258  21.389  41.683  0.00  0.00    -0.348 OA
ATOM     54  H5  MOL d   1      11.531  21.340  39.689  0.00  0.00     0.090 H 
ATOM     55  H1  MOL d   1      11.809  20.262  43.293  0.00  0.00     0.133 H 
BRANCH  46  56
ATOM     56  O2  MOL d   1       9.180  20.612  43.443  0.00  0.00    -0.388 OA
ATOM     57  H8  MOL d   1       8.894  19.926  42.852  0.00  0.00     0.210 HD
ENDBRANCH  46  56
BRANCH  47  58
ATOM     58  O3  MOL d   1       8.513  23.053  41.891  0.00  0.00    -0.390 OA
ATOM     59  H9  MOL d   1       8.194  23.494  41.112  0.00  0.00     0.210 HD
ENDBRANCH  47  58
BRANCH  49  60
ATOM     60  O4  MOL d   1      10.171  23.525  39.704  0.00  0.00    -0.390 OA
ATOM     61  H10 MOL d   1       9.909  22.848  39.091  0.00  0.00     0.210 HD
ENDBRANCH  49  60
BRANCH  51  62
ATOM     62  C6  MOL d   1      12.986  22.901  40.017  0.00  0.00     0.043 C 
ATOM     63  H6  MOL d   1      13.393  23.451  40.879  0.00  0.00     0.078 H 
ATOM     64  H7  MOL d   1      12.645  23.616  39.254  0.00  0.00     0.078 H 
BRANCH  62  65
ATOM     65  O6  MOL d   1      14.007  22.072  39.463  0.00  0.00    -0.398 OA
ATOM     66  H11 MOL d   1      13.658  21.598  38.717  0.00  0.00     0.209 HD
ENDBRANCH  62  65
ENDBRANCH  51  62
ENDBRANCH  44  45
ENDBRANCH   4  44
TORSDOF 18
