REMARK  12 active torsions:
REMARK  status: ('A' for Active; 'I' for Inactive)
REMARK    1  A    between atoms: C1_1  and  C9_9 
REMARK    2  A    between atoms: C5_5  and  C10_10 
REMARK    3  A    between atoms: N3_19  and  C6_6 
REMARK       I    between atoms: C9_9  and  N2_18 
REMARK    4  A    between atoms: C10_10  and  O1_21 
REMARK    5  A    between atoms: C11_11  and  C12_12 
REMARK    6  A    between atoms: C13_13  and  C11_11 
REMARK    7  A    between atoms: C11_11  and  N3_19 
REMARK    8  A    between atoms: C13_13  and  C14_14 
REMARK    9  A    between atoms: C15_15  and  C13_13 
REMARK   10  A    between atoms: C13_13  and  S1_29 
REMARK   11  A    between atoms: O7_27  and  C15_15 
REMARK       I    between atoms: C16_16  and  N4_20 
REMARK   12  A    between atoms: C16_16  and  O7_27 
ROOT
ATOM      1  N3  MXC d   1     103.406  33.223  30.665  0.00  0.00    -0.359 N 
ATOM      2  H   MXC d   1     102.616  33.645  30.177  0.00  0.00     0.162 HD
ENDROOT
BRANCH   1   3
ATOM      3  C6  MXC d   1     104.225  32.432  29.967  0.00  0.00     0.117 A 
ATOM      4  C5  MXC d   1     104.046  31.073  29.712  0.00  0.00     0.012 A 
ATOM      5  C4  MXC d   1     105.037  30.623  28.955  0.00  0.00    -0.045 A 
ATOM      6  C3  MXC d   1     105.877  31.625  28.700  0.00  0.00     0.042 A 
ATOM      7  H   MXC d   1     105.147  29.599  28.599  0.00  0.00     0.088 H 
ATOM      8  C2  MXC d   1     107.057  31.645  27.967  0.00  0.00    -0.041 A 
ATOM      9  N1  MXC d   1     105.407  32.805  29.314  0.00  0.00    -0.308 N 
ATOM     10  C1  MXC d   1     107.791  32.821  27.833  0.00  0.00     0.035 A 
ATOM     11  H   MXC d   1     107.412  30.731  27.492  0.00  0.00     0.088 H 
ATOM     12  C8  MXC d   1     107.339  34.004  28.436  0.00  0.00    -0.052 A 
ATOM     13  C7  MXC d   1     106.150  34.006  29.173  0.00  0.00    -0.012 A 
ATOM     14  H   MXC d   1     107.915  34.923  28.330  0.00  0.00     0.087 H 
ATOM     15  H   MXC d   1     105.796  34.926  29.637  0.00  0.00     0.112 H 
BRANCH   4  16
ATOM     16  C10 MXC d   1     102.892  30.172  30.160  0.00  0.00     0.044 C 
ATOM     17  H   MXC d   1     102.436  30.616  31.045  0.00  0.00     0.081 H 
ATOM     18  H   MXC d   1     103.293  29.179  30.363  0.00  0.00     0.081 H 
BRANCH  16  19
ATOM     19  O1  MXC d   1     102.024  30.068  29.289  0.00  0.00    -0.396 OA
ATOM     20  H   MXC d   1     101.320  29.497  29.607  0.00  0.00     0.209 HD
ENDBRANCH  16  19
ENDBRANCH   4  16
BRANCH  10  21
ATOM     21  C9  MXC d   1     109.090  32.761  27.011  0.00  0.00     0.249 C 
ATOM     22  N2  MXC d   1     109.815  33.878  27.016  0.00  0.00    -0.366 N 
ATOM     23  H   MXC d   1     110.692  33.919  26.498  0.00  0.00     0.159 HD
ATOM     24  H   MXC d   1     109.493  34.693  27.538  0.00  0.00     0.159 HD
ATOM     25  O2  MXC d   1     109.411  31.735  26.405  0.00  0.00    -0.268 OA
ENDBRANCH  10  21
ENDBRANCH   1   3
BRANCH   1  26
ATOM     26  C11 MXC d   1     103.576  33.522  32.097  0.00  0.00     0.117 C 
ATOM     27  H   MXC d   1     104.059  32.672  32.579  0.00  0.00     0.092 H 
BRANCH  26  28
ATOM     28  C12 MXC d   1     104.441  34.777  32.235  0.00  0.00     0.198 C 
ATOM     29  O3  MXC d   1     104.776  35.336  31.163  0.00  0.00    -0.646 OA
ATOM     30  O4  MXC d   1     104.708  35.178  33.401  0.00  0.00    -0.646 OA
ENDBRANCH  26  28
BRANCH  26  31
ATOM     31  C13 MXC d   1     102.201  33.744  32.803  0.00  0.00     0.110 C 
BRANCH  31  32
ATOM     32  C14 MXC d   1     101.676  35.198  32.676  0.00  0.00    -0.052 C 
ATOM     33  H   MXC d   1     101.500  35.429  31.625  0.00  0.00     0.029 H 
ATOM     34  H   MXC d   1     100.743  35.296  33.232  0.00  0.00     0.029 H 
ATOM     35  H   MXC d   1     102.416  35.887  33.082  0.00  0.00     0.029 H 
ENDBRANCH  31  32
BRANCH  31  36
ATOM     36  C15 MXC d   1     102.425  33.384  34.298  0.00  0.00     0.052 C 
ATOM     37  H   MXC d   1     103.493  33.545  34.444  0.00  0.00     0.078 H 
ATOM     38  H   MXC d   1     101.973  32.397  34.395  0.00  0.00     0.078 H 
BRANCH  36  39
ATOM     39  O7  MXC d   1     101.813  34.149  35.372  0.00  0.00    -0.302 OA
BRANCH  39  40
ATOM     40  C16 MXC d   1     101.452  33.264  36.359  0.00  0.00     0.358 C 
ATOM     41  N4  MXC d   1     100.194  33.302  36.819  0.00  0.00    -0.346 N 
ATOM     42  H   MXC d   1      99.891  32.638  37.532  0.00  0.00     0.161 HD
ATOM     43  H   MXC d   1      99.539  33.995  36.456  0.00  0.00     0.161 HD
ATOM     44  O8  MXC d   1     102.286  32.444  36.765  0.00  0.00    -0.239 OA
ENDBRANCH  39  40
ENDBRANCH  36  39
ENDBRANCH  31  36
BRANCH  31  45
ATOM     45  S1  MXC d   1     100.913  32.621  32.103  0.00  0.00     0.150 S 
ATOM     46  O5  MXC d   1      99.648  32.724  32.914  0.00  0.00    -0.230 OA
ATOM     47  O6  MXC d   1     101.380  31.256  32.066  0.00  0.00    -0.230 OA
ATOM     48  H   MXC d   1     100.659  32.998  30.853  0.00  0.00     0.172 HD
ENDBRANCH  31  45
ENDBRANCH  26  31
ENDBRANCH   1  26
TORSDOF 12
