REMARK  24 active torsions:
REMARK  status: ('A' for Active; 'I' for Inactive)
REMARK    1  A    between atoms: N_1  and  CA_2 
REMARK    2  A    between atoms: CA_2  and  C_3 
REMARK    3  A    between atoms: CA_2  and  CB_5 
REMARK       I    between atoms: C_3  and  N_6 
REMARK    4  A    between atoms: N_6  and  CA_7 
REMARK    5  A    between atoms: CA_7  and  C_8 
REMARK    6  A    between atoms: CA_7  and  CB_10 
REMARK       I    between atoms: C_8  and  N_17 
REMARK    7  A    between atoms: CB_10  and  CG_11 
REMARK    8  A    between atoms: CG_11  and  CD_12 
REMARK    9  A    between atoms: CD_12  and  NE_13 
REMARK       I    between atoms: NE_13  and  CZ_14 
REMARK       I    between atoms: CZ_14  and  NH1_15 
REMARK   10  A    between atoms: N_17  and  CA_18 
REMARK   11  A    between atoms: CA_18  and  C_19 
REMARK   12  A    between atoms: CA_18  and  CB_21 
REMARK       I    between atoms: C_19  and  N_24 
REMARK   13  A    between atoms: CB_21  and  OG1_22 
REMARK   14  A    between atoms: CB_21  and  CG2_23 
REMARK   15  A    between atoms: N_24  and  CA_25 
REMARK   16  A    between atoms: CA_25  and  CB_26 
REMARK   17  A    between atoms: CA_25  and  C_31 
REMARK   18  A    between atoms: CB_26  and  CG_27 
REMARK   19  A    between atoms: CG_27  and  CD_28 
REMARK   20  A    between atoms: CD_28  and  CE_29 
REMARK   21  A    between atoms: CE_29  and  NZ_30 
REMARK   22  A    between atoms: NZ_30  and  CM1_33 
REMARK   23  A    between atoms: NZ_30  and  CM2_34 
REMARK   24  A    between atoms: NZ_30  and  CM3_35 
ROOT
ATOM      1  CA  THR d   1      51.743  16.067  47.453  0.00  0.00     0.113 C 
ATOM      2  H   THR d   1      51.297  15.558  46.599  0.00  0.00     0.091 H 
ENDROOT
BRANCH   1   3
ATOM      3  N   THR d   1      52.929  15.293  47.809  0.00  0.00    -0.344 N 
ATOM      4  C   ARG d   1      53.592  14.567  46.912  0.00  0.00     0.241 C 
ATOM      5  O   ARG d   1      53.235  14.488  45.735  0.00  0.00    -0.271 OA
ATOM      6  H   THR d   1      53.259  15.309  48.774  0.00  0.00     0.163 HD
BRANCH   4   7
ATOM      7  CA  ARG d   1      54.791  13.752  47.404  0.00  0.00     0.089 C 
ATOM      8  H   ARG d   1      54.991  13.966  48.454  0.00  0.00     0.087 H 
BRANCH   7   9
ATOM      9  N   ARG d   1      54.446  12.334  47.193  0.00  0.00    -0.346 N 
ATOM     10  C   ALA d   1      54.091  11.532  48.187  0.00  0.00     0.248 C 
ATOM     11  O   ALA d   1      54.132  11.864  49.368  0.00  0.00    -0.271 OA
ATOM     12  H   ARG d   1      54.482  11.956  46.246  0.00  0.00     0.163 HD
BRANCH  10  13
ATOM     13  CA  ALA d   1      53.634  10.162  47.792  0.00  0.00     0.172 C 
ATOM     14  H   ALA d   1      54.219   9.805  46.945  0.00  0.00     0.098 H 
BRANCH  13  15
ATOM     15  N   ALA d   1      53.844   9.189  48.920  0.00  0.00    -0.067 N 
ATOM     16  H   ALA d   1      54.834   9.162  49.164  0.00  0.00     0.275 HD
ATOM     17  H   ALA d   1      53.301   9.487  49.730  0.00  0.00     0.275 HD
ATOM     18  H   ALA d   1      53.539   8.261  48.628  0.00  0.00     0.275 HD
ENDBRANCH  13  15
BRANCH  13  19
ATOM     19  CB  ALA d   1      52.143  10.237  47.386  0.00  0.00    -0.042 C 
ATOM     20  H   ALA d   1      51.555  10.596  48.231  0.00  0.00     0.030 H 
ATOM     21  H   ALA d   1      52.031  10.923  46.546  0.00  0.00     0.030 H 
ATOM     22  H   ALA d   1      51.797   9.245  47.096  0.00  0.00     0.030 H 
ENDBRANCH  13  19
ENDBRANCH  10  13
ENDBRANCH   7   9
BRANCH   7  23
ATOM     23  CB  ARG d   1      56.066  14.108  46.638  0.00  0.00    -0.036 C 
ATOM     24  H   ARG d   1      55.806  14.116  45.580  0.00  0.00     0.036 H 
ATOM     25  H   ARG d   1      56.819  13.373  46.920  0.00  0.00     0.036 H 
BRANCH  23  26
ATOM     26  CG  ARG d   1      56.658  15.506  46.966  0.00  0.00    -0.048 C 
ATOM     27  H   ARG d   1      56.707  15.610  48.050  0.00  0.00     0.035 H 
ATOM     28  H   ARG d   1      56.018  16.262  46.512  0.00  0.00     0.035 H 
BRANCH  26  29
ATOM     29  CD  ARG d   1      58.062  15.675  46.409  0.00  0.00     0.009 C 
ATOM     30  H   ARG d   1      58.457  16.633  46.747  0.00  0.00     0.064 H 
ATOM     31  H   ARG d   1      58.012  15.630  45.321  0.00  0.00     0.064 H 
BRANCH  29  32
ATOM     32  NE  ARG d   1      58.950  14.611  46.880  0.00  0.00    -0.227 N 
ATOM     33  CZ  ARG d   1      60.191  14.373  46.442  0.00  0.00     0.665 C 
ATOM     34  NH1 ARG d   1      60.762  15.128  45.509  0.00  0.00    -0.235 N 
ATOM     35  NH2 ARG d   1      60.870  13.354  46.961  0.00  0.00    -0.235 N 
ATOM     36  H   ARG d   1      60.252  15.914  45.106  0.00  0.00     0.174 HD
ATOM     37  H   ARG d   1      61.710  14.921  45.195  0.00  0.00     0.174 HD
ATOM     38  H   ARG d   1      60.443  12.770  47.680  0.00  0.00     0.174 HD
ATOM     39  H   ARG d   1      61.818  13.156  46.640  0.00  0.00     0.174 HD
ATOM     40  H   ARG d   1      58.590  13.995  47.609  0.00  0.00     0.177 HD
ENDBRANCH  29  32
ENDBRANCH  26  29
ENDBRANCH  23  26
ENDBRANCH   7  23
ENDBRANCH   4   7
ENDBRANCH   1   3
BRANCH   1  41
ATOM     41  C   THR d   1      52.111  17.480  47.094  0.00  0.00     0.243 C 
ATOM     42  O   THR d   1      53.190  17.944  47.419  0.00  0.00    -0.271 OA
ATOM     43  N   M3L d   1      51.191  18.158  46.435  0.00  0.00    -0.345 N 
ATOM     44  H   M3L d   1      50.406  17.652  46.024  0.00  0.00     0.163 HD
BRANCH  43  45
ATOM     45  CA  M3L d   1      51.258  19.601  46.275  0.00  0.00     0.096 C 
ATOM     46  H   M3L d   1      52.175  19.934  45.789  0.00  0.00     0.089 H 
BRANCH  45  47
ATOM     47  CB  M3L d   1      50.065  19.980  45.389  0.00  0.00    -0.037 C 
ATOM     48  H   M3L d   1      49.163  19.639  45.897  0.00  0.00     0.036 H 
ATOM     49  H   M3L d   1      50.224  19.518  44.415  0.00  0.00     0.036 H 
BRANCH  47  50
ATOM     50  CG  M3L d   1      49.919  21.472  45.162  0.00  0.00    -0.061 C 
ATOM     51  H   M3L d   1      50.881  21.920  44.914  0.00  0.00     0.033 H 
ATOM     52  H   M3L d   1      49.561  21.966  46.065  0.00  0.00     0.033 H 
BRANCH  50  53
ATOM     53  CD  M3L d   1      48.932  21.653  44.023  0.00  0.00    -0.042 C 
ATOM     54  H   M3L d   1      49.181  20.941  43.236  0.00  0.00     0.035 H 
ATOM     55  H   M3L d   1      48.999  22.683  43.672  0.00  0.00     0.035 H 
BRANCH  53  56
ATOM     56  CE  M3L d   1      47.496  21.390  44.472  0.00  0.00     0.084 C 
ATOM     57  H   M3L d   1      47.315  21.953  45.388  0.00  0.00     0.076 H 
ATOM     58  H   M3L d   1      47.376  20.318  44.626  0.00  0.00     0.076 H 
BRANCH  56  59
ATOM     59  NZ  M3L d   1      46.516  21.826  43.458  0.00  0.00    -0.079 N 
BRANCH  59  60
ATOM     60  CM1 M3L d   1      46.596  23.278  43.273  0.00  0.00     0.067 C 
ATOM     61  H   M3L d   1      46.380  23.776  44.218  0.00  0.00     0.068 H 
ATOM     62  H   M3L d   1      47.599  23.546  42.941  0.00  0.00     0.068 H 
ATOM     63  H   M3L d   1      45.869  23.588  42.523  0.00  0.00     0.068 H 
ENDBRANCH  59  60
BRANCH  59  64
ATOM     64  CM2 M3L d   1      45.184  21.458  43.914  0.00  0.00     0.067 C 
ATOM     65  H   M3L d   1      45.131  20.377  44.042  0.00  0.00     0.068 H 
ATOM     66  H   M3L d   1      44.979  21.949  44.865  0.00  0.00     0.068 H 
ATOM     67  H   M3L d   1      44.448  21.774  43.175  0.00  0.00     0.068 H 
ENDBRANCH  59  64
BRANCH  59  68
ATOM     68  CM3 M3L d   1      46.746  21.183  42.156  0.00  0.00     0.067 C 
ATOM     69  H   M3L d   1      47.743  21.438  41.797  0.00  0.00     0.068 H 
ATOM     70  H   M3L d   1      46.663  20.102  42.267  0.00  0.00     0.068 H 
ATOM     71  H   M3L d   1      46.001  21.534  41.442  0.00  0.00     0.068 H 
ENDBRANCH  59  68
ENDBRANCH  56  59
ENDBRANCH  53  56
ENDBRANCH  50  53
ENDBRANCH  47  50
ENDBRANCH  45  47
BRANCH  45  72
ATOM     72  C   M3L d   1      51.301  20.290  47.615  0.00  0.00     0.196 C 
ATOM     73  O   M3L d   1      52.097  21.240  47.745  0.00  0.00    -0.646 OA
ATOM     74  O   M3L d   1      50.562  19.920  48.566  0.00  0.00    -0.646 OA
ENDBRANCH  45  72
ENDBRANCH  43  45
ENDBRANCH   1  41
BRANCH   1  75
ATOM     75  CB  THR d   1      50.716  16.125  48.603  0.00  0.00     0.060 C 
ATOM     76  H   THR d   1      49.854  16.705  48.272  0.00  0.00     0.086 H 
BRANCH  75  77
ATOM     77  OG1 THR d   1      51.311  16.757  49.752  0.00  0.00    -0.393 OA
ATOM     78  H   THR d   1      52.077  16.251  50.033  0.00  0.00     0.210 HD
ENDBRANCH  75  77
BRANCH  75  79
ATOM     79  CG2 THR d   1      50.255  14.749  48.967  0.00  0.00    -0.050 C 
ATOM     80  H   THR d   1      49.789  14.282  48.099  0.00  0.00     0.031 H 
ATOM     81  H   THR d   1      51.110  14.153  49.286  0.00  0.00     0.031 H 
ATOM     82  H   THR d   1      49.531  14.813  49.780  0.00  0.00     0.031 H 
ENDBRANCH  75  79
ENDBRANCH   1  75
TORSDOF 24
