REMARK  24 active torsions:
REMARK  status: ('A' for Active; 'I' for Inactive)
REMARK    1  A    between atoms: N_1  and  CA_2 
REMARK    2  A    between atoms: CA_2  and  C_3 
REMARK    3  A    between atoms: CA_2  and  CB_5 
REMARK       I    between atoms: C_3  and  N_6 
REMARK    4  A    between atoms: N_6  and  CA_7 
REMARK    5  A    between atoms: CA_7  and  C_8 
REMARK    6  A    between atoms: CA_7  and  CB_10 
REMARK       I    between atoms: C_8  and  N_17 
REMARK    7  A    between atoms: CB_10  and  CG_11 
REMARK    8  A    between atoms: CG_11  and  CD_12 
REMARK    9  A    between atoms: CD_12  and  NE_13 
REMARK       I    between atoms: NE_13  and  CZ_14 
REMARK       I    between atoms: CZ_14  and  NH1_15 
REMARK   10  A    between atoms: N_17  and  CA_18 
REMARK   11  A    between atoms: CA_18  and  C_19 
REMARK   12  A    between atoms: CA_18  and  CB_21 
REMARK       I    between atoms: C_19  and  N_24 
REMARK   13  A    between atoms: CB_21  and  OG1_22 
REMARK   14  A    between atoms: CB_21  and  CG2_23 
REMARK   15  A    between atoms: N_24  and  CA_25 
REMARK   16  A    between atoms: CA_25  and  CB_26 
REMARK   17  A    between atoms: CA_25  and  C_31 
REMARK   18  A    between atoms: CB_26  and  CG_27 
REMARK   19  A    between atoms: CG_27  and  CD_28 
REMARK   20  A    between atoms: CD_28  and  CE_29 
REMARK   21  A    between atoms: CE_29  and  NZ_30 
REMARK   22  A    between atoms: NZ_30  and  CM1_33 
REMARK   23  A    between atoms: NZ_30  and  CM2_34 
REMARK   24  A    between atoms: NZ_30  and  CM3_35 
ROOT
ATOM      1  CA  THR d   1      24.213  21.730  11.350  0.00  0.00     0.113 C 
ATOM      2  H   THR d   1      23.406  21.002  11.425  0.00  0.00     0.091 H 
ENDROOT
BRANCH   1   3
ATOM      3  N   THR d   1      23.894  22.605  10.225  0.00  0.00    -0.344 N 
ATOM      4  C   ARG d   1      22.651  22.814   9.822  0.00  0.00     0.241 C 
ATOM      5  O   ARG d   1      21.685  22.259  10.347  0.00  0.00    -0.271 OA
ATOM      6  H   THR d   1      24.656  23.071   9.733  0.00  0.00     0.163 HD
BRANCH   4   7
ATOM      7  CA  ARG d   1      22.461  23.740   8.631  0.00  0.00     0.089 C 
ATOM      8  H   ARG d   1      23.418  24.165   8.329  0.00  0.00     0.087 H 
BRANCH   7   9
ATOM      9  N   ARG d   1      21.868  22.956   7.561  0.00  0.00    -0.346 N 
ATOM     10  C   ALA d   1      22.572  22.523   6.541  0.00  0.00     0.248 C 
ATOM     11  O   ALA d   1      23.748  22.829   6.354  0.00  0.00    -0.271 OA
ATOM     12  H   ARG d   1      20.873  22.735   7.604  0.00  0.00     0.163 HD
BRANCH  10  13
ATOM     13  CA  ALA d   1      21.823  21.654   5.552  0.00  0.00     0.172 C 
ATOM     14  H   ALA d   1      20.773  21.944   5.517  0.00  0.00     0.098 H 
BRANCH  13  15
ATOM     15  N   ALA d   1      22.447  21.852   4.201  0.00  0.00    -0.067 N 
ATOM     16  H   ALA d   1      22.414  22.841   3.954  0.00  0.00     0.275 HD
ATOM     17  H   ALA d   1      23.418  21.539   4.227  0.00  0.00     0.275 HD
ATOM     18  H   ALA d   1      21.932  21.310   3.507  0.00  0.00     0.275 HD
ENDBRANCH  13  15
BRANCH  13  19
ATOM     19  CB  ALA d   1      21.844  20.183   5.978  0.00  0.00    -0.042 C 
ATOM     20  H   ALA d   1      22.876  19.837   6.033  0.00  0.00     0.030 H 
ATOM     21  H   ALA d   1      21.373  20.082   6.956  0.00  0.00     0.030 H 
ATOM     22  H   ALA d   1      21.298  19.587   5.247  0.00  0.00     0.030 H 
ENDBRANCH  13  19
ENDBRANCH  10  13
ENDBRANCH   7   9
BRANCH   7  23
ATOM     23  CB  ARG d   1      21.522  24.870   8.992  0.00  0.00    -0.036 C 
ATOM     24  H   ARG d   1      20.635  24.398   9.414  0.00  0.00     0.036 H 
ATOM     25  H   ARG d   1      21.385  25.448   8.078  0.00  0.00     0.036 H 
BRANCH  23  26
ATOM     26  CG  ARG d   1      22.004  25.851  10.034  0.00  0.00    -0.048 C 
ATOM     27  H   ARG d   1      22.855  26.419   9.659  0.00  0.00     0.035 H 
ATOM     28  H   ARG d   1      22.333  25.325  10.931  0.00  0.00     0.035 H 
BRANCH  26  29
ATOM     29  CD  ARG d   1      20.832  26.788  10.359  0.00  0.00     0.009 C 
ATOM     30  H   ARG d   1      20.085  26.196  10.887  0.00  0.00     0.064 H 
ATOM     31  H   ARG d   1      20.486  27.208   9.415  0.00  0.00     0.064 H 
BRANCH  29  32
ATOM     32  NE  ARG d   1      21.183  27.914  11.229  0.00  0.00    -0.227 N 
ATOM     33  CZ  ARG d   1      20.292  28.732  11.811  0.00  0.00     0.665 C 
ATOM     34  NH1 ARG d   1      18.980  28.545  11.635  0.00  0.00    -0.235 N 
ATOM     35  NH2 ARG d   1      20.714  29.740  12.577  0.00  0.00    -0.235 N 
ATOM     36  H   ARG d   1      18.648  27.775  11.054  0.00  0.00     0.174 HD
ATOM     37  H   ARG d   1      18.311  29.172  12.082  0.00  0.00     0.174 HD
ATOM     38  H   ARG d   1      21.713  29.888  12.720  0.00  0.00     0.174 HD
ATOM     39  H   ARG d   1      20.038  30.362  13.020  0.00  0.00     0.174 HD
ATOM     40  H   ARG d   1      22.173  28.088  11.404  0.00  0.00     0.177 HD
ENDBRANCH  29  32
ENDBRANCH  26  29
ENDBRANCH  23  26
ENDBRANCH   7  23
ENDBRANCH   4   7
ENDBRANCH   1   3
BRANCH   1  41
ATOM     41  C   THR d   1      24.295  22.537  12.650  0.00  0.00     0.243 C 
ATOM     42  O   THR d   1      24.272  23.784  12.635  0.00  0.00    -0.271 OA
ATOM     43  N   M3L d   1      24.385  21.820  13.768  0.00  0.00    -0.345 N 
ATOM     44  H   M3L d   1      24.364  20.802  13.700  0.00  0.00     0.163 HD
BRANCH  43  45
ATOM     45  CA  M3L d   1      24.515  22.445  15.115  0.00  0.00     0.096 C 
ATOM     46  H   M3L d   1      23.747  23.215  15.186  0.00  0.00     0.089 H 
BRANCH  45  47
ATOM     47  CB  M3L d   1      24.259  21.370  16.233  0.00  0.00    -0.037 C 
ATOM     48  H   M3L d   1      23.375  20.790  15.966  0.00  0.00     0.036 H 
ATOM     49  H   M3L d   1      24.115  21.881  17.185  0.00  0.00     0.036 H 
BRANCH  47  50
ATOM     50  CG  M3L d   1      25.444  20.426  16.359  0.00  0.00    -0.061 C 
ATOM     51  H   M3L d   1      26.152  20.963  16.990  0.00  0.00     0.033 H 
ATOM     52  H   M3L d   1      25.705  20.180  15.330  0.00  0.00     0.033 H 
BRANCH  50  53
ATOM     53  CD  M3L d   1      25.276  19.070  17.044  0.00  0.00    -0.042 C 
ATOM     54  H   M3L d   1      26.216  18.827  17.540  0.00  0.00     0.035 H 
ATOM     55  H   M3L d   1      25.003  18.341  16.281  0.00  0.00     0.035 H 
BRANCH  53  56
ATOM     56  CE  M3L d   1      24.199  19.076  18.079  0.00  0.00     0.084 C 
ATOM     57  H   M3L d   1      23.245  18.961  17.564  0.00  0.00     0.076 H 
ATOM     58  H   M3L d   1      24.277  20.012  18.632  0.00  0.00     0.076 H 
BRANCH  56  59
ATOM     59  NZ  M3L d   1      24.323  17.946  19.071  0.00  0.00    -0.079 N 
BRANCH  59  60
ATOM     60  CM1 M3L d   1      24.695  18.465  20.401  0.00  0.00     0.067 C 
ATOM     61  H   M3L d   1      25.651  18.984  20.333  0.00  0.00     0.068 H 
ATOM     62  H   M3L d   1      23.928  19.158  20.747  0.00  0.00     0.068 H 
ATOM     63  H   M3L d   1      24.780  17.635  21.103  0.00  0.00     0.068 H 
ENDBRANCH  59  60
BRANCH  59  64
ATOM     64  CM2 M3L d   1      25.233  16.819  18.731  0.00  0.00     0.067 C 
ATOM     65  H   M3L d   1      24.899  16.351  17.805  0.00  0.00     0.068 H 
ATOM     66  H   M3L d   1      26.247  17.198  18.602  0.00  0.00     0.068 H 
ATOM     67  H   M3L d   1      25.218  16.085  19.537  0.00  0.00     0.068 H 
ENDBRANCH  59  64
BRANCH  59  68
ATOM     68  CM3 M3L d   1      23.001  17.348  19.168  0.00  0.00     0.067 C 
ATOM     69  H   M3L d   1      22.289  18.098  19.512  0.00  0.00     0.068 H 
ATOM     70  H   M3L d   1      22.697  16.980  18.188  0.00  0.00     0.068 H 
ATOM     71  H   M3L d   1      23.029  16.520  19.876  0.00  0.00     0.068 H 
ENDBRANCH  59  68
ENDBRANCH  56  59
ENDBRANCH  53  56
ENDBRANCH  50  53
ENDBRANCH  47  50
ENDBRANCH  45  47
BRANCH  45  72
ATOM     72  C   M3L d   1      25.826  23.192  15.322  0.00  0.00     0.196 C 
ATOM     73  O   M3L d   1      26.015  23.881  16.343  0.00  0.00    -0.646 OA
ATOM     74  O1  M3L d   1      26.731  23.112  14.449  0.00  0.00    -0.646 OA
ENDBRANCH  45  72
ENDBRANCH  43  45
ENDBRANCH   1  41
BRANCH   1  75
ATOM     75  CB  THR d   1      25.541  20.936  11.128  0.00  0.00     0.060 C 
ATOM     76  H   THR d   1      25.645  20.239  11.960  0.00  0.00     0.086 H 
BRANCH  75  77
ATOM     77  OG1 THR d   1      26.643  21.846  11.097  0.00  0.00    -0.393 OA
ATOM     78  H   THR d   1      27.457  21.356  10.961  0.00  0.00     0.210 HD
ENDBRANCH  75  77
BRANCH  75  79
ATOM     79  CG2 THR d   1      25.524  20.108   9.843  0.00  0.00    -0.050 C 
ATOM     80  H   THR d   1      24.707  19.388   9.887  0.00  0.00     0.031 H 
ATOM     81  H   THR d   1      25.382  20.769   8.988  0.00  0.00     0.031 H 
ATOM     82  H   THR d   1      26.471  19.578   9.741  0.00  0.00     0.031 H 
ENDBRANCH  75  79
ENDBRANCH   1  75
TORSDOF 24
