REMARK WARNING: 32 MAX_TORS EXCEEDED!!!
REMARK  40 active torsions:
REMARK  status: ('A' for Active; 'I' for Inactive)
REMARK    1  A    between atoms: N_1  and  CA_2 
REMARK    2  A    between atoms: CA_2  and  C_3 
REMARK    3  A    between atoms: CA_2  and  CB_5 
REMARK       I    between atoms: C_3  and  N_6 
REMARK    4  A    between atoms: N_6  and  CA_7 
REMARK    5  A    between atoms: CA_7  and  C_8 
REMARK    6  A    between atoms: CA_7  and  CB_10 
REMARK       I    between atoms: C_8  and  N_17 
REMARK    7  A    between atoms: CB_10  and  CG_11 
REMARK    8  A    between atoms: CG_11  and  CD_12 
REMARK    9  A    between atoms: CD_12  and  NE_13 
REMARK       I    between atoms: NE_13  and  CZ_14 
REMARK       I    between atoms: CZ_14  and  NH1_15 
REMARK       I    between atoms: CZ_14  and  NH2_16 
REMARK   10  A    between atoms: N_17  and  CA_18 
REMARK   11  A    between atoms: CA_18  and  C_19 
REMARK   12  A    between atoms: CA_18  and  CB_21 
REMARK       I    between atoms: C_19  and  N_24 
REMARK   13  A    between atoms: CB_21  and  OG1_22 
REMARK   14  A    between atoms: CB_21  and  CG2_23 
REMARK   15  A    between atoms: N_24  and  CA_25 
REMARK   16  A    between atoms: CA_25  and  CB_26 
REMARK   17  A    between atoms: CA_25  and  C_33 
REMARK   18  A    between atoms: CB_26  and  CG_27 
REMARK   19  A    between atoms: CG_27  and  CD_28 
REMARK   20  A    between atoms: CD_28  and  CE_29 
REMARK   21  A    between atoms: CE_29  and  NZ_30 
REMARK   22  A    between atoms: NZ_30  and  CH1_31 
REMARK   23  A    between atoms: NZ_30  and  CH2_32 
REMARK       I    between atoms: C_33  and  N_35 
REMARK   24  A    between atoms: N_35  and  CA_36 
REMARK   25  A    between atoms: CA_36  and  C_37 
REMARK   26  A    between atoms: CA_36  and  CB_39 
REMARK       I    between atoms: C_37  and  N_40 
REMARK   27  A    between atoms: N_40  and  CA_41 
REMARK   28  A    between atoms: CA_41  and  C_42 
REMARK   29  A    between atoms: CA_41  and  CB_44 
REMARK       I    between atoms: C_42  and  N_47 
REMARK   30  A    between atoms: CB_44  and  OG1_45 
REMARK   31  A    between atoms: CB_44  and  CG2_46 
REMARK   32  A    between atoms: N_47  and  CA_48 
REMARK   33  A    between atoms: CA_48  and  C_49 
REMARK   34  A    between atoms: CA_48  and  CB_51 
REMARK       I    between atoms: C_49  and  N_52 
REMARK   35  A    between atoms: N_52  and  CA_53 
REMARK   36  A    between atoms: CA_53  and  C_54 
REMARK   37  A    between atoms: CA_53  and  CB_56 
REMARK   38  A    between atoms: CB_56  and  CG_57 
REMARK   39  A    between atoms: CG_57  and  CD_58 
REMARK   40  A    between atoms: CD_58  and  NE_59 
REMARK       I    between atoms: NE_59  and  CZ_60 
REMARK       I    between atoms: CZ_60  and  NH1_61 
ROOT
ATOM      1  CA  MLY d   1       1.653  21.280  -5.956  0.00  0.00     0.089 C 
ATOM      2  H   MLY d   1       2.544  21.441  -6.562  0.00  0.00     0.087 H 
ENDROOT
BRANCH   1   3
ATOM      3  N   MLY d   1       1.524  19.837  -5.779  0.00  0.00    -0.346 N 
ATOM      4  C   THR d   1       2.433  19.113  -5.127  0.00  0.00     0.243 C 
ATOM      5  O   THR d   1       3.538  19.542  -4.788  0.00  0.00    -0.271 OA
ATOM      6  H   MLY d   1       0.708  19.365  -6.169  0.00  0.00     0.163 HD
BRANCH   4   7
ATOM      7  CA  THR d   1       2.014  17.704  -4.795  0.00  0.00     0.113 C 
ATOM      8  H   THR d   1       1.520  17.233  -5.645  0.00  0.00     0.091 H 
BRANCH   7   9
ATOM      9  N   THR d   1       3.167  16.845  -4.494  0.00  0.00    -0.344 N 
ATOM     10  C   ARG d   1       3.772  16.136  -5.448  0.00  0.00     0.241 C 
ATOM     11  O   ARG d   1       3.400  16.133  -6.613  0.00  0.00    -0.271 OA
ATOM     12  H   THR d   1       3.512  16.790  -3.536  0.00  0.00     0.163 HD
BRANCH  10  13
ATOM     13  CA  ARG d   1       4.950  15.267  -5.029  0.00  0.00     0.089 C 
ATOM     14  H   ARG d   1       5.154  15.388  -3.965  0.00  0.00     0.087 H 
BRANCH  13  15
ATOM     15  N   ARG d   1       4.579  13.882  -5.337  0.00  0.00    -0.346 N 
ATOM     16  C   ALA d   1       4.324  13.018  -4.374  0.00  0.00     0.248 C 
ATOM     17  O   ALA d   1       4.551  13.253  -3.196  0.00  0.00    -0.271 OA
ATOM     18  H   ARG d   1       4.517  13.583  -6.310  0.00  0.00     0.163 HD
BRANCH  16  19
ATOM     19  CA  ALA d   1       3.760  11.691  -4.804  0.00  0.00     0.172 C 
ATOM     20  H   ALA d   1       4.237  11.377  -5.732  0.00  0.00     0.098 H 
BRANCH  19  21
ATOM     21  N   ALA d   1       4.047  10.660  -3.760  0.00  0.00    -0.067 N 
ATOM     22  H   ALA d   1       5.054  10.606  -3.605  0.00  0.00     0.275 HD
ATOM     23  H   ALA d   1       3.581  10.920  -2.890  0.00  0.00     0.275 HD
ATOM     24  H   ALA d   1       3.701   9.754  -4.075  0.00  0.00     0.275 HD
ENDBRANCH  19  21
BRANCH  19  25
ATOM     25  CB  ALA d   1       2.247  11.815  -5.079  0.00  0.00    -0.042 C 
ATOM     26  H   ALA d   1       1.739  12.140  -4.171  0.00  0.00     0.030 H 
ATOM     27  H   ALA d   1       2.082  12.546  -5.871  0.00  0.00     0.030 H 
ATOM     28  H   ALA d   1       1.855  10.846  -5.389  0.00  0.00     0.030 H 
ENDBRANCH  19  25
ENDBRANCH  16  19
ENDBRANCH  13  15
BRANCH  13  29
ATOM     29  CB  ARG d   1       6.245  15.674  -5.741  0.00  0.00    -0.036 C 
ATOM     30  H   ARG d   1       6.027  15.805  -6.801  0.00  0.00     0.036 H 
ATOM     31  H   ARG d   1       6.988  14.894  -5.574  0.00  0.00     0.036 H 
BRANCH  29  32
ATOM     32  CG  ARG d   1       6.803  16.997  -5.196  0.00  0.00    -0.048 C 
ATOM     33  H   ARG d   1       6.735  16.938  -4.110  0.00  0.00     0.035 H 
ATOM     34  H   ARG d   1       6.222  17.794  -5.660  0.00  0.00     0.035 H 
BRANCH  32  35
ATOM     35  CD  ARG d   1       8.276  17.280  -5.528  0.00  0.00     0.009 C 
ATOM     36  H   ARG d   1       8.368  17.563  -6.577  0.00  0.00     0.064 H 
ATOM     37  H   ARG d   1       8.872  16.385  -5.348  0.00  0.00     0.064 H 
BRANCH  35  38
ATOM     38  NE  ARG d   1       8.752  18.364  -4.684  0.00  0.00    -0.227 N 
ATOM     39  CZ  ARG d   1       8.789  19.659  -5.008  0.00  0.00     0.665 C 
ATOM     40  NH1 ARG d   1       9.211  20.527  -4.101  0.00  0.00    -0.235 N 
ATOM     41  NH2 ARG d   1       8.434  20.108  -6.216  0.00  0.00    -0.235 N 
ATOM     42  H   ARG d   1       9.499  20.201  -3.178  0.00  0.00     0.174 HD
ATOM     43  H   ARG d   1       9.248  21.521  -4.325  0.00  0.00     0.174 HD
ATOM     44  H   ARG d   1       8.120  19.453  -6.932  0.00  0.00     0.174 HD
ATOM     45  H   ARG d   1       8.477  21.106  -6.422  0.00  0.00     0.174 HD
ATOM     46  H   ARG d   1       9.090  18.111  -3.756  0.00  0.00     0.177 HD
ENDBRANCH  35  38
ENDBRANCH  32  35
ENDBRANCH  29  32
ENDBRANCH  13  29
ENDBRANCH  10  13
ENDBRANCH   7   9
BRANCH   7  47
ATOM     47  CB  THR d   1       1.085  17.818  -3.613  0.00  0.00     0.060 C 
ATOM     48  H   THR d   1       0.223  18.434  -3.869  0.00  0.00     0.086 H 
BRANCH  47  49
ATOM     49  OG1 THR d   1       1.822  18.414  -2.541  0.00  0.00    -0.393 OA
ATOM     50  H   THR d   1       2.575  17.859  -2.324  0.00  0.00     0.210 HD
ENDBRANCH  47  49
BRANCH  47  51
ATOM     51  CG2 THR d   1       0.528  16.401  -3.193  0.00  0.00    -0.050 C 
ATOM     52  H   THR d   1      -0.020  15.965  -4.029  0.00  0.00     0.031 H 
ATOM     53  H   THR d   1       1.360  15.750  -2.923  0.00  0.00     0.031 H 
ATOM     54  H   THR d   1      -0.139  16.513  -2.338  0.00  0.00     0.031 H 
ENDBRANCH  47  51
ENDBRANCH   7  47
ENDBRANCH   4   7
ENDBRANCH   1   3
BRANCH   1  55
ATOM     55  CB  MLY d   1       0.414  21.847  -6.682  0.00  0.00    -0.038 C 
ATOM     56  H   MLY d   1      -0.447  21.730  -6.024  0.00  0.00     0.036 H 
ATOM     57  H   MLY d   1       0.293  21.305  -7.620  0.00  0.00     0.036 H 
BRANCH  55  58
ATOM     58  CG  MLY d   1       0.564  23.328  -7.007  0.00  0.00    -0.061 C 
ATOM     59  H   MLY d   1       1.611  23.508  -7.250  0.00  0.00     0.033 H 
ATOM     60  H   MLY d   1       0.221  23.893  -6.140  0.00  0.00     0.033 H 
BRANCH  58  61
ATOM     61  CD  MLY d   1      -0.277  23.771  -8.214  0.00  0.00    -0.040 C 
ATOM     62  H   MLY d   1      -0.110  23.069  -9.031  0.00  0.00     0.035 H 
ATOM     63  H   MLY d   1       0.022  24.781  -8.495  0.00  0.00     0.035 H 
BRANCH  61  64
ATOM     64  CE  MLY d   1      -1.765  23.780  -7.875  0.00  0.00     0.113 C 
ATOM     65  H   MLY d   1      -1.890  24.290  -6.920  0.00  0.00     0.079 H 
ATOM     66  H   MLY d   1      -2.110  22.746  -7.843  0.00  0.00     0.079 H 
BRANCH  64  67
ATOM     67  NZ  MLY d   1      -2.571  24.500  -8.888  0.00  0.00     0.080 N 
BRANCH  67  68
ATOM     68  CH1 MLY d   1      -2.582  23.773 -10.162  0.00  0.00     0.095 C 
ATOM     69  H   MLY d   1      -1.561  23.674 -10.531  0.00  0.00     0.071 H 
ATOM     70  H   MLY d   1      -3.012  22.783 -10.010  0.00  0.00     0.071 H 
ATOM     71  H   MLY d   1      -3.181  24.323 -10.888  0.00  0.00     0.071 H 
ENDBRANCH  67  68
BRANCH  67  72
ATOM     72  CH2 MLY d   1      -2.068  25.853  -9.107  0.00  0.00     0.095 C 
ATOM     73  H   MLY d   1      -2.110  26.411  -8.171  0.00  0.00     0.071 H 
ATOM     74  H   MLY d   1      -1.037  25.804  -9.456  0.00  0.00     0.071 H 
ATOM     75  H   MLY d   1      -2.683  26.351  -9.856  0.00  0.00     0.071 H 
ENDBRANCH  67  72
ENDBRANCH  64  67
ENDBRANCH  61  64
ENDBRANCH  58  61
ENDBRANCH  55  58
ENDBRANCH   1  55
BRANCH   1  76
ATOM     76  C   MLY d   1       1.857  22.022  -4.632  0.00  0.00     0.241 C 
ATOM     77  O   MLY d   1       2.656  22.954  -4.563  0.00  0.00    -0.271 OA
ATOM     78  N   GLN d   1       1.147  21.626  -3.580  0.00  0.00    -0.346 N 
ATOM     79  H   GLN d   1       0.547  20.804  -3.654  0.00  0.00     0.163 HD
BRANCH  78  80
ATOM     80  CA  GLN d   1       1.222  22.374  -2.295  0.00  0.00     0.086 C 
ATOM     81  H   GLN d   1       0.971  23.416  -2.492  0.00  0.00     0.086 H 
BRANCH  80  82
ATOM     82  C   GLN d   1       2.636  22.286  -1.742  0.00  0.00     0.240 C 
ATOM     83  O   GLN d   1       3.200  23.289  -1.307  0.00  0.00    -0.271 OA
ATOM     84  N   THR d   1       3.206  21.079  -1.794  0.00  0.00    -0.344 N 
ATOM     85  H   THR d   1       2.628  20.279  -2.053  0.00  0.00     0.163 HD
BRANCH  84  86
ATOM     86  CA  THR d   1       4.620  20.851  -1.497  0.00  0.00     0.113 C 
ATOM     87  H   THR d   1       4.797  21.204  -0.481  0.00  0.00     0.091 H 
BRANCH  86  88
ATOM     88  C   THR d   1       5.523  21.633  -2.440  0.00  0.00     0.243 C 
ATOM     89  O   THR d   1       6.421  22.343  -1.983  0.00  0.00    -0.271 OA
ATOM     90  N   ALA d   1       5.271  21.517  -3.748  0.00  0.00    -0.346 N 
ATOM     91  H   ALA d   1       4.497  20.924  -4.046  0.00  0.00     0.163 HD
BRANCH  90  92
ATOM     92  CA  ALA d   1       6.069  22.214  -4.782  0.00  0.00     0.086 C 
ATOM     93  H   ALA d   1       7.097  21.875  -4.654  0.00  0.00     0.086 H 
BRANCH  92  94
ATOM     94  C   ALA d   1       6.076  23.736  -4.614  0.00  0.00     0.240 C 
ATOM     95  O   ALA d   1       7.074  24.399  -4.914  0.00  0.00    -0.271 OA
ATOM     96  N   ARG d   1       4.962  24.280  -4.126  0.00  0.00    -0.345 N 
ATOM     97  H   ARG d   1       4.202  23.670  -3.825  0.00  0.00     0.163 HD
BRANCH  96  98
ATOM     98  CA  ARG d   1       4.802  25.723  -4.012  0.00  0.00     0.096 C 
ATOM     99  H   ARG d   1       5.623  26.222  -4.526  0.00  0.00     0.089 H 
BRANCH  98 100
ATOM    100  C   ARG d   1       4.835  26.111  -2.542  0.00  0.00     0.196 C 
ATOM    101  O   ARG d   1       5.738  26.830  -2.115  0.00  0.00    -0.646 OA
ATOM    102  O1  ARG d   1       3.938  25.696  -1.761  0.00  0.00    -0.646 OA
ENDBRANCH  98 100
BRANCH  98 103
ATOM    103  CB  ARG d   1       3.491  26.193  -4.698  0.00  0.00    -0.035 C 
ATOM    104  H   ARG d   1       3.455  27.279  -4.614  0.00  0.00     0.036 H 
ATOM    105  H   ARG d   1       2.667  25.679  -4.203  0.00  0.00     0.036 H 
BRANCH 103 106
ATOM    106  CG  ARG d   1       3.404  25.846  -6.217  0.00  0.00    -0.047 C 
ATOM    107  H   ARG d   1       2.936  24.865  -6.299  0.00  0.00     0.035 H 
ATOM    108  H   ARG d   1       4.417  25.888  -6.617  0.00  0.00     0.035 H 
BRANCH 106 109
ATOM    109  CD  ARG d   1       2.539  26.841  -7.044  0.00  0.00     0.009 C 
ATOM    110  H   ARG d   1       2.572  26.514  -8.083  0.00  0.00     0.064 H 
ATOM    111  H   ARG d   1       2.948  27.839  -6.884  0.00  0.00     0.064 H 
BRANCH 109 112
ATOM    112  NE  ARG d   1       1.124  26.876  -6.639  0.00  0.00    -0.227 N 
ATOM    113  CZ  ARG d   1       0.240  27.824  -7.008  0.00  0.00     0.665 C 
ATOM    114  NH1 ARG d   1      -1.023  27.745  -6.568  0.00  0.00    -0.235 N 
ATOM    115  NH2 ARG d   1       0.596  28.856  -7.811  0.00  0.00    -0.235 N 
ATOM    116  H   ARG d   1      -1.305  26.974  -5.962  0.00  0.00     0.174 HD
ATOM    117  H   ARG d   1      -1.703  28.455  -6.839  0.00  0.00     0.174 HD
ATOM    118  H   ARG d   1       1.554  28.930  -8.152  0.00  0.00     0.174 HD
ATOM    119  H   ARG d   1      -0.095  29.559  -8.074  0.00  0.00     0.174 HD
ATOM    120  H   ARG d   1       0.788  26.127  -6.034  0.00  0.00     0.177 HD
ENDBRANCH 109 112
ENDBRANCH 106 109
ENDBRANCH 103 106
ENDBRANCH  98 103
ENDBRANCH  96  98
ENDBRANCH  92  94
BRANCH  92 121
ATOM    121  CB  ALA d   1       5.570  21.846  -6.186  0.00  0.00    -0.049 C 
ATOM    122  H   ALA d   1       5.662  20.770  -6.333  0.00  0.00     0.030 H 
ATOM    123  H   ALA d   1       4.525  22.139  -6.287  0.00  0.00     0.030 H 
ATOM    124  H   ALA d   1       6.169  22.368  -6.932  0.00  0.00     0.030 H 
ENDBRANCH  92 121
ENDBRANCH  90  92
ENDBRANCH  86  88
BRANCH  86 125
ATOM    125  CB  THR d   1       4.961  19.349  -1.579  0.00  0.00     0.060 C 
ATOM    126  H   THR d   1       4.739  19.000  -2.587  0.00  0.00     0.086 H 
BRANCH 125 127
ATOM    127  OG1 THR d   1       4.163  18.637  -0.615  0.00  0.00    -0.393 OA
ATOM    128  H   THR d   1       4.369  17.701  -0.660  0.00  0.00     0.210 HD
ENDBRANCH 125 127
BRANCH 125 129
ATOM    129  CG2 THR d   1       6.473  19.083  -1.318  0.00  0.00    -0.050 C 
ATOM    130  H   THR d   1       7.067  19.610  -2.064  0.00  0.00     0.031 H 
ATOM    131  H   THR d   1       6.737  19.440  -0.323  0.00  0.00     0.031 H 
ATOM    132  H   THR d   1       6.669  18.013  -1.385  0.00  0.00     0.031 H 
ENDBRANCH 125 129
ENDBRANCH  86 125
ENDBRANCH  84  86
ENDBRANCH  80  82
BRANCH  80 133
ATOM    133  CB  GLN d   1       0.196  21.855  -1.261  0.00  0.00    -0.049 C 
ATOM    134  H   GLN d   1      -0.811  21.968  -1.662  0.00  0.00     0.030 H 
ATOM    135  H   GLN d   1       0.391  20.803  -1.054  0.00  0.00     0.030 H 
ATOM    136  H   GLN d   1       0.288  22.430  -0.340  0.00  0.00     0.030 H 
ENDBRANCH  80 133
ENDBRANCH  78  80
ENDBRANCH   1  76
TORSDOF 40
