REMARK  29 active torsions:
REMARK  status: ('A' for Active; 'I' for Inactive)
REMARK    1  A    between atoms: N_1  and  CA_2 
REMARK    2  A    between atoms: CA_2  and  C_3 
REMARK    3  A    between atoms: CA_2  and  CB_5 
REMARK       I    between atoms: C_3  and  N_6 
REMARK    4  A    between atoms: N_6  and  CA_7 
REMARK    5  A    between atoms: CA_7  and  CB_8 
REMARK    6  A    between atoms: CA_7  and  C_17 
REMARK    7  A    between atoms: CB_8  and  CG_9 
REMARK    8  A    between atoms: CG_9  and  CD_10 
REMARK    9  A    between atoms: CD_10  and  NE_11 
REMARK       I    between atoms: NE_11  and  CZ_12 
REMARK       I    between atoms: CZ_12  and  NH1_13 
REMARK   10  A    between atoms: NH1_13  and  CQ1_14 
REMARK   11  A    between atoms: NH2_15  and  CQ2_16 
REMARK       I    between atoms: C_17  and  N_19 
REMARK   12  A    between atoms: N_19  and  CA_20 
REMARK   13  A    between atoms: CA_20  and  C_21 
REMARK   14  A    between atoms: CA_20  and  CB_23 
REMARK       I    between atoms: C_21  and  N_26 
REMARK   15  A    between atoms: CB_23  and  OG1_24 
REMARK   16  A    between atoms: CB_23  and  CG2_25 
REMARK   17  A    between atoms: N_26  and  CA_27 
REMARK   18  A    between atoms: CA_27  and  CB_28 
REMARK   19  A    between atoms: CA_27  and  C_33 
REMARK   20  A    between atoms: CB_28  and  CG_29 
REMARK   21  A    between atoms: CG_29  and  CD_30 
REMARK   22  A    between atoms: CD_30  and  CE_31 
REMARK   23  A    between atoms: CE_31  and  NZ_32 
REMARK   24  A    between atoms: NZ_32  and  CM1_35 
REMARK   25  A    between atoms: NZ_32  and  CM2_36 
REMARK   26  A    between atoms: NZ_32  and  CM3_37 
REMARK       I    between atoms: C_33  and  N_38 
REMARK   27  A    between atoms: N_38  and  CA_39 
REMARK   28  A    between atoms: CA_39  and  C_40 
REMARK   29  A    between atoms: CA_39  and  CB_42 
ROOT
ATOM      1  CA  THR d   1       2.056 -17.684   4.939  0.00  0.00     0.113 C 
ATOM      2  H   THR d   1       1.577 -17.270   5.827  0.00  0.00     0.091 H 
ENDROOT
BRANCH   1   3
ATOM      3  N   THR d   1       3.238 -16.871   4.574  0.00  0.00    -0.344 N 
ATOM      4  C   2MR d   1       4.041 -16.099   5.544  0.00  0.00     0.241 C 
ATOM      5  O   2MR d   1       3.668 -16.101   6.707  0.00  0.00    -0.271 OA
ATOM      6  H   THR d   1       3.515 -16.842   3.593  0.00  0.00     0.163 HD
BRANCH   4   7
ATOM      7  CA  2MR d   1       5.224 -15.300   5.042  0.00  0.00     0.089 C 
ATOM      8  H   2MR d   1       5.354 -15.469   3.973  0.00  0.00     0.087 H 
BRANCH   7   9
ATOM      9  N   2MR d   1       4.934 -13.916   5.348  0.00  0.00    -0.346 N 
ATOM     10  C   ALA d   1       4.568 -12.981   4.292  0.00  0.00     0.248 C 
ATOM     11  O   ALA d   1       4.789 -13.214   3.102  0.00  0.00    -0.271 OA
ATOM     12  H   2MR d   1       4.986 -13.591   6.314  0.00  0.00     0.163 HD
BRANCH  10  13
ATOM     13  CA  ALA d   1       4.010 -11.656   4.794  0.00  0.00     0.172 C 
ATOM     14  H   ALA d   1       4.444 -11.400   5.761  0.00  0.00     0.098 H 
BRANCH  13  15
ATOM     15  N   ALA d   1       4.344 -10.628   3.787  0.00  0.00    -0.067 N 
ATOM     16  H   ALA d   1       5.356 -10.582   3.673  0.00  0.00     0.275 HD
ATOM     17  H   ALA d   1       3.911 -10.873   2.897  0.00  0.00     0.275 HD
ATOM     18  H   ALA d   1       3.994  -9.722   4.099  0.00  0.00     0.275 HD
ENDBRANCH  13  15
BRANCH  13  19
ATOM     19  CB  ALA d   1       2.486 -11.748   4.988  0.00  0.00    -0.042 C 
ATOM     20  H   ALA d   1       2.014 -11.992   4.036  0.00  0.00     0.030 H 
ATOM     21  H   ALA d   1       2.260 -12.526   5.718  0.00  0.00     0.030 H 
ATOM     22  H   ALA d   1       2.108 -10.791   5.347  0.00  0.00     0.030 H 
ENDBRANCH  13  19
ENDBRANCH  10  13
ENDBRANCH   7   9
BRANCH   7  23
ATOM     23  CB  2MR d   1       6.546 -15.722   5.680  0.00  0.00    -0.036 C 
ATOM     24  H   2MR d   1       6.464 -15.602   6.760  0.00  0.00     0.036 H 
ATOM     25  H   2MR d   1       7.342 -15.100   5.271  0.00  0.00     0.036 H 
BRANCH  23  26
ATOM     26  CG  2MR d   1       6.870 -17.197   5.374  0.00  0.00    -0.048 C 
ATOM     27  H   2MR d   1       6.863 -17.335   4.293  0.00  0.00     0.035 H 
ATOM     28  H   2MR d   1       6.122 -17.823   5.861  0.00  0.00     0.035 H 
BRANCH  26  29
ATOM     29  CD  2MR d   1       8.263 -17.592   5.909  0.00  0.00     0.009 C 
ATOM     30  H   2MR d   1       8.368 -17.201   6.921  0.00  0.00     0.064 H 
ATOM     31  H   2MR d   1       9.019 -17.179   5.242  0.00  0.00     0.064 H 
BRANCH  29  32
ATOM     32  NE  2MR d   1       8.429 -19.063   5.954  0.00  0.00    -0.227 N 
ATOM     33  CZ  2MR d   1       8.796 -19.780   4.874  0.00  0.00     0.668 C 
ATOM     34  NH1 2MR d   1       9.077 -19.174   3.702  0.00  0.00    -0.231 N 
ATOM     35  NH2 2MR d   1       8.935 -21.102   4.977  0.00  0.00    -0.231 N 
ATOM     36  H   2MR d   1       8.998 -18.159   3.635  0.00  0.00     0.177 HD
ATOM     37  H   2MR d   1       9.243 -21.625   4.157  0.00  0.00     0.177 HD
ATOM     38  H   2MR d   1       8.259 -19.550   6.834  0.00  0.00     0.177 HD
BRANCH  34  39
ATOM     39  CQ1 2MR d   1       9.497 -19.946   2.511  0.00  0.00    -0.005 C 
ATOM     40  H   2MR d   1      10.415 -20.488   2.736  0.00  0.00     0.057 H 
ATOM     41  H   2MR d   1       8.712 -20.653   2.243  0.00  0.00     0.057 H 
ATOM     42  H   2MR d   1       9.672 -19.263   1.680  0.00  0.00     0.057 H 
ENDBRANCH  34  39
BRANCH  35  43
ATOM     43  CQ2 2MR d   1       8.663 -21.840   6.223  0.00  0.00    -0.005 C 
ATOM     44  H   2MR d   1       9.319 -21.472   7.012  0.00  0.00     0.057 H 
ATOM     45  H   2MR d   1       7.623 -21.689   6.513  0.00  0.00     0.057 H 
ATOM     46  H   2MR d   1       8.846 -22.902   6.062  0.00  0.00     0.057 H 
ENDBRANCH  35  43
ENDBRANCH  29  32
ENDBRANCH  26  29
ENDBRANCH  23  26
ENDBRANCH   7  23
ENDBRANCH   4   7
ENDBRANCH   1   3
BRANCH   1  47
ATOM     47  C   THR d   1       2.525 -19.109   5.220  0.00  0.00     0.243 C 
ATOM     48  O   THR d   1       3.665 -19.488   4.893  0.00  0.00    -0.271 OA
ATOM     49  N   M3L d   1       1.641 -19.879   5.845  0.00  0.00    -0.346 N 
ATOM     50  H   M3L d   1       0.815 -19.450   6.263  0.00  0.00     0.163 HD
BRANCH  49  51
ATOM     51  CA  M3L d   1       1.821 -21.322   5.949  0.00  0.00     0.089 C 
ATOM     52  H   M3L d   1       2.791 -21.539   6.397  0.00  0.00     0.087 H 
BRANCH  51  53
ATOM     53  CB  M3L d   1       0.750 -21.926   6.873  0.00  0.00    -0.038 C 
ATOM     54  H   M3L d   1      -0.208 -21.828   6.362  0.00  0.00     0.036 H 
ATOM     55  H   M3L d   1       0.807 -21.393   7.822  0.00  0.00     0.036 H 
BRANCH  53  56
ATOM     56  CG  M3L d   1       0.948 -23.407   7.176  0.00  0.00    -0.061 C 
ATOM     57  H   M3L d   1       1.986 -23.582   7.459  0.00  0.00     0.033 H 
ATOM     58  H   M3L d   1       0.704 -23.993   6.290  0.00  0.00     0.033 H 
BRANCH  56  59
ATOM     59  CD  M3L d   1       0.032 -23.825   8.327  0.00  0.00    -0.042 C 
ATOM     60  H   M3L d   1       0.166 -23.142   9.165  0.00  0.00     0.035 H 
ATOM     61  H   M3L d   1       0.282 -24.838   8.642  0.00  0.00     0.035 H 
BRANCH  59  62
ATOM     62  CE  M3L d   1      -1.415 -23.781   7.862  0.00  0.00     0.084 C 
ATOM     63  H   M3L d   1      -1.475 -24.377   6.952  0.00  0.00     0.076 H 
ATOM     64  H   M3L d   1      -1.676 -22.730   7.734  0.00  0.00     0.076 H 
BRANCH  62  65
ATOM     65  NZ  M3L d   1      -2.377 -24.349   8.809  0.00  0.00    -0.079 N 
BRANCH  65  66
ATOM     66  CM1 M3L d   1      -2.182 -25.793   8.940  0.00  0.00     0.067 C 
ATOM     67  H   M3L d   1      -2.321 -26.267   7.968  0.00  0.00     0.068 H 
ATOM     68  H   M3L d   1      -1.173 -25.991   9.301  0.00  0.00     0.068 H 
ATOM     69  H   M3L d   1      -2.907 -26.194   9.648  0.00  0.00     0.068 H 
ENDBRANCH  65  66
BRANCH  65  70
ATOM     70  CM2 M3L d   1      -3.716 -24.071   8.280  0.00  0.00     0.067 C 
ATOM     71  H   M3L d   1      -3.853 -22.993   8.191  0.00  0.00     0.068 H 
ATOM     72  H   M3L d   1      -3.821 -24.535   7.299  0.00  0.00     0.068 H 
ATOM     73  H   M3L d   1      -4.465 -24.479   8.958  0.00  0.00     0.068 H 
ENDBRANCH  65  70
BRANCH  65  74
ATOM     74  CM3 M3L d   1      -2.313 -23.695  10.133  0.00  0.00     0.067 C 
ATOM     75  H   M3L d   1      -1.314 -23.819  10.550  0.00  0.00     0.068 H 
ATOM     76  H   M3L d   1      -2.533 -22.633  10.023  0.00  0.00     0.068 H 
ATOM     77  H   M3L d   1      -3.045 -24.152  10.798  0.00  0.00     0.068 H 
ENDBRANCH  65  74
ENDBRANCH  62  65
ENDBRANCH  59  62
ENDBRANCH  56  59
ENDBRANCH  53  56
ENDBRANCH  51  53
BRANCH  51  78
ATOM     78  C   M3L d   1       1.810 -21.942   4.578  0.00  0.00     0.241 C 
ATOM     79  O   M3L d   1       0.978 -21.590   3.734  0.00  0.00    -0.271 OA
ATOM     80  N   GLN d   1       2.731 -22.881   4.362  0.00  0.00    -0.345 N 
ATOM     81  H   GLN d   1       3.346 -23.149   5.130  0.00  0.00     0.163 HD
BRANCH  80  82
ATOM     82  CA  GLN d   1       2.895 -23.542   3.071  0.00  0.00     0.093 C 
ATOM     83  H   GLN d   1       2.593 -22.848   2.287  0.00  0.00     0.089 H 
BRANCH  82  84
ATOM     84  C   GLN d   1       2.011 -24.781   2.994  0.00  0.00     0.196 C 
ATOM     85  O   GLN d   1       0.933 -24.825   3.592  0.00  0.00    -0.646 OA
ATOM     86  O   GLN d   1       2.385 -25.772   2.312  0.00  0.00    -0.646 OA
ENDBRANCH  82  84
BRANCH  82  87
ATOM     87  CB  GLN d   1       4.363 -23.925   2.849  0.00  0.00    -0.048 C 
ATOM     88  H   GLN d   1       4.979 -23.026   2.869  0.00  0.00     0.030 H 
ATOM     89  H   GLN d   1       4.684 -24.604   3.639  0.00  0.00     0.030 H 
ATOM     90  H   GLN d   1       4.467 -24.417   1.882  0.00  0.00     0.030 H 
ENDBRANCH  82  87
ENDBRANCH  80  82
ENDBRANCH  51  78
ENDBRANCH  49  51
ENDBRANCH   1  47
BRANCH   1  91
ATOM     91  CB  THR d   1       1.024 -17.667   3.807  0.00  0.00     0.060 C 
ATOM     92  H   THR d   1       0.122 -18.192   4.121  0.00  0.00     0.086 H 
BRANCH  91  93
ATOM     93  OG1 THR d   1       1.619 -18.295   2.664  0.00  0.00    -0.393 OA
ATOM     94  H   THR d   1       2.406 -17.809   2.406  0.00  0.00     0.210 HD
ENDBRANCH  91  93
BRANCH  91  95
ATOM     95  CG2 THR d   1       0.651 -16.225   3.445  0.00  0.00    -0.050 C 
ATOM     96  H   THR d   1       0.228 -15.730   4.319  0.00  0.00     0.031 H 
ATOM     97  H   THR d   1       1.544 -15.691   3.120  0.00  0.00     0.031 H 
ATOM     98  H   THR d   1      -0.083 -16.232   2.639  0.00  0.00     0.031 H 
ENDBRANCH  91  95
ENDBRANCH   1  91
TORSDOF 29
