REMARK  13 active torsions:
REMARK  status: ('A' for Active; 'I' for Inactive)
REMARK    1  A    between atoms: C2_2  and  C7_7 
REMARK       I    between atoms: C7_7  and  N9_9 
REMARK    2  A    between atoms: N9_9  and  C10_10 
REMARK    3  A    between atoms: C10_10  and  C11_11 
REMARK    4  A    between atoms: C10_10  and  C18_18 
REMARK    5  A    between atoms: C11_11  and  C12_12 
REMARK       I    between atoms: C18_18  and  N20_20 
REMARK    6  A    between atoms: N20_20  and  C21_21 
REMARK    7  A    between atoms: C21_21  and  C22_22 
REMARK    8  A    between atoms: C21_21  and  B26_26 
REMARK    9  A    between atoms: C22_22  and  C23_23 
REMARK   10  A    between atoms: C23_23  and  C24_24 
REMARK   11  A    between atoms: C23_23  and  C25_25 
REMARK   12  A    between atoms: B26_26  and  O27_27 
REMARK   13  A    between atoms: B26_26  and  O28_28 
ROOT
ATOM      1  C10 BO2 d   1      61.103-136.355  39.276  0.00  0.00     0.093 C 
ATOM      2  H   BO2 d   1      60.433-135.575  39.638  0.00  0.00     0.088 H 
ENDROOT
BRANCH   1   3
ATOM      3  N9  BO2 d   1      61.618-136.010  37.961  0.00  0.00    -0.342 N 
ATOM      4  C7  BO2 d   1      61.480-134.778  37.490  0.00  0.00     0.272 C 
ATOM      5  O8  BO2 d   1      60.891-133.916  38.126  0.00  0.00    -0.266 OA
ATOM      6  H   BO2 d   1      62.088-136.719  37.398  0.00  0.00     0.163 HD
BRANCH   4   7
ATOM      7  C2  BO2 d   1      62.083-134.456  36.152  0.00  0.00     0.141 A 
ATOM      8  N1  BO2 d   1      62.232-135.413  35.210  0.00  0.00    -0.253 NA
ATOM      9  C6  BO2 d   1      62.791-135.117  34.028  0.00  0.00     0.020 A 
ATOM     10  C5  BO2 d   1      63.234-133.822  33.772  0.00  0.00     0.019 A 
ATOM     11  H   BO2 d   1      62.899-135.890  33.267  0.00  0.00     0.117 H 
ATOM     12  N4  BO2 d   1      63.095-132.872  34.708  0.00  0.00    -0.269 NA
ATOM     13  H   BO2 d   1      63.693-133.581  32.813  0.00  0.00     0.117 H 
ATOM     14  C3  BO2 d   1      62.540-133.164  35.889  0.00  0.00     0.035 A 
ATOM     15  H   BO2 d   1      62.444-132.389  36.650  0.00  0.00     0.118 H 
ENDBRANCH   4   7
ENDBRANCH   1   3
BRANCH   1  16
ATOM     16  C11 BO2 d   1      60.348-137.674  39.203  0.00  0.00    -0.014 C 
ATOM     17  H   BO2 d   1      60.296-138.109  40.201  0.00  0.00     0.043 H 
ATOM     18  H   BO2 d   1      60.872-138.345  38.522  0.00  0.00     0.043 H 
BRANCH  16  19
ATOM     19  C12 BO2 d   1      58.947-137.452  38.692  0.00  0.00    -0.056 A 
ATOM     20  C13 BO2 d   1      58.646-137.785  37.365  0.00  0.00    -0.077 A 
ATOM     21  C14 BO2 d   1      57.352-137.593  36.865  0.00  0.00    -0.082 A 
ATOM     22  H   BO2 d   1      59.422-138.195  36.719  0.00  0.00     0.084 H 
ATOM     23  C15 BO2 d   1      56.357-137.071  37.699  0.00  0.00    -0.083 A 
ATOM     24  H   BO2 d   1      57.121-137.849  35.831  0.00  0.00     0.083 H 
ATOM     25  C16 BO2 d   1      56.662-136.743  39.028  0.00  0.00    -0.082 A 
ATOM     26  H   BO2 d   1      55.347-136.920  37.317  0.00  0.00     0.083 H 
ATOM     27  C17 BO2 d   1      57.954-136.933  39.533  0.00  0.00    -0.077 A 
ATOM     28  H   BO2 d   1      55.885-136.336  39.675  0.00  0.00     0.083 H 
ATOM     29  H   BO2 d   1      58.184-136.680  40.568  0.00  0.00     0.084 H 
ENDBRANCH  16  19
ENDBRANCH   1  16
BRANCH   1  30
ATOM     30  C18 BO2 d   1      62.284-136.539  40.180  0.00  0.00     0.240 C 
ATOM     31  O19 BO2 d   1      63.340-137.006  39.761  0.00  0.00    -0.271 OA
ATOM     32  N20 BO2 d   1      62.125-136.136  41.430  0.00  0.00    -0.358 N 
ATOM     33  H   BO2 d   1      61.246-135.710  41.724  0.00  0.00     0.162 HD
BRANCH  32  34
ATOM     34  C21 BO2 d   1      63.213-136.304  42.382  0.00  0.00     0.046 C 
ATOM     35  H   BO2 d   1      64.051-136.838  41.934  0.00  0.00     0.064 H 
BRANCH  34  36
ATOM     36  C22 BO2 d   1      63.852-134.976  42.839  0.00  0.00    -0.046 C 
ATOM     37  H   BO2 d   1      64.860-134.994  42.425  0.00  0.00     0.035 H 
ATOM     38  H   BO2 d   1      63.723-134.962  43.921  0.00  0.00     0.035 H 
BRANCH  36  39
ATOM     39  C23 BO2 d   1      63.255-133.660  42.357  0.00  0.00    -0.060 C 
ATOM     40  H   BO2 d   1      62.790-133.845  41.389  0.00  0.00     0.038 H 
BRANCH  39  41
ATOM     41  C24 BO2 d   1      62.210-133.148  43.330  0.00  0.00    -0.073 C 
ATOM     42  H   BO2 d   1      61.410-133.883  43.422  0.00  0.00     0.028 H 
ATOM     43  H   BO2 d   1      62.671-132.987  44.305  0.00  0.00     0.028 H 
ATOM     44  H   BO2 d   1      61.801-132.208  42.960  0.00  0.00     0.028 H 
ENDBRANCH  39  41
BRANCH  39  45
ATOM     45  C25 BO2 d   1      64.341-132.608  42.226  0.00  0.00    -0.073 C 
ATOM     46  H   BO2 d   1      64.813-132.452  43.196  0.00  0.00     0.028 H 
ATOM     47  H   BO2 d   1      65.088-132.946  41.507  0.00  0.00     0.028 H 
ATOM     48  H   BO2 d   1      63.900-131.673  41.881  0.00  0.00     0.028 H 
ENDBRANCH  39  45
ENDBRANCH  36  39
ENDBRANCH  34  36
BRANCH  34  49
ATOM     49  B26 BO2 d   1      62.543-137.099  43.599  0.00  0.00     0.515 B 
BRANCH  49  50
ATOM     50  O27 BO2 d   1      61.790-136.350  44.694  0.00  0.00    -0.436 OA
ATOM     51  H   BO2 d   1      62.177-136.559  45.547  0.00  0.00     0.184 HD
ENDBRANCH  49  50
BRANCH  49  52
ATOM     52  O28 BO2 d   1      62.589-138.632  43.632  0.00  0.00    -0.436 OA
ATOM     53  H   BO2 d   1      63.005-138.921  44.448  0.00  0.00     0.184 HD
ENDBRANCH  49  52
ENDBRANCH  34  49
ENDBRANCH  32  34
ENDBRANCH   1  30
TORSDOF 13
