REMARK  18 active torsions:
REMARK  status: ('A' for Active; 'I' for Inactive)
REMARK    1  A    between atoms: C1_1  and  N2_2 
REMARK    2  A    between atoms: C1_1  and  C3_3 
REMARK    3  A    between atoms: C1_1  and  C4_4 
REMARK       I    between atoms: N2_2  and  C34_34 
REMARK    4  A    between atoms: C3_3  and  C27_27 
REMARK       I    between atoms: C4_4  and  N5_5 
REMARK    5  A    between atoms: N5_5  and  C7_7 
REMARK    6  A    between atoms: C7_7  and  C8_8 
REMARK    7  A    between atoms: C7_7  and  C9_9 
REMARK    8  A    between atoms: C8_8  and  C20_20 
REMARK       I    between atoms: C9_9  and  N11_11 
REMARK    9  A    between atoms: N11_11  and  C12_12 
REMARK   10  A    between atoms: C12_12  and  C13_13 
REMARK   11  A    between atoms: C16_16  and  C19_19 
REMARK   12  A    between atoms: C20_20  and  C21_21 
REMARK   13  A    between atoms: C27_27  and  C28_28 
REMARK   14  A    between atoms: C34_34  and  C36_36 
REMARK   15  A    between atoms: C36_36  and  C37_37 
REMARK   16  A    between atoms: C36_36  and  N38_38 
REMARK   17  A    between atoms: C37_37  and  C41_39 
REMARK   18  A    between atoms: C41_39  and  C42_40 
ROOT
ATOM      1  C1  LXT d   1       9.089-137.689  19.568  0.00  0.00     0.089 C 
ATOM      2  H   LXT d   1       8.640-138.680  19.503  0.00  0.00     0.087 H 
ENDROOT
BRANCH   1   3
ATOM      3  N2  LXT d   1       9.614-137.488  20.942  0.00  0.00    -0.346 N 
ATOM      4  C34 LXT d   1      10.587-138.202  21.532  0.00  0.00     0.249 C 
ATOM      5  O35 LXT d   1      11.191-139.142  21.012  0.00  0.00    -0.271 OA
ATOM      6  H   LXT d   1       9.196-136.736  21.490  0.00  0.00     0.163 HD
BRANCH   4   7
ATOM      7  C36 LXT d   1      10.881-137.788  22.988  0.00  0.00     0.176 C 
ATOM      8  H   LXT d   1      10.547-136.759  23.120  0.00  0.00     0.099 H 
BRANCH   7   9
ATOM      9  C37 LXT d   1      12.389-137.821  23.311  0.00  0.00    -0.026 C 
ATOM     10  H   LXT d   1      12.940-137.842  22.370  0.00  0.00     0.037 H 
ATOM     11  H   LXT d   1      12.589-138.703  23.919  0.00  0.00     0.037 H 
BRANCH   9  12
ATOM     12  C41 LXT d   1      12.835-136.576  24.105  0.00  0.00    -0.039 C 
ATOM     13  H   LXT d   1      12.790-136.815  25.168  0.00  0.00     0.040 H 
ATOM     14  H   LXT d   1      12.173-135.750  23.845  0.00  0.00     0.040 H 
BRANCH  12  15
ATOM     15  C42 LXT d   1      14.281-136.162  23.764  0.00  0.00    -0.058 A 
ATOM     16  C43 LXT d   1      15.249-136.130  24.774  0.00  0.00    -0.077 A 
ATOM     17  C44 LXT d   1      16.560-135.760  24.465  0.00  0.00    -0.082 A 
ATOM     18  H   LXT d   1      14.981-136.393  25.797  0.00  0.00     0.084 H 
ATOM     19  C45 LXT d   1      16.905-135.424  23.150  0.00  0.00    -0.083 A 
ATOM     20  H   LXT d   1      17.316-135.733  25.249  0.00  0.00     0.083 H 
ATOM     21  C46 LXT d   1      15.945-135.451  22.134  0.00  0.00    -0.082 A 
ATOM     22  H   LXT d   1      17.931-135.139  22.917  0.00  0.00     0.083 H 
ATOM     23  C47 LXT d   1      14.635-135.818  22.447  0.00  0.00    -0.077 A 
ATOM     24  H   LXT d   1      16.216-135.189  21.111  0.00  0.00     0.083 H 
ATOM     25  H   LXT d   1      13.879-135.838  21.663  0.00  0.00     0.084 H 
ENDBRANCH  12  15
ENDBRANCH   9  12
ENDBRANCH   7   9
BRANCH   7  26
ATOM     26  N38 LXT d   1      10.149-138.690  23.904  0.00  0.00    -0.066 N 
ATOM     27  H   LXT d   1      10.340-138.421  24.869  0.00  0.00     0.275 HD
ATOM     28  H   LXT d   1       9.148-138.619  23.721  0.00  0.00     0.275 HD
ATOM     29  H   LXT d   1      10.456-139.650  23.751  0.00  0.00     0.275 HD
ENDBRANCH   7  26
ENDBRANCH   4   7
ENDBRANCH   1   3
BRANCH   1  30
ATOM     30  C3  LXT d   1       8.011-136.622  19.274  0.00  0.00    -0.034 C 
ATOM     31  H   LXT d   1       8.524-135.721  18.937  0.00  0.00     0.037 H 
ATOM     32  H   LXT d   1       7.435-136.477  20.188  0.00  0.00     0.037 H 
BRANCH  30  33
ATOM     33  C27 LXT d   1       7.025-137.036  18.165  0.00  0.00    -0.039 C 
ATOM     34  H   LXT d   1       6.953-138.124  18.153  0.00  0.00     0.040 H 
ATOM     35  H   LXT d   1       7.393-136.652  17.213  0.00  0.00     0.040 H 
BRANCH  33  36
ATOM     36  C28 LXT d   1       5.623-136.456  18.418  0.00  0.00    -0.058 A 
ATOM     37  C29 LXT d   1       4.694-137.166  19.199  0.00  0.00    -0.077 A 
ATOM     38  C30 LXT d   1       3.413-136.654  19.447  0.00  0.00    -0.082 A 
ATOM     39  H   LXT d   1       4.975-138.132  19.619  0.00  0.00     0.084 H 
ATOM     40  C31 LXT d   1       3.063-135.418  18.904  0.00  0.00    -0.083 A 
ATOM     41  H   LXT d   1       2.701-137.213  20.055  0.00  0.00     0.083 H 
ATOM     42  C32 LXT d   1       3.986-134.710  18.125  0.00  0.00    -0.082 A 
ATOM     43  H   LXT d   1       2.071-135.004  19.086  0.00  0.00     0.083 H 
ATOM     44  C33 LXT d   1       5.266-135.218  17.877  0.00  0.00    -0.077 A 
ATOM     45  H   LXT d   1       3.702-133.745  17.704  0.00  0.00     0.083 H 
ATOM     46  H   LXT d   1       5.975-134.655  17.270  0.00  0.00     0.084 H 
ENDBRANCH  33  36
ENDBRANCH  30  33
ENDBRANCH   1  30
BRANCH   1  47
ATOM     47  C4  LXT d   1      10.220-137.636  18.522  0.00  0.00     0.241 C 
ATOM     48  N5  LXT d   1      10.249-138.688  17.696  0.00  0.00    -0.346 N 
ATOM     49  H   LXT d   1       9.533-139.404  17.818  0.00  0.00     0.163 HD
ATOM     50  O6  LXT d   1      11.014-136.693  18.490  0.00  0.00    -0.271 OA
BRANCH  48  51
ATOM     51  C7  LXT d   1      11.241-138.889  16.620  0.00  0.00     0.089 C 
ATOM     52  H   LXT d   1      12.001-138.108  16.619  0.00  0.00     0.087 H 
BRANCH  51  53
ATOM     53  C8  LXT d   1      11.945-140.239  16.860  0.00  0.00    -0.034 C 
ATOM     54  H   LXT d   1      11.411-140.982  16.267  0.00  0.00     0.037 H 
ATOM     55  H   LXT d   1      11.934-140.412  17.936  0.00  0.00     0.037 H 
BRANCH  53  56
ATOM     56  C20 LXT d   1      13.417-140.294  16.418  0.00  0.00    -0.039 C 
ATOM     57  H   LXT d   1      13.429-140.003  15.368  0.00  0.00     0.040 H 
ATOM     58  H   LXT d   1      13.764-141.302  16.645  0.00  0.00     0.040 H 
BRANCH  56  59
ATOM     59  C21 LXT d   1      14.384-139.336  17.139  0.00  0.00    -0.058 A 
ATOM     60  C22 LXT d   1      15.611-139.055  16.526  0.00  0.00    -0.077 A 
ATOM     61  C23 LXT d   1      16.525-138.190  17.134  0.00  0.00    -0.082 A 
ATOM     62  H   LXT d   1      15.855-139.514  15.568  0.00  0.00     0.084 H 
ATOM     63  C24 LXT d   1      16.208-137.601  18.365  0.00  0.00    -0.083 A 
ATOM     64  H   LXT d   1      17.479-137.975  16.653  0.00  0.00     0.083 H 
ATOM     65  C25 LXT d   1      14.986-137.880  18.987  0.00  0.00    -0.082 A 
ATOM     66  H   LXT d   1      16.916-136.923  18.840  0.00  0.00     0.083 H 
ATOM     67  C26 LXT d   1      14.081-138.750  18.374  0.00  0.00    -0.077 A 
ATOM     68  H   LXT d   1      14.742-137.421  19.945  0.00  0.00     0.083 H 
ATOM     69  H   LXT d   1      13.132-138.974  18.861  0.00  0.00     0.084 H 
ENDBRANCH  56  59
ENDBRANCH  53  56
ENDBRANCH  51  53
BRANCH  51  70
ATOM     70  C9  LXT d   1      10.524-138.829  15.263  0.00  0.00     0.240 C 
ATOM     71  O10 LXT d   1       9.510-139.490  15.049  0.00  0.00    -0.271 OA
ATOM     72  N11 LXT d   1      11.070-137.997  14.378  0.00  0.00    -0.355 N 
ATOM     73  H   LXT d   1      11.926-137.509  14.640  0.00  0.00     0.162 HD
BRANCH  72  74
ATOM     74  C12 LXT d   1      10.506-137.743  13.043  0.00  0.00     0.019 C 
ATOM     75  H   LXT d   1       9.851-138.559  12.736  0.00  0.00     0.071 H 
ATOM     76  H   LXT d   1      11.295-137.677  12.294  0.00  0.00     0.071 H 
BRANCH  74  77
ATOM     77  C13 LXT d   1       9.730-136.425  13.138  0.00  0.00    -0.041 A 
ATOM     78  C14 LXT d   1      10.221-135.259  12.535  0.00  0.00    -0.075 A 
ATOM     79  C15 LXT d   1       9.512-134.055  12.643  0.00  0.00    -0.077 A 
ATOM     80  H   LXT d   1      11.158-135.289  11.980  0.00  0.00     0.084 H 
ATOM     81  C16 LXT d   1       8.315-134.021  13.358  0.00  0.00    -0.062 A 
ATOM     82  H   LXT d   1       9.894-133.150  12.171  0.00  0.00     0.084 H 
ATOM     83  C17 LXT d   1       7.827-135.181  13.961  0.00  0.00    -0.077 A 
ATOM     84  C18 LXT d   1       8.531-136.382  13.856  0.00  0.00    -0.075 A 
ATOM     85  H   LXT d   1       6.890-135.149  14.518  0.00  0.00     0.084 H 
ATOM     86  H   LXT d   1       8.147-137.284  14.333  0.00  0.00     0.084 H 
BRANCH  81  87
ATOM     87  C19 LXT d   1       7.530-132.721  13.486  0.00  0.00    -0.051 C 
ATOM     88  H   LXT d   1       8.149-131.971  13.979  0.00  0.00     0.033 H 
ATOM     89  H   LXT d   1       7.250-132.368  12.493  0.00  0.00     0.033 H 
ATOM     90  H   LXT d   1       6.631-132.898  14.077  0.00  0.00     0.033 H 
ENDBRANCH  81  87
ENDBRANCH  74  77
ENDBRANCH  72  74
ENDBRANCH  51  70
ENDBRANCH  48  51
ENDBRANCH   1  47
TORSDOF 18
