REMARK  17 active torsions:
REMARK  status: ('A' for Active; 'I' for Inactive)
REMARK    1  A    between atoms: C3_3  and  O4_4 
REMARK    2  A    between atoms: O4_4  and  C5_5 
REMARK    3  A    between atoms: C13_13  and  C12_12 
REMARK    4  A    between atoms: C42_42  and  C13_13 
REMARK    5  A    between atoms: C15_15  and  C14_14 
REMARK    6  A    between atoms: C21_21  and  C18_18 
REMARK    7  A    between atoms: N22_22  and  C21_21 
REMARK       I    between atoms: C23_23  and  N22_22 
REMARK    8  A    between atoms: C25_25  and  C23_23 
REMARK    9  A    between atoms: C25_25  and  C26_26 
REMARK   10  A    between atoms: N27_27  and  C25_25 
REMARK   11  A    between atoms: C26_26  and  C28_28 
REMARK       I    between atoms: C29_29  and  N27_27 
REMARK   12  A    between atoms: C28_28  and  C36_36 
REMARK   13  A    between atoms: C31_31  and  C29_29 
REMARK   14  A    between atoms: N32_32  and  C31_31 
REMARK   15  A    between atoms: C31_31  and  C33_33 
REMARK       I    between atoms: N32_32  and  C42_42 
REMARK   16  A    between atoms: C33_33  and  O34_34 
REMARK   17  A    between atoms: C33_33  and  C35_35 
ROOT
ATOM      1  N27 LZT d   1      11.040-137.715  17.124  0.00  0.00    -0.346 N 
ATOM      2  C29 LZT d   1      11.105-136.774  18.062  0.00  0.00     0.243 C 
ATOM      3  O30 LZT d   1      11.831-135.790  18.037  0.00  0.00    -0.271 OA
ATOM      4  H   LZT d   1      10.406-138.499  17.277  0.00  0.00     0.163 HD
ENDROOT
BRANCH   1   5
ATOM      5  C25 LZT d   1      11.825-137.696  15.880  0.00  0.00     0.089 C 
ATOM      6  H   LZT d   1      12.547-136.880  15.917  0.00  0.00     0.087 H 
BRANCH   5   7
ATOM      7  C23 LZT d   1      10.881-137.465  14.665  0.00  0.00     0.240 C 
ATOM      8  N22 LZT d   1      11.363-136.652  13.741  0.00  0.00    -0.355 N 
ATOM      9  H   LZT d   1      12.286-136.234  13.861  0.00  0.00     0.162 HD
ATOM     10  O24 LZT d   1       9.765-137.987  14.569  0.00  0.00    -0.271 OA
BRANCH   8  11
ATOM     11  C21 LZT d   1      10.579-136.352  12.552  0.00  0.00     0.019 C 
ATOM     12  H   LZT d   1      11.235-136.274  11.685  0.00  0.00     0.071 H 
ATOM     13  H   LZT d   1       9.858-137.149  12.372  0.00  0.00     0.071 H 
BRANCH  11  14
ATOM     14  C18 LZT d   1       9.849-135.030  12.772  0.00  0.00    -0.041 A 
ATOM     15  C17 LZT d   1       8.698-134.964  13.567  0.00  0.00    -0.075 A 
ATOM     16  C16 LZT d   1       8.067-133.737  13.741  0.00  0.00    -0.077 A 
ATOM     17  H   LZT d   1       8.302-135.862  14.043  0.00  0.00     0.084 H 
ATOM     18  C15 LZT d   1       8.587-132.602  13.124  0.00  0.00    -0.062 A 
ATOM     19  H   LZT d   1       7.171-133.664  14.357  0.00  0.00     0.084 H 
ATOM     20  C20 LZT d   1       9.725-132.686  12.332  0.00  0.00    -0.077 A 
ATOM     21  C19 LZT d   1      10.359-133.901  12.151  0.00  0.00    -0.075 A 
ATOM     22  H   LZT d   1      10.120-131.791  11.851  0.00  0.00     0.084 H 
ATOM     23  H   LZT d   1      11.250-133.970  11.527  0.00  0.00     0.084 H 
BRANCH  18  24
ATOM     24  C14 LZT d   1       7.910-131.232  13.282  0.00  0.00    -0.051 C 
ATOM     25  H   LZT d   1       6.891-131.285  12.897  0.00  0.00     0.033 H 
ATOM     26  H   LZT d   1       7.888-130.959  14.337  0.00  0.00     0.033 H 
ATOM     27  H   LZT d   1       8.472-130.484  12.723  0.00  0.00     0.033 H 
ENDBRANCH  18  24
ENDBRANCH  11  14
ENDBRANCH   8  11
ENDBRANCH   5   7
BRANCH   5  28
ATOM     28  C26 LZT d   1      12.582-139.008  15.731  0.00  0.00    -0.034 C 
ATOM     29  H   LZT d   1      13.237-138.950  14.862  0.00  0.00     0.037 H 
ATOM     30  H   LZT d   1      11.870-139.823  15.602  0.00  0.00     0.037 H 
BRANCH  28  31
ATOM     31  C28 LZT d   1      13.425-139.266  16.985  0.00  0.00    -0.039 C 
ATOM     32  H   LZT d   1      13.703-140.320  17.019  0.00  0.00     0.040 H 
ATOM     33  H   LZT d   1      12.842-139.004  17.868  0.00  0.00     0.040 H 
BRANCH  31  34
ATOM     34  C36 LZT d   1      14.691-138.415  16.949  0.00  0.00    -0.058 A 
ATOM     35  C37 LZT d   1      15.547-138.481  15.842  0.00  0.00    -0.077 A 
ATOM     36  C39 LZT d   1      16.716-137.716  15.795  0.00  0.00    -0.082 A 
ATOM     37  H   LZT d   1      15.299-139.137  15.007  0.00  0.00     0.084 H 
ATOM     38  C40 LZT d   1      17.013-136.874  16.863  0.00  0.00    -0.083 A 
ATOM     39  H   LZT d   1      17.384-137.778  14.936  0.00  0.00     0.083 H 
ATOM     40  C41 LZT d   1      16.152-136.802  17.959  0.00  0.00    -0.082 A 
ATOM     41  H   LZT d   1      17.920-136.270  16.843  0.00  0.00     0.083 H 
ATOM     42  C38 LZT d   1      14.983-137.568  18.012  0.00  0.00    -0.077 A 
ATOM     43  H   LZT d   1      16.395-136.137  18.788  0.00  0.00     0.083 H 
ATOM     44  H   LZT d   1      14.314-137.502  18.870  0.00  0.00     0.084 H 
ENDBRANCH  31  34
ENDBRANCH  28  31
ENDBRANCH   5  28
ENDBRANCH   1   5
BRANCH   2  45
ATOM     45  C31 LZT d   1      10.170-137.032  19.224  0.00  0.00     0.113 C 
ATOM     46  H   LZT d   1      10.046-138.115  19.233  0.00  0.00     0.091 H 
BRANCH  45  47
ATOM     47  N32 LZT d   1      10.718-136.675  20.547  0.00  0.00    -0.345 N 
ATOM     48  C42 LZT d   1      11.807-137.266  21.010  0.00  0.00     0.219 C 
ATOM     49  O43 LZT d   1      12.476-138.091  20.400  0.00  0.00    -0.274 OA
ATOM     50  H   LZT d   1      10.252-135.964  21.111  0.00  0.00     0.163 HD
BRANCH  48  51
ATOM     51  C13 LZT d   1      12.235-136.889  22.393  0.00  0.00     0.017 C 
ATOM     52  H   LZT d   1      11.371-136.451  22.892  0.00  0.00     0.048 H 
ATOM     53  H   LZT d   1      12.611-137.792  22.874  0.00  0.00     0.048 H 
BRANCH  51  54
ATOM     54  C12 LZT d   1      13.369-135.841  22.433  0.00  0.00    -0.013 C 
ATOM     55  C1  LZT d   1      13.913-135.703  23.845  0.00  0.00    -0.037 A 
ATOM     56  C2  LZT d   1      13.375-136.061  25.075  0.00  0.00    -0.043 A 
ATOM     57  C8  LZT d   1      15.106-134.977  23.727  0.00  0.00     0.017 A 
ATOM     58  C3  LZT d   1      14.071-135.720  26.218  0.00  0.00     0.068 A 
ATOM     59  H   LZT d   1      12.428-136.597  25.136  0.00  0.00     0.088 H 
ATOM     60  C6  LZT d   1      15.278-135.009  26.126  0.00  0.00    -0.050 A 
ATOM     61  C7  LZT d   1      15.806-134.632  24.883  0.00  0.00    -0.066 A 
ATOM     62  H   LZT d   1      15.815-134.745  27.038  0.00  0.00     0.087 H 
ATOM     63  H   LZT d   1      16.744-134.081  24.821  0.00  0.00     0.085 H 
ATOM     64  C9  LZT d   1      15.322-134.797  22.353  0.00  0.00     0.160 C 
ATOM     65  O10 LZT d   1      15.966-133.884  21.838  0.00  0.00    -0.292 OA
ATOM     66  C11 LZT d   1      14.628-135.950  21.588  0.00  0.00     0.003 C 
ATOM     67  H   LZT d   1      15.133-136.914  21.527  0.00  0.00     0.045 H 
ATOM     68  H   LZT d   1      14.537-135.876  20.504  0.00  0.00     0.045 H 
ATOM     69  H   LZT d   1      12.804-135.017  21.998  0.00  0.00     0.048 H 
BRANCH  58  70
ATOM     70  O4  LZT d   1      13.520-136.100  27.402  0.00  0.00    -0.356 OA
BRANCH  70  71
ATOM     71  C5  LZT d   1      14.246-135.472  28.422  0.00  0.00     0.010 C 
ATOM     72  H   LZT d   1      15.289-135.783  28.368  0.00  0.00     0.066 H 
ATOM     73  H   LZT d   1      14.181-134.391  28.300  0.00  0.00     0.066 H 
ATOM     74  H   LZT d   1      13.830-135.755  29.389  0.00  0.00     0.066 H 
ENDBRANCH  70  71
ENDBRANCH  58  70
ENDBRANCH  51  54
ENDBRANCH  48  51
ENDBRANCH  45  47
BRANCH  45  75
ATOM     75  C33 LZT d   1       8.807-136.374  19.017  0.00  0.00     0.060 C 
ATOM     76  H   LZT d   1       8.918-135.292  19.088  0.00  0.00     0.086 H 
BRANCH  75  77
ATOM     77  O34 LZT d   1       7.945-136.912  19.999  0.00  0.00    -0.393 OA
ATOM     78  H   LZT d   1       7.072-136.523  19.905  0.00  0.00     0.210 HD
ENDBRANCH  75  77
BRANCH  75  79
ATOM     79  C35 LZT d   1       8.220-136.696  17.655  0.00  0.00    -0.050 C 
ATOM     80  H   LZT d   1       8.893-136.337  16.877  0.00  0.00     0.031 H 
ATOM     81  H   LZT d   1       8.095-137.775  17.560  0.00  0.00     0.031 H 
ATOM     82  H   LZT d   1       7.251-136.207  17.553  0.00  0.00     0.031 H 
ENDBRANCH  75  79
ENDBRANCH  45  75
ENDBRANCH   2  45
TORSDOF 17
