REMARK  17 active torsions:
REMARK  status: ('A' for Active; 'I' for Inactive)
REMARK    1  A    between atoms: C8_7  and  C1_1 
REMARK    2  A    between atoms: C6_6  and  CL7_44 
REMARK    3  A    between atoms: N30_29  and  C8_7 
REMARK    4  A    between atoms: C28_27  and  C9_8 
REMARK    5  A    between atoms: C12_11  and  C10_9 
REMARK       I    between atoms: C10_9  and  N30_29 
REMARK    6  A    between atoms: C12_11  and  C13_12 
REMARK    7  A    between atoms: N14_13  and  C12_11 
REMARK    8  A    between atoms: C13_12  and  C15_14 
REMARK       I    between atoms: C16_15  and  N14_13 
REMARK    9  A    between atoms: C15_14  and  C22_21 
REMARK   10  A    between atoms: C18_17  and  C16_15 
REMARK   11  A    between atoms: N19_18  and  C18_17 
REMARK   12  A    between atoms: C18_17  and  C20_19 
REMARK       I    between atoms: N19_18  and  C28_27 
REMARK   13  A    between atoms: C20_19  and  O21_20 
REMARK   14  A    between atoms: C20_19  and  C44_43 
REMARK   15  A    between atoms: C33_32  and  O36_35 
REMARK   16  A    between atoms: O36_35  and  C37_36 
REMARK   17  A    between atoms: C37_36  and  C38_37 
ROOT
ATOM      1  N14 L2T d   1      10.616-138.010  17.066  0.00  0.00    -0.346 N 
ATOM      2  C16 L2T d   1      10.627-137.042  17.972  0.00  0.00     0.243 C 
ATOM      3  O17 L2T d   1      11.340-136.045  17.923  0.00  0.00    -0.271 OA
ATOM      4  H   L2T d   1       9.993-138.804  17.214  0.00  0.00     0.163 HD
ENDROOT
BRANCH   1   5
ATOM      5  C12 L2T d   1      11.454-137.999  15.860  0.00  0.00     0.089 C 
ATOM      6  H   L2T d   1      12.221-137.230  15.949  0.00  0.00     0.087 H 
BRANCH   5   7
ATOM      7  C10 L2T d   1      10.546-137.706  14.649  0.00  0.00     0.240 C 
ATOM      8  O11 L2T d   1       9.449-138.243  14.513  0.00  0.00    -0.271 OA
ATOM      9  N30 L2T d   1      11.037-136.829  13.791  0.00  0.00    -0.355 N 
ATOM     10  H   L2T d   1      11.953-136.421  13.978  0.00  0.00     0.162 HD
BRANCH   9  11
ATOM     11  C8  L2T d   1      10.321-136.420  12.585  0.00  0.00     0.019 C 
ATOM     12  H   L2T d   1      11.048-136.284  11.784  0.00  0.00     0.071 H 
ATOM     13  H   L2T d   1       9.591-137.192  12.341  0.00  0.00     0.071 H 
BRANCH  11  14
ATOM     14  C1  L2T d   1       9.575-135.099  12.788  0.00  0.00    -0.035 A 
ATOM     15  C2  L2T d   1       8.258-135.177  13.232  0.00  0.00    -0.075 A 
ATOM     16  C3  L2T d   1       7.502-134.022  13.429  0.00  0.00    -0.082 A 
ATOM     17  H   L2T d   1       7.812-136.152  13.428  0.00  0.00     0.084 H 
ATOM     18  C4  L2T d   1       8.054-132.774  13.174  0.00  0.00    -0.082 A 
ATOM     19  H   L2T d   1       6.474-134.099  13.784  0.00  0.00     0.083 H 
ATOM     20  C5  L2T d   1       9.368-132.689  12.727  0.00  0.00    -0.077 A 
ATOM     21  H   L2T d   1       7.463-131.870  13.323  0.00  0.00     0.083 H 
ATOM     22  C6  L2T d   1      10.131-133.842  12.534  0.00  0.00    -0.054 A 
ATOM     23  H   L2T d   1       9.807-131.712  12.525  0.00  0.00     0.084 H 
BRANCH  22  24
ATOM     24  CL7 L2T d   1      11.782-133.698  11.984  0.00  0.00    -0.051 C 
ATOM     25  H   L2T d   1      11.799-133.199  11.015  0.00  0.00     0.033 H 
ATOM     26  H   L2T d   1      12.354-133.114  12.705  0.00  0.00     0.033 H 
ATOM     27  H   L2T d   1      12.220-134.692  11.890  0.00  0.00     0.033 H 
ENDBRANCH  22  24
ENDBRANCH  11  14
ENDBRANCH   9  11
ENDBRANCH   5   7
BRANCH   5  28
ATOM     28  C13 L2T d   1      12.174-139.344  15.682  0.00  0.00    -0.034 C 
ATOM     29  H   L2T d   1      12.837-139.256  14.821  0.00  0.00     0.037 H 
ATOM     30  H   L2T d   1      11.414-140.115  15.554  0.00  0.00     0.037 H 
BRANCH  28  31
ATOM     31  C15 L2T d   1      13.026-139.724  16.891  0.00  0.00    -0.039 C 
ATOM     32  H   L2T d   1      13.426-140.727  16.741  0.00  0.00     0.040 H 
ATOM     33  H   L2T d   1      12.405-139.691  17.786  0.00  0.00     0.040 H 
BRANCH  31  34
ATOM     34  C22 L2T d   1      14.186-138.746  17.055  0.00  0.00    -0.058 A 
ATOM     35  C23 L2T d   1      14.200-137.867  18.144  0.00  0.00    -0.077 A 
ATOM     36  C25 L2T d   1      15.260-136.973  18.287  0.00  0.00    -0.082 A 
ATOM     37  H   L2T d   1      13.390-137.881  18.873  0.00  0.00     0.084 H 
ATOM     38  C26 L2T d   1      16.294-136.958  17.350  0.00  0.00    -0.083 A 
ATOM     39  H   L2T d   1      15.281-136.285  19.132  0.00  0.00     0.083 H 
ATOM     40  C27 L2T d   1      16.283-137.837  16.270  0.00  0.00    -0.082 A 
ATOM     41  H   L2T d   1      17.117-136.252  17.464  0.00  0.00     0.083 H 
ATOM     42  C24 L2T d   1      15.223-138.732  16.120  0.00  0.00    -0.077 A 
ATOM     43  H   L2T d   1      17.098-137.826  15.546  0.00  0.00     0.083 H 
ATOM     44  H   L2T d   1      15.204-139.419  15.274  0.00  0.00     0.084 H 
ENDBRANCH  31  34
ENDBRANCH  28  31
ENDBRANCH   5  28
ENDBRANCH   1   5
BRANCH   2  45
ATOM     45  C18 L2T d   1       9.633-137.281  19.112  0.00  0.00     0.114 C 
ATOM     46  H   L2T d   1       9.357-138.333  19.037  0.00  0.00     0.091 H 
BRANCH  45  47
ATOM     47  N19 L2T d   1      10.211-137.088  20.455  0.00  0.00    -0.341 N 
ATOM     48  C28 L2T d   1      11.228-137.818  20.904  0.00  0.00     0.252 C 
ATOM     49  O29 L2T d   1      11.800-138.685  20.251  0.00  0.00    -0.268 OA
ATOM     50  H   L2T d   1       9.817-136.369  21.061  0.00  0.00     0.163 HD
BRANCH  48  51
ATOM     51  C9  L2T d   1      11.671-137.515  22.326  0.00  0.00     0.032 A 
ATOM     52  C31 L2T d   1      11.891-138.569  23.220  0.00  0.00    -0.065 A 
ATOM     53  C32 L2T d   1      12.296-138.286  24.527  0.00  0.00    -0.050 A 
ATOM     54  H   L2T d   1      11.748-139.601  22.900  0.00  0.00     0.085 H 
ATOM     55  C33 L2T d   1      12.474-136.953  24.926  0.00  0.00     0.069 A 
ATOM     56  H   L2T d   1      12.473-139.097  25.233  0.00  0.00     0.087 H 
ATOM     57  C34 L2T d   1      12.240-135.913  24.025  0.00  0.00    -0.050 A 
ATOM     58  C35 L2T d   1      11.842-136.192  22.723  0.00  0.00    -0.065 A 
ATOM     59  H   L2T d   1      12.370-134.879  24.344  0.00  0.00     0.087 H 
ATOM     60  H   L2T d   1      11.665-135.380  22.017  0.00  0.00     0.085 H 
BRANCH  55  61
ATOM     61  O36 L2T d   1      12.858-136.591  26.183  0.00  0.00    -0.347 OA
BRANCH  61  62
ATOM     62  C37 L2T d   1      13.490-137.560  27.038  0.00  0.00     0.050 C 
ATOM     63  H   L2T d   1      14.193-138.109  26.412  0.00  0.00     0.082 H 
ATOM     64  H   L2T d   1      12.686-138.148  27.481  0.00  0.00     0.082 H 
BRANCH  62  65
ATOM     65  C38 L2T d   1      14.229-137.046  28.098  0.00  0.00    -0.034 A 
ATOM     66  C39 L2T d   1      15.560-137.426  28.278  0.00  0.00    -0.075 A 
ATOM     67  C40 L2T d   1      16.296-136.890  29.333  0.00  0.00    -0.082 A 
ATOM     68  H   L2T d   1      16.022-138.139  27.596  0.00  0.00     0.084 H 
ATOM     69  C41 L2T d   1      15.699-135.973  30.202  0.00  0.00    -0.083 A 
ATOM     70  H   L2T d   1      17.335-137.185  29.480  0.00  0.00     0.083 H 
ATOM     71  C42 L2T d   1      14.368-135.594  30.021  0.00  0.00    -0.082 A 
ATOM     72  H   L2T d   1      16.276-135.552  31.025  0.00  0.00     0.083 H 
ATOM     73  C43 L2T d   1      13.634-136.123  28.961  0.00  0.00    -0.075 A 
ATOM     74  H   L2T d   1      13.904-134.886  30.707  0.00  0.00     0.083 H 
ATOM     75  H   L2T d   1      12.599-135.817  28.806  0.00  0.00     0.084 H 
ENDBRANCH  62  65
ENDBRANCH  61  62
ENDBRANCH  55  61
ENDBRANCH  48  51
ENDBRANCH  45  47
BRANCH  45  76
ATOM     76  C20 L2T d   1       8.379-136.413  18.951  0.00  0.00     0.060 C 
ATOM     77  H   L2T d   1       8.674-135.365  18.899  0.00  0.00     0.086 H 
BRANCH  76  78
ATOM     78  O21 L2T d   1       7.530-136.646  20.070  0.00  0.00    -0.393 OA
ATOM     79  H   L2T d   1       6.738-136.110  19.986  0.00  0.00     0.210 HD
ENDBRANCH  76  78
BRANCH  76  80
ATOM     80  C44 L2T d   1       7.634-136.749  17.664  0.00  0.00    -0.050 C 
ATOM     81  H   L2T d   1       8.289-136.575  16.810  0.00  0.00     0.031 H 
ATOM     82  H   L2T d   1       7.332-137.796  17.684  0.00  0.00     0.031 H 
ATOM     83  H   L2T d   1       6.751-136.116  17.581  0.00  0.00     0.031 H 
ENDBRANCH  76  80
ENDBRANCH  45  76
ENDBRANCH   2  45
TORSDOF 17
