REMARK  18 active torsions:
REMARK  status: ('A' for Active; 'I' for Inactive)
REMARK    1  A    between atoms: C10_10  and  C4_4 
REMARK    2  A    between atoms: C11_11  and  C10_10 
REMARK       I    between atoms: N24_24  and  C11_11 
REMARK    3  A    between atoms: N15_15  and  C16_16 
REMARK       I    between atoms: C25_25  and  N15_15 
REMARK    4  A    between atoms: C16_16  and  C17_17 
REMARK    5  A    between atoms: C18_18  and  CL23_23 
REMARK    6  A    between atoms: C36_36  and  N24_24 
REMARK    7  A    between atoms: C26_26  and  C25_25 
REMARK    8  A    between atoms: C26_26  and  C28_28 
REMARK    9  A    between atoms: N29_29  and  C26_26 
REMARK   10  A    between atoms: C28_28  and  C30_30 
REMARK       I    between atoms: C35_35  and  N29_29 
REMARK   11  A    between atoms: C35_35  and  C36_36 
REMARK   12  A    between atoms: C36_36  and  C38_38 
REMARK   13  A    between atoms: C38_38  and  C39_39 
REMARK       I    between atoms: C39_39  and  N40_40 
REMARK   14  A    between atoms: N40_40  and  C42_42 
REMARK   15  A    between atoms: C42_42  and  C43_43 
REMARK   16  A    between atoms: C43_43  and  C44_44 
REMARK   17  A    between atoms: C43_43  and  C45_45 
REMARK   18  A    between atoms: C43_43  and  C46_46 
ROOT
ATOM      1  C36 L3T d   1       9.983-136.425  19.258  0.00  0.00     0.098 C 
ATOM      2  H   L3T d   1       9.786-137.490  19.377  0.00  0.00     0.088 H 
ENDROOT
BRANCH   1   3
ATOM      3  N24 L3T d   1      10.447-135.967  20.571  0.00  0.00    -0.341 N 
ATOM      4  C11 L3T d   1      10.961-136.806  21.463  0.00  0.00     0.293 C 
ATOM      5  O13 L3T d   1      11.142-137.994  21.219  0.00  0.00    -0.264 OA
ATOM      6  H   L3T d   1      10.373-134.977  20.806  0.00  0.00     0.163 HD
BRANCH   4   7
ATOM      7  C10 L3T d   1      11.403-136.244  22.816  0.00  0.00     0.251 C 
ATOM      8  O12 L3T d   1      11.201-135.055  23.035  0.00  0.00    -0.281 OA
BRANCH   7   9
ATOM      9  C4  L3T d   1      11.879-137.133  23.967  0.00  0.00     0.048 A 
ATOM     10  C3  L3T d   1      11.616-138.440  24.096  0.00  0.00    -0.008 A 
ATOM     11  N2  L3T d   1      12.128-138.863  25.257  0.00  0.00    -0.364 N 
ATOM     12  H   L3T d   1      11.076-139.055  23.376  0.00  0.00     0.112 H 
ATOM     13  C1  L3T d   1      12.688-137.826  25.902  0.00  0.00     0.043 A 
ATOM     14  H   L3T d   1      12.098-139.823  25.599  0.00  0.00     0.165 HD
ATOM     15  C5  L3T d   1      12.527-136.685  25.109  0.00  0.00     0.006 A 
ATOM     16  C9  L3T d   1      13.351-137.723  27.129  0.00  0.00    -0.056 A 
ATOM     17  C6  L3T d   1      13.018-135.444  25.519  0.00  0.00    -0.070 A 
ATOM     18  C7  L3T d   1      13.675-135.345  26.742  0.00  0.00    -0.082 A 
ATOM     19  H   L3T d   1      12.888-134.564  24.889  0.00  0.00     0.084 H 
ATOM     20  C8  L3T d   1      13.840-136.479  27.543  0.00  0.00    -0.081 A 
ATOM     21  H   L3T d   1      14.061-134.382  27.076  0.00  0.00     0.083 H 
ATOM     22  H   L3T d   1      14.355-136.393  28.500  0.00  0.00     0.083 H 
ATOM     23  H   L3T d   1      13.486-138.604  27.757  0.00  0.00     0.086 H 
ENDBRANCH   7   9
ENDBRANCH   4   7
ENDBRANCH   1   3
BRANCH   1  24
ATOM     24  C35 L3T d   1      10.998-136.210  18.166  0.00  0.00     0.241 C 
ATOM     25  N29 L3T d   1      10.916-137.139  17.235  0.00  0.00    -0.346 N 
ATOM     26  H   L3T d   1      10.279-137.922  17.382  0.00  0.00     0.163 HD
ATOM     27  O37 L3T d   1      11.736-135.224  18.129  0.00  0.00    -0.271 OA
BRANCH  25  28
ATOM     28  C26 L3T d   1      11.692-137.098  16.010  0.00  0.00     0.093 C 
ATOM     29  H   L3T d   1      12.424-136.290  16.019  0.00  0.00     0.088 H 
BRANCH  28  30
ATOM     30  C25 L3T d   1      10.680-136.910  14.889  0.00  0.00     0.241 C 
ATOM     31  N15 L3T d   1      11.001-135.974  14.017  0.00  0.00    -0.355 N 
ATOM     32  H   L3T d   1      11.876-135.461  14.126  0.00  0.00     0.162 HD
ATOM     33  O27 L3T d   1       9.633-137.555  14.861  0.00  0.00    -0.271 OA
BRANCH  31  34
ATOM     34  C16 L3T d   1      10.123-135.667  12.905  0.00  0.00     0.019 C 
ATOM     35  H   L3T d   1       9.347-136.429  12.832  0.00  0.00     0.071 H 
ATOM     36  H   L3T d   1      10.699-135.649  11.980  0.00  0.00     0.071 H 
BRANCH  34  37
ATOM     37  C17 L3T d   1       9.481-134.308  13.130  0.00  0.00    -0.035 A 
ATOM     38  C18 L3T d   1      10.144-133.079  13.012  0.00  0.00    -0.054 A 
ATOM     39  C19 L3T d   1       9.444-131.885  13.232  0.00  0.00    -0.077 A 
ATOM     40  C20 L3T d   1       8.095-131.910  13.573  0.00  0.00    -0.082 A 
ATOM     41  H   L3T d   1       9.960-130.930  13.135  0.00  0.00     0.084 H 
ATOM     42  C21 L3T d   1       7.449-133.131  13.704  0.00  0.00    -0.082 A 
ATOM     43  H   L3T d   1       7.551-130.980  13.736  0.00  0.00     0.083 H 
ATOM     44  C22 L3T d   1       8.138-134.319  13.482  0.00  0.00    -0.075 A 
ATOM     45  H   L3T d   1       6.396-133.160  13.982  0.00  0.00     0.083 H 
ATOM     46  H   L3T d   1       7.617-135.271  13.586  0.00  0.00     0.084 H 
BRANCH  38  47
ATOM     47  CL2 L3T d   1      11.841-133.000  12.614  0.00  0.00    -0.051 C 
ATOM     48  H   L3T d   1      12.417-133.524  13.377  0.00  0.00     0.033 H 
ATOM     49  H   L3T d   1      12.008-133.470  11.645  0.00  0.00     0.033 H 
ATOM     50  H   L3T d   1      12.155-131.957  12.572  0.00  0.00     0.033 H 
ENDBRANCH  38  47
ENDBRANCH  34  37
ENDBRANCH  31  34
ENDBRANCH  28  30
BRANCH  28  51
ATOM     51  C28 L3T d   1      12.480-138.382  15.834  0.00  0.00    -0.014 C 
ATOM     52  H   L3T d   1      12.799-138.493  14.797  0.00  0.00     0.043 H 
ATOM     53  H   L3T d   1      11.862-139.244  16.084  0.00  0.00     0.043 H 
BRANCH  51  54
ATOM     54  C30 L3T d   1      13.682-138.312  16.750  0.00  0.00    -0.053 A 
ATOM     55  C31 L3T d   1      13.646-138.939  17.997  0.00  0.00    -0.060 A 
ATOM     56  C32 L3T d   1      14.768-138.845  18.816  0.00  0.00     0.002 A 
ATOM     57  H   L3T d   1      12.762-139.488  18.321  0.00  0.00     0.086 H 
ATOM     58  N14 L3T d   1      15.842-138.175  18.400  0.00  0.00    -0.273 NA
ATOM     59  H   L3T d   1      14.768-139.319  19.797  0.00  0.00     0.114 H 
ATOM     60  C33 L3T d   1      15.910-137.563  17.218  0.00  0.00     0.002 A 
ATOM     61  C34 L3T d   1      14.819-137.612  16.347  0.00  0.00    -0.060 A 
ATOM     62  H   L3T d   1      16.814-137.026  16.932  0.00  0.00     0.114 H 
ATOM     63  H   L3T d   1      14.855-137.116  15.377  0.00  0.00     0.086 H 
ENDBRANCH  51  54
ENDBRANCH  28  51
ENDBRANCH  25  28
ENDBRANCH   1  24
BRANCH   1  64
ATOM     64  C38 L3T d   1       8.735-135.634  18.829  0.00  0.00     0.036 C 
ATOM     65  H   L3T d   1       8.525-135.944  17.805  0.00  0.00     0.051 H 
ATOM     66  H   L3T d   1       8.980-134.584  18.990  0.00  0.00     0.051 H 
BRANCH  64  67
ATOM     67  C39 L3T d   1       7.440-135.887  19.617  0.00  0.00     0.220 C 
ATOM     68  N40 L3T d   1       6.580-134.869  19.561  0.00  0.00    -0.360 N 
ATOM     69  H   L3T d   1       6.841-134.038  19.031  0.00  0.00     0.162 HD
ATOM     70  O41 L3T d   1       7.222-136.946  20.210  0.00  0.00    -0.274 OA
BRANCH  68  71
ATOM     71  C42 L3T d   1       5.267-134.894  20.233  0.00  0.00     0.001 C 
ATOM     72  H   L3T d   1       5.289-134.184  21.060  0.00  0.00     0.065 H 
ATOM     73  H   L3T d   1       5.078-135.909  20.583  0.00  0.00     0.065 H 
BRANCH  71  74
ATOM     74  C43 L3T d   1       4.131-134.489  19.270  0.00  0.00    -0.035 C 
BRANCH  74  75
ATOM     75  C44 L3T d   1       4.109-135.406  18.050  0.00  0.00    -0.068 C 
ATOM     76  H   L3T d   1       5.061-135.333  17.525  0.00  0.00     0.028 H 
ATOM     77  H   L3T d   1       3.949-136.435  18.373  0.00  0.00     0.028 H 
ATOM     78  H   L3T d   1       3.301-135.103  17.384  0.00  0.00     0.028 H 
ENDBRANCH  74  75
BRANCH  74  79
ATOM     79  C45 L3T d   1       2.791-134.626  19.983  0.00  0.00    -0.068 C 
ATOM     80  H   L3T d   1       2.652-135.661  20.297  0.00  0.00     0.028 H 
ATOM     81  H   L3T d   1       2.778-133.975  20.857  0.00  0.00     0.028 H 
ATOM     82  H   L3T d   1       1.988-134.340  19.303  0.00  0.00     0.028 H 
ENDBRANCH  74  79
BRANCH  74  83
ATOM     83  C46 L3T d   1       4.301-133.053  18.782  0.00  0.00    -0.068 C 
ATOM     84  H   L3T d   1       4.289-132.376  19.637  0.00  0.00     0.028 H 
ATOM     85  H   L3T d   1       5.251-132.959  18.256  0.00  0.00     0.028 H 
ATOM     86  H   L3T d   1       3.484-132.801  18.106  0.00  0.00     0.028 H 
ENDBRANCH  74  83
ENDBRANCH  71  74
ENDBRANCH  68  71
ENDBRANCH  64  67
ENDBRANCH   1  64
TORSDOF 18
