REMARK  7 active torsions:
REMARK  status: ('A' for Active; 'I' for Inactive)
REMARK    1  A    between atoms: C16_16  and  N2_2 
REMARK    2  A    between atoms: C3_3  and  N8_8 
REMARK    3  A    between atoms: N8_8  and  C7_7 
REMARK    4  A    between atoms: C12_12  and  C32_32 
REMARK    5  A    between atoms: C20_20  and  N13_13 
REMARK    6  A    between atoms: N14_14  and  C29_29 
REMARK    7  A    between atoms: C19_19  and  C20_20 
ROOT
ATOM      1  N1  614 d   1      15.346   5.907  -2.965  0.00  0.00    -0.150 NA
ATOM      2  N2  614 d   1      16.657   6.347  -2.756  0.00  0.00    -0.227 N 
ATOM      3  C3  614 d   1      14.352   6.705  -3.234  0.00  0.00     0.161 A 
ATOM      4  C4  614 d   1      16.976   7.663  -2.811  0.00  0.00     0.275 A 
ATOM      5  C5  614 d   1      15.919   8.641  -3.126  0.00  0.00     0.048 A 
ATOM      6  C6  614 d   1      14.601   8.154  -3.345  0.00  0.00     0.027 A 
ATOM      7  C15 614 d   1      13.579   9.053  -3.664  0.00  0.00    -0.068 A 
ATOM      8  C17 614 d   1      16.176  10.018  -3.238  0.00  0.00    -0.059 A 
ATOM      9  O18 614 d   1      18.127   8.031  -2.626  0.00  0.00    -0.266 OA
ATOM     10  C19 614 d   1      15.143  10.884  -3.547  0.00  0.00    -0.029 A 
ATOM     11  C26 614 d   1      13.857  10.400  -3.757  0.00  0.00    -0.074 A 
ATOM     12  H   614 d   1      12.566   8.690  -3.838  0.00  0.00     0.085 H 
ATOM     13  H   614 d   1      17.184  10.402  -3.082  0.00  0.00     0.086 H 
ATOM     14  H   614 d   1      13.055  11.097  -3.999  0.00  0.00     0.084 H 
ENDROOT
BRANCH  10  15
ATOM     15  C20 614 d   1      15.386  12.372  -3.670  0.00  0.00     0.137 C 
ATOM     16  H   614 d   1      16.142  12.532  -4.439  0.00  0.00     0.087 H 
ATOM     17  H   614 d   1      14.440  12.852  -3.921  0.00  0.00     0.087 H 
BRANCH  15  18
ATOM     18  N13 614 d   1      15.880  12.957  -2.409  0.00  0.00     0.096 N 
ATOM     19  C22 614 d   1      14.878  12.995  -1.321  0.00  0.00     0.138 C 
ATOM     20  C25 614 d   1      14.012  14.264  -1.354  0.00  0.00     0.138 C 
ATOM     21  H   614 d   1      15.414  12.981  -0.372  0.00  0.00     0.082 H 
ATOM     22  H   614 d   1      14.218  12.137  -1.445  0.00  0.00     0.082 H 
ATOM     23  N14 614 d   1      14.869  15.461  -1.421  0.00  0.00     0.087 N 
ATOM     24  H   614 d   1      13.369  14.235  -2.233  0.00  0.00     0.082 H 
ATOM     25  H   614 d   1      13.407  14.308  -0.448  0.00  0.00     0.082 H 
ATOM     26  C24 614 d   1      15.716  15.443  -2.624  0.00  0.00     0.138 C 
ATOM     27  C23 614 d   1      16.639  14.214  -2.600  0.00  0.00     0.138 C 
ATOM     28  H   614 d   1      16.324  16.347  -2.648  0.00  0.00     0.082 H 
ATOM     29  H   614 d   1      15.081  15.397  -3.509  0.00  0.00     0.082 H 
ATOM     30  H   614 d   1      17.158  14.158  -3.557  0.00  0.00     0.082 H 
ATOM     31  H   614 d   1      17.333  14.324  -1.767  0.00  0.00     0.082 H 
BRANCH  23  32
ATOM     32  C29 614 d   1      14.038  16.675  -1.392  0.00  0.00     0.095 C 
ATOM     33  H   614 d   1      14.682  17.554  -1.385  0.00  0.00     0.071 H 
ATOM     34  H   614 d   1      13.399  16.698  -2.275  0.00  0.00     0.071 H 
ATOM     35  H   614 d   1      13.419  16.669  -0.495  0.00  0.00     0.071 H 
ENDBRANCH  23  32
ENDBRANCH  15  18
ENDBRANCH  10  15
BRANCH   2  36
ATOM     36  C16 614 d   1      17.707   5.359  -2.465  0.00  0.00     0.042 C 
ATOM     37  C27 614 d   1      17.159   4.163  -1.666  0.00  0.00    -0.024 C 
ATOM     38  C30 614 d   1      18.250   3.092  -1.507  0.00  0.00     0.021 C 
ATOM     39  H   614 d   1      16.311   3.734  -2.200  0.00  0.00     0.039 H 
ATOM     40  H   614 d   1      16.846   4.505  -0.679  0.00  0.00     0.039 H 
ATOM     41  O21 614 d   1      18.781   2.728  -2.789  0.00  0.00    -0.391 OA
ATOM     42  H   614 d   1      19.054   3.492  -0.889  0.00  0.00     0.074 H 
ATOM     43  H   614 d   1      17.816   2.209  -1.038  0.00  0.00     0.074 H 
ATOM     44  C31 614 d   1      19.368   3.803  -3.534  0.00  0.00     0.021 C 
ATOM     45  C28 614 d   1      18.307   4.878  -3.801  0.00  0.00    -0.024 C 
ATOM     46  H   614 d   1      19.748   3.423  -4.483  0.00  0.00     0.074 H 
ATOM     47  H   614 d   1      20.189   4.236  -2.962  0.00  0.00     0.074 H 
ATOM     48  H   614 d   1      18.769   5.722  -4.314  0.00  0.00     0.039 H 
ATOM     49  H   614 d   1      17.516   4.458  -4.422  0.00  0.00     0.039 H 
ATOM     50  H   614 d   1      18.474   5.829  -1.850  0.00  0.00     0.076 H 
ENDBRANCH   2  36
BRANCH   3  51
ATOM     51  N8  614 d   1      13.059   6.211  -3.428  0.00  0.00    -0.322 N 
ATOM     52  H   614 d   1      12.324   6.890  -3.625  0.00  0.00     0.169 HD
BRANCH  51  53
ATOM     53  C7  614 d   1      12.687   4.857  -3.374  0.00  0.00     0.151 A 
ATOM     54  N9  614 d   1      11.446   4.450  -3.360  0.00  0.00    -0.157 NA
ATOM     55  N11 614 d   1      11.429   3.057  -3.302  0.00  0.00    -0.281 N 
ATOM     56  C12 614 d   1      12.704   2.625  -3.285  0.00  0.00     0.027 A 
ATOM     57  H   614 d   1      10.596   2.468  -3.277  0.00  0.00     0.189 HD
ATOM     58  C10 614 d   1      13.508   3.715  -3.329  0.00  0.00    -0.014 A 
ATOM     59  H   614 d   1      14.598   3.708  -3.329  0.00  0.00     0.092 H 
BRANCH  56  60
ATOM     60  C32 614 d   1      13.125   1.178  -3.226  0.00  0.00    -0.036 C 
ATOM     61  H   614 d   1      13.720   0.938  -4.107  0.00  0.00     0.035 H 
ATOM     62  H   614 d   1      13.719   1.010  -2.328  0.00  0.00     0.035 H 
ATOM     63  H   614 d   1      12.239   0.544  -3.201  0.00  0.00     0.035 H 
ENDBRANCH  56  60
ENDBRANCH  51  53
ENDBRANCH   3  51
TORSDOF 7
