REMARK  17 active torsions:
REMARK  status: ('A' for Active; 'I' for Inactive)
REMARK    1  A    between atoms: C1_1  and  O7_7 
REMARK    2  A    between atoms: C2_2  and  C9_9 
REMARK    3  A    between atoms: C4_4  and  S20_20 
REMARK    4  A    between atoms: C5_5  and  C42_42 
REMARK    5  A    between atoms: O7_7  and  C8_8 
REMARK       I    between atoms: C9_9  and  N10_10 
REMARK       I    between atoms: N14_14  and  C17_17 
REMARK    6  A    between atoms: C17_17  and  C18_18 
REMARK    7  A    between atoms: S20_20  and  C22_22 
REMARK    8  A    between atoms: C24_24  and  N26_26 
REMARK       I    between atoms: N26_26  and  C27_27 
REMARK    9  A    between atoms: C27_27  and  C28_28 
REMARK   10  A    between atoms: C31_31  and  C35_35 
REMARK   11  A    between atoms: C35_35  and  N36_36 
REMARK   12  A    between atoms: N36_36  and  C37_37 
REMARK   13  A    between atoms: C37_37  and  C38_38 
REMARK   14  A    between atoms: C37_37  and  C43_43 
REMARK   15  A    between atoms: C38_38  and  C39_39 
REMARK   16  A    between atoms: C38_38  and  C40_40 
REMARK   17  A    between atoms: C38_38  and  C41_41 
ROOT
ATOM      1  C21 MJG d   1      11.823   3.654  -3.498  0.00  0.00     0.028 A 
ATOM      2  C22 MJG d   1      13.047   3.204  -3.818  0.00  0.00     0.067 A 
ATOM      3  S23 MJG d   1      14.143   4.572  -3.887  0.00  0.00    -0.043 SA
ATOM      4  C24 MJG d   1      12.825   5.649  -3.448  0.00  0.00     0.174 A 
ATOM      5  N25 MJG d   1      11.733   4.961  -3.318  0.00  0.00    -0.235 NA
ATOM      6  H17 MJG d   1      10.966   2.990  -3.394  0.00  0.00     0.117 H 
ENDROOT
BRANCH   2   7
ATOM      7  S20 MJG d   1      13.526   1.549  -4.140  0.00  0.00    -0.081 SA
BRANCH   7   8
ATOM      8  C4  MJG d   1      14.901   1.374  -3.043  0.00  0.00     0.013 A 
ATOM      9  C3  MJG d   1      16.113   1.990  -3.342  0.00  0.00    -0.048 A 
ATOM     10  C2  MJG d   1      17.208   1.867  -2.467  0.00  0.00     0.066 A 
ATOM     11  H1  MJG d   1      16.214   2.567  -4.254  0.00  0.00     0.087 H 
ATOM     12  C1  MJG d   1      17.064   1.102  -1.297  0.00  0.00     0.084 A 
ATOM     13  C6  MJG d   1      15.849   0.484  -1.016  0.00  0.00    -0.043 A 
ATOM     14  C5  MJG d   1      14.773   0.622  -1.872  0.00  0.00    -0.042 A 
ATOM     15  H2  MJG d   1      15.746  -0.112  -0.116  0.00  0.00     0.088 H 
BRANCH  10  16
ATOM     16  C9  MJG d   1      18.510   2.508  -2.777  0.00  0.00     0.256 C 
ATOM     17  N10 MJG d   1      18.765   3.814  -2.538  0.00  0.00    -0.345 N 
ATOM     18  C12 MJG d   1      20.090   4.373  -2.863  0.00  0.00     0.013 C 
ATOM     19  C16 MJG d   1      17.750   4.691  -1.926  0.00  0.00     0.013 C 
ATOM     20  C13 MJG d   1      19.907   5.619  -3.737  0.00  0.00     0.013 C 
ATOM     21  H6  MJG d   1      20.682   3.624  -3.409  0.00  0.00     0.066 H 
ATOM     22  H7  MJG d   1      20.612   4.648  -1.935  0.00  0.00     0.066 H 
ATOM     23  N14 MJG d   1      18.985   6.562  -3.072  0.00  0.00    -0.349 N 
ATOM     24  H8  MJG d   1      19.489   5.324  -4.711  0.00  0.00     0.066 H 
ATOM     25  H9  MJG d   1      20.882   6.106  -3.888  0.00  0.00     0.066 H 
ATOM     26  C15 MJG d   1      17.676   6.066  -2.594  0.00  0.00     0.013 C 
ATOM     27  C17 MJG d   1      19.304   7.877  -2.928  0.00  0.00     0.215 C 
ATOM     28  H10 MJG d   1      16.994   5.998  -3.454  0.00  0.00     0.066 H 
ATOM     29  H11 MJG d   1      17.276   6.786  -1.865  0.00  0.00     0.066 H 
ATOM     30  O19 MJG d   1      18.526   8.639  -2.389  0.00  0.00    -0.274 OA
ATOM     31  H12 MJG d   1      17.999   4.829  -0.864  0.00  0.00     0.066 H 
ATOM     32  H13 MJG d   1      16.767   4.205  -2.012  0.00  0.00     0.066 H 
ATOM     33  O11 MJG d   1      19.382   1.821  -3.274  0.00  0.00    -0.267 OA
BRANCH  27  34
ATOM     34  C18 MJG d   1      20.622   8.433  -3.416  0.00  0.00    -0.003 C 
ATOM     35  H14 MJG d   1      20.669   9.510  -3.198  0.00  0.00     0.040 H 
ATOM     36  H15 MJG d   1      20.708   8.274  -4.501  0.00  0.00     0.040 H 
ATOM     37  H16 MJG d   1      21.449   7.919  -2.904  0.00  0.00     0.040 H 
ENDBRANCH  27  34
ENDBRANCH  10  16
BRANCH  12  38
ATOM     38  O7  MJG d   1      18.113   0.962  -0.440  0.00  0.00    -0.355 OA
BRANCH  38  39
ATOM     39  C8  MJG d   1      17.827   0.943   0.961  0.00  0.00     0.010 C 
ATOM     40  H3  MJG d   1      18.764   0.825   1.525  0.00  0.00     0.066 H 
ATOM     41  H4  MJG d   1      17.155   0.102   1.187  0.00  0.00     0.066 H 
ATOM     42  H5  MJG d   1      17.342   1.887   1.249  0.00  0.00     0.066 H 
ENDBRANCH  38  39
ENDBRANCH  12  38
BRANCH  14  43
ATOM     43  C42 MJG d   1      13.478  -0.062  -1.528  0.00  0.00    -0.050 C 
ATOM     44  H37 MJG d   1      12.733   0.150  -2.309  0.00  0.00     0.033 H 
ATOM     45  H38 MJG d   1      13.112   0.312  -0.560  0.00  0.00     0.033 H 
ATOM     46  H39 MJG d   1      13.643  -1.148  -1.463  0.00  0.00     0.033 H 
ENDBRANCH  14  43
ENDBRANCH   7   8
ENDBRANCH   2   7
BRANCH   4  47
ATOM     47  N26 MJG d   1      12.928   7.028  -3.338  0.00  0.00    -0.301 N 
ATOM     48  C27 MJG d   1      14.104   7.686  -3.479  0.00  0.00     0.257 C 
ATOM     49  O34 MJG d   1      15.140   7.077  -3.693  0.00  0.00    -0.267 OA
ATOM     50  H18 MJG d   1      12.101   7.558  -3.147  0.00  0.00     0.171 HD
BRANCH  48  51
ATOM     51  C28 MJG d   1      14.137   9.165  -3.422  0.00  0.00     0.032 A 
ATOM     52  C29 MJG d   1      15.356   9.850  -3.323  0.00  0.00    -0.067 A 
ATOM     53  C30 MJG d   1      15.372  11.233  -3.299  0.00  0.00    -0.074 A 
ATOM     54  H19 MJG d   1      16.286   9.296  -3.265  0.00  0.00     0.085 H 
ATOM     55  C31 MJG d   1      14.185  11.946  -3.392  0.00  0.00    -0.033 A 
ATOM     56  H20 MJG d   1      16.314  11.761  -3.207  0.00  0.00     0.084 H 
ATOM     57  C32 MJG d   1      12.975  11.276  -3.506  0.00  0.00    -0.074 A 
ATOM     58  C33 MJG d   1      12.948   9.893  -3.531  0.00  0.00    -0.067 A 
ATOM     59  H21 MJG d   1      12.050  11.837  -3.575  0.00  0.00     0.084 H 
ATOM     60  H22 MJG d   1      12.003   9.372  -3.635  0.00  0.00     0.085 H 
BRANCH  55  61
ATOM     61  C35 MJG d   1      14.197  13.456  -3.378  0.00  0.00     0.106 C 
ATOM     62  H23 MJG d   1      14.881  13.793  -2.586  0.00  0.00     0.083 H 
ATOM     63  H24 MJG d   1      13.179  13.812  -3.160  0.00  0.00     0.083 H 
BRANCH  61  64
ATOM     64  N36 MJG d   1      14.639  14.046  -4.667  0.00  0.00    -0.067 N 
ATOM     65  H25 MJG d   1      15.646  14.005  -4.696  0.00  0.00     0.278 HD
ATOM     66  H26 MJG d   1      14.342  15.009  -4.684  0.00  0.00     0.278 HD
BRANCH  64  67
ATOM     67  C37 MJG d   1      14.122  13.390  -5.893  0.00  0.00     0.105 C 
ATOM     68  H27 MJG d   1      13.903  12.345  -5.628  0.00  0.00     0.084 H 
BRANCH  67  69
ATOM     69  C38 MJG d   1      15.179  13.341  -7.027  0.00  0.00    -0.023 C 
BRANCH  69  70
ATOM     70  C39 MJG d   1      16.290  12.370  -6.624  0.00  0.00    -0.068 C 
ATOM     71  H28 MJG d   1      17.046  12.327  -7.421  0.00  0.00     0.028 H 
ATOM     72  H29 MJG d   1      15.863  11.368  -6.469  0.00  0.00     0.028 H 
ATOM     73  H30 MJG d   1      16.760  12.717  -5.692  0.00  0.00     0.028 H 
ENDBRANCH  69  70
BRANCH  69  74
ATOM     74  C40 MJG d   1      14.553  12.836  -8.332  0.00  0.00    -0.068 C 
ATOM     75  H31 MJG d   1      13.749  13.520  -8.642  0.00  0.00     0.028 H 
ATOM     76  H32 MJG d   1      14.137  11.830  -8.174  0.00  0.00     0.028 H 
ATOM     77  H33 MJG d   1      15.323  12.796  -9.117  0.00  0.00     0.028 H 
ENDBRANCH  69  74
BRANCH  69  78
ATOM     78  C41 MJG d   1      15.839  14.695  -7.309  0.00  0.00    -0.068 C 
ATOM     79  H34 MJG d   1      16.297  15.079  -6.386  0.00  0.00     0.028 H 
ATOM     80  H35 MJG d   1      15.079  15.406  -7.665  0.00  0.00     0.028 H 
ATOM     81  H36 MJG d   1      16.615  14.572  -8.079  0.00  0.00     0.028 H 
ENDBRANCH  69  78
ENDBRANCH  67  69
BRANCH  67  82
ATOM     82  C43 MJG d   1      12.788  14.025  -6.327  0.00  0.00    -0.049 C 
ATOM     83  H40 MJG d   1      12.423  13.525  -7.236  0.00  0.00     0.030 H 
ATOM     84  H41 MJG d   1      12.941  15.095  -6.533  0.00  0.00     0.030 H 
ATOM     85  H42 MJG d   1      12.047  13.909  -5.522  0.00  0.00     0.030 H 
ENDBRANCH  67  82
ENDBRANCH  64  67
ENDBRANCH  61  64
ENDBRANCH  55  61
ENDBRANCH  48  51
ENDBRANCH   4  47
TORSDOF 17
