REMARK  6 active torsions:
REMARK  status: ('A' for Active; 'I' for Inactive)
REMARK    1  A    between atoms: C1_1  and  C2_2 
REMARK    2  A    between atoms: C1_1  and  C3_3 
REMARK    3  A    between atoms: C1_1  and  N4_4 
REMARK    4  A    between atoms: C7_7  and  C10_10 
REMARK       I    between atoms: C10_10  and  N12_12 
REMARK    5  A    between atoms: N12_12  and  C13_13 
REMARK    6  A    between atoms: C13_13  and  C14_14 
ROOT
ATOM      1  N4  GRM d   1     -17.103  46.651 -38.793  0.00  0.00    -0.405 N 
ATOM      2  C5  GRM d   1     -16.020  45.738 -39.345  0.00  0.00    -0.008 C 
ATOM      3  C6  GRM d   1     -14.537  46.046 -38.909  0.00  0.00    -0.039 C 
ATOM      4  C7  GRM d   1     -14.363  47.527 -38.519  0.00  0.00     0.026 C 
ATOM      5  C8  GRM d   1     -15.361  47.926 -37.388  0.00  0.00    -0.039 C 
ATOM      6  C9  GRM d   1     -16.708  47.122 -37.397  0.00  0.00    -0.008 C 
ATOM      7  H   GRM d   1     -16.045  45.865 -40.427  0.00  0.00     0.063 H 
ATOM      8  H   GRM d   1     -16.244  44.743 -38.960  0.00  0.00     0.063 H 
ATOM      9  H   GRM d   1     -13.877  45.829 -39.748  0.00  0.00     0.036 H 
ATOM     10  H   GRM d   1     -14.295  45.429 -38.044  0.00  0.00     0.036 H 
ATOM     11  H   GRM d   1     -14.584  48.167 -39.373  0.00  0.00     0.054 H 
ATOM     12  H   GRM d   1     -15.614  48.975 -37.541  0.00  0.00     0.036 H 
ATOM     13  H   GRM d   1     -14.869  47.714 -36.439  0.00  0.00     0.036 H 
ATOM     14  H   GRM d   1     -16.575  46.239 -36.771  0.00  0.00     0.063 H 
ATOM     15  H   GRM d   1     -17.494  47.782 -37.032  0.00  0.00     0.063 H 
ENDROOT
BRANCH   1  16
ATOM     16  C1  GRM d   1     -18.621  46.244 -39.066  0.00  0.00     0.030 C 
ATOM     17  H   GRM d   1     -19.024  47.035 -39.698  0.00  0.00     0.079 H 
BRANCH  16  18
ATOM     18  C2  GRM d   1     -19.627  46.380 -37.863  0.00  0.00    -0.054 C 
ATOM     19  H   GRM d   1     -19.297  45.745 -37.041  0.00  0.00     0.030 H 
ATOM     20  H   GRM d   1     -19.657  47.418 -37.532  0.00  0.00     0.030 H 
ATOM     21  H   GRM d   1     -20.621  46.071 -38.186  0.00  0.00     0.030 H 
ENDBRANCH  16  18
BRANCH  16  22
ATOM     22  C3  GRM d   1     -18.712  44.899 -39.920  0.00  0.00    -0.025 A 
ATOM     23  C23 GRM d   1     -18.643  44.819 -41.375  0.00  0.00    -0.018 A 
ATOM     24  C24 GRM d   1     -18.737  43.507 -42.022  0.00  0.00    -0.025 A 
ATOM     25  C28 GRM d   1     -18.504  45.953 -42.237  0.00  0.00    -0.072 A 
ATOM     26  C25 GRM d   1     -18.886  42.343 -41.237  0.00  0.00    -0.072 A 
ATOM     27  C31 GRM d   1     -18.692  43.364 -43.432  0.00  0.00    -0.072 A 
ATOM     28  C26 GRM d   1     -18.939  42.416 -39.822  0.00  0.00    -0.082 A 
ATOM     29  H   GRM d   1     -18.962  41.372 -41.727  0.00  0.00     0.084 H 
ATOM     30  C27 GRM d   1     -18.860  43.662 -39.173  0.00  0.00    -0.074 A 
ATOM     31  H   GRM d   1     -19.041  41.504 -39.235  0.00  0.00     0.083 H 
ATOM     32  H   GRM d   1     -18.911  43.700 -38.085  0.00  0.00     0.084 H 
ATOM     33  C30 GRM d   1     -18.550  44.513 -44.241  0.00  0.00    -0.082 A 
ATOM     34  H   GRM d   1     -18.766  42.377 -43.887  0.00  0.00     0.084 H 
ATOM     35  C29 GRM d   1     -18.464  45.805 -43.649  0.00  0.00    -0.082 A 
ATOM     36  H   GRM d   1     -18.506  44.410 -45.325  0.00  0.00     0.083 H 
ATOM     37  H   GRM d   1     -18.367  46.686 -44.283  0.00  0.00     0.083 H 
ATOM     38  H   GRM d   1     -18.427  46.949 -41.801  0.00  0.00     0.084 H 
ENDBRANCH  16  22
ENDBRANCH   1  16
BRANCH   4  39
ATOM     39  C10 GRM d   1     -12.913  47.737 -38.083  0.00  0.00     0.222 C 
ATOM     40  O11 GRM d   1     -12.627  47.718 -36.895  0.00  0.00    -0.273 OA
ATOM     41  N12 GRM d   1     -11.962  47.931 -39.038  0.00  0.00    -0.356 N 
ATOM     42  H   GRM d   1     -12.228  47.940 -40.023  0.00  0.00     0.162 HD
BRANCH  41  43
ATOM     43  C13 GRM d   1     -10.553  48.128 -38.659  0.00  0.00     0.019 C 
ATOM     44  H   GRM d   1     -10.225  47.285 -38.051  0.00  0.00     0.071 H 
ATOM     45  H   GRM d   1     -10.460  49.055 -38.094  0.00  0.00     0.071 H 
BRANCH  43  46
ATOM     46  C14 GRM d   1      -9.679  48.214 -39.913  0.00  0.00    -0.038 A 
ATOM     47  C15 GRM d   1      -9.832  47.217 -40.931  0.00  0.00    -0.040 A 
ATOM     48  C16 GRM d   1      -9.018  47.323 -42.072  0.00  0.00     0.105 A 
ATOM     49  H   GRM d   1     -10.553  46.407 -40.824  0.00  0.00     0.088 H 
ATOM     50  C17 GRM d   1      -8.080  48.357 -42.233  0.00  0.00     0.105 A 
ATOM     51  O20 GRM d   1      -9.043  46.456 -43.130  0.00  0.00    -0.323 OA
ATOM     52  C18 GRM d   1      -7.900  49.378 -41.235  0.00  0.00    -0.047 A 
ATOM     53  O22 GRM d   1      -7.398  48.247 -43.443  0.00  0.00    -0.323 OA
ATOM     54  C19 GRM d   1      -8.728  49.283 -40.064  0.00  0.00    -0.072 A 
ATOM     55  H   GRM d   1      -7.174  50.181 -41.361  0.00  0.00     0.087 H 
ATOM     56  H   GRM d   1      -8.634  50.032 -39.278  0.00  0.00     0.084 H 
ATOM     57  C21 GRM d   1      -8.229  47.226 -44.085  0.00  0.00     0.115 C 
ATOM     58  H   GRM d   1      -8.912  47.735 -44.765  0.00  0.00     0.118 H 
ATOM     59  H   GRM d   1      -7.562  46.527 -44.590  0.00  0.00     0.118 H 
ENDBRANCH  43  46
ENDBRANCH  41  43
ENDBRANCH   4  39
TORSDOF 6
