REMARK  12 active torsions:
REMARK  status: ('A' for Active; 'I' for Inactive)
REMARK    1  A    between atoms: B_1  and  OB1_2 
REMARK    2  A    between atoms: B_1  and  OB2_3 
REMARK    3  A    between atoms: B_1  and  C7_4 
REMARK    4  A    between atoms: C7_4  and  N10_5 
REMARK       I    between atoms: N10_5  and  C11_6 
REMARK    5  A    between atoms: C11_6  and  C13_8 
REMARK    6  A    between atoms: C13_8  and  C14_12 
REMARK    7  A    between atoms: N16_9  and  O17_10 
REMARK    8  A    between atoms: O17_10  and  C18_11 
REMARK    9  A    between atoms: C18_11  and  C19_18 
REMARK   10  A    between atoms: C18_11  and  C20_19 
REMARK   11  A    between atoms: C18_11  and  C21_20 
REMARK   12  A    between atoms: C17_15  and  N18_16 
ROOT
ATOM      1  C13 CB4 d   1      32.843  64.991   1.620  0.00  0.00     0.180 C 
ATOM      2  N16 CB4 d   1      33.927  64.301   1.378  0.00  0.00    -0.125 NA
ENDROOT
BRANCH   1   3
ATOM      3  C11 CB4 d   1      32.007  64.837   2.818  0.00  0.00     0.274 C 
ATOM      4  N10 CB4 d   1      32.391  64.022   3.814  0.00  0.00    -0.359 N 
ATOM      5  H   CB4 d   1      33.261  63.497   3.727  0.00  0.00     0.161 HD
ATOM      6  O12 CB4 d   1      30.939  65.452   2.877  0.00  0.00    -0.266 OA
BRANCH   4   7
ATOM      7  C7  CB4 d   1      31.575  63.877   5.027  0.00  0.00     0.030 C 
ATOM      8  H   CB4 d   1      31.450  64.878   5.441  0.00  0.00     0.057 H 
ATOM      9  H   CB4 d   1      30.653  63.379   4.726  0.00  0.00     0.057 H 
BRANCH   7  10
ATOM     10  B   CB4 d   1      32.228  62.974   6.192  0.00  0.00     0.510 B 
BRANCH  10  11
ATOM     11  OB1 CB4 d   1      31.224  62.946   7.358  0.00  0.00    -0.436 OA
ATOM     12  H   CB4 d   1      30.379  62.617   7.043  0.00  0.00     0.184 HD
ENDBRANCH  10  11
BRANCH  10  13
ATOM     13  OB2 CB4 d   1      33.658  63.466   6.448  0.00  0.00    -0.436 OA
ATOM     14  H   CB4 d   1      33.632  64.372   6.764  0.00  0.00     0.184 HD
ENDBRANCH  10  13
ENDBRANCH   7  10
ENDBRANCH   4   7
ENDBRANCH   1   3
BRANCH   1  15
ATOM     15  C14 CB4 d   1      32.577  65.966   0.541  0.00  0.00     0.102 A 
ATOM     16  C15 CB4 d   1      31.499  66.854   0.521  0.00  0.00    -0.011 A 
ATOM     17  S16 CB4 d   1      31.535  67.823  -0.923  0.00  0.00    -0.062 SA
ATOM     18  H   CB4 d   1      30.741  66.929   1.301  0.00  0.00     0.098 H 
ATOM     19  C17 CB4 d   1      32.968  66.991  -1.391  0.00  0.00     0.164 A 
ATOM     20  N19 CB4 d   1      33.410  66.041  -0.545  0.00  0.00    -0.222 NA
BRANCH  19  21
ATOM     21  N18 CB4 d   1      33.606  67.288  -2.562  0.00  0.00    -0.378 N 
ATOM     22  H   CB4 d   1      34.452  66.782  -2.825  0.00  0.00     0.158 HD
ATOM     23  H   CB4 d   1      33.236  68.016  -3.174  0.00  0.00     0.158 HD
ENDBRANCH  19  21
ENDBRANCH   1  15
BRANCH   2  24
ATOM     24  O17 CB4 d   1      34.477  63.354   2.152  0.00  0.00    -0.234 OA
BRANCH  24  25
ATOM     25  C18 CB4 d   1      35.793  62.946   1.781  0.00  0.00     0.171 C 
BRANCH  25  26
ATOM     26  C19 CB4 d   1      35.740  62.298   0.401  0.00  0.00    -0.036 C 
ATOM     27  H   CB4 d   1      35.081  61.431   0.433  0.00  0.00     0.032 H 
ATOM     28  H   CB4 d   1      35.360  63.019  -0.323  0.00  0.00     0.032 H 
ATOM     29  H   CB4 d   1      36.742  61.983   0.110  0.00  0.00     0.032 H 
ENDBRANCH  25  26
BRANCH  25  30
ATOM     30  C20 CB4 d   1      36.817  64.093   1.790  0.00  0.00    -0.036 C 
ATOM     31  H   CB4 d   1      36.503  64.864   1.086  0.00  0.00     0.032 H 
ATOM     32  H   CB4 d   1      36.877  64.517   2.792  0.00  0.00     0.032 H 
ATOM     33  H   CB4 d   1      37.794  63.708   1.498  0.00  0.00     0.032 H 
ENDBRANCH  25  30
BRANCH  25  34
ATOM     34  C21 CB4 d   1      36.142  61.945   2.824  0.00  0.00     0.211 C 
ATOM     35  O2A CB4 d   1      37.335  61.783   3.118  0.00  0.00    -0.646 OA
ATOM     36  O2B CB4 d   1      35.187  61.358   3.359  0.00  0.00    -0.646 OA
ENDBRANCH  25  34
ENDBRANCH  24  25
ENDBRANCH   2  24
TORSDOF 12
