REMARK  3 active torsions:
REMARK  status: ('A' for Active; 'I' for Inactive)
REMARK    1  A    between atoms: C9_9  and  C24_24 
REMARK    2  A    between atoms: C10_10  and  C11_11 
REMARK    3  A    between atoms: C16_16  and  C21_21 
ROOT
ATOM      1  C1  C1C d   1     171.398  34.316 -52.178  0.00  0.00    -0.082 A 
ATOM      2  C2  C1C d   1     170.794  35.143 -53.108  0.00  0.00    -0.072 A 
ATOM      3  C3  C1C d   1     171.400  35.326 -54.350  0.00  0.00    -0.025 A 
ATOM      4  C4  C1C d   1     172.620  34.645 -54.667  0.00  0.00    -0.014 A 
ATOM      5  C5  C1C d   1     173.205  33.799 -53.711  0.00  0.00    -0.071 A 
ATOM      6  C6  C1C d   1     172.598  33.651 -52.474  0.00  0.00    -0.082 A 
ATOM      7  C7  C1C d   1     170.770  36.164 -55.278  0.00  0.00    -0.071 A 
ATOM      8  C8  C1C d   1     171.389  36.312 -56.524  0.00  0.00    -0.065 A 
ATOM      9  C9  C1C d   1     172.593  35.646 -56.829  0.00  0.00     0.052 A 
ATOM     10  C10 C1C d   1     173.227  34.788 -55.925  0.00  0.00     0.004 A 
ATOM     11  H   C1C d   1     170.935  34.179 -51.201  0.00  0.00     0.083 H 
ATOM     12  H   C1C d   1     169.856  35.645 -52.873  0.00  0.00     0.084 H 
ATOM     13  H   C1C d   1     174.127  33.264 -53.940  0.00  0.00     0.084 H 
ATOM     14  H   C1C d   1     173.058  33.010 -51.722  0.00  0.00     0.083 H 
ATOM     15  H   C1C d   1     169.839  36.678 -55.040  0.00  0.00     0.084 H 
ATOM     16  H   C1C d   1     170.930  36.956 -57.275  0.00  0.00     0.085 H 
ENDROOT
BRANCH  10  17
ATOM     17  C11 C1C d   1     174.430  34.099 -56.169  0.00  0.00     0.004 A 
ATOM     18  C12 C1C d   1     175.658  34.770 -56.051  0.00  0.00    -0.014 A 
ATOM     19  C13 C1C d   1     176.853  34.101 -56.226  0.00  0.00    -0.025 A 
ATOM     20  C17 C1C d   1     175.702  36.129 -55.735  0.00  0.00    -0.071 A 
ATOM     21  C14 C1C d   1     176.865  32.747 -56.515  0.00  0.00    -0.071 A 
ATOM     22  C20 C1C d   1     178.072  34.769 -56.114  0.00  0.00    -0.072 A 
ATOM     23  C15 C1C d   1     175.667  32.056 -56.630  0.00  0.00    -0.065 A 
ATOM     24  H   C1C d   1     177.812  32.225 -56.652  0.00  0.00     0.084 H 
ATOM     25  C16 C1C d   1     174.465  32.726 -56.459  0.00  0.00     0.052 A 
ATOM     26  H   C1C d   1     175.671  30.989 -56.854  0.00  0.00     0.085 H 
ATOM     27  C19 C1C d   1     178.120  36.122 -55.833  0.00  0.00    -0.082 A 
ATOM     28  H   C1C d   1     179.001  34.216 -56.250  0.00  0.00     0.084 H 
ATOM     29  C18 C1C d   1     176.908  36.801 -55.636  0.00  0.00    -0.082 A 
ATOM     30  H   C1C d   1     179.073  36.647 -55.766  0.00  0.00     0.083 H 
ATOM     31  H   C1C d   1     176.916  37.866 -55.403  0.00  0.00     0.083 H 
ATOM     32  H   C1C d   1     174.771  36.670 -55.563  0.00  0.00     0.084 H 
BRANCH  25  33
ATOM     33  C21 C1C d   1     173.231  31.871 -56.578  0.00  0.00     0.210 C 
ATOM     34  O22 C1C d   1     173.251  30.774 -55.917  0.00  0.00    -0.644 OA
ATOM     35  O23 C1C d   1     172.277  32.333 -57.252  0.00  0.00    -0.644 OA
ENDBRANCH  25  33
ENDBRANCH  10  17
BRANCH   9  36
ATOM     36  C24 C1C d   1     173.169  35.864 -58.193  0.00  0.00     0.210 C 
ATOM     37  O25 C1C d   1     173.306  34.850 -58.883  0.00  0.00    -0.644 OA
ATOM     38  O26 C1C d   1     173.425  37.007 -58.559  0.00  0.00    -0.644 OA
ENDBRANCH   9  36
TORSDOF 3
