REMARK WARNING: 32 MAX_TORS EXCEEDED!!!
REMARK  37 active torsions:
REMARK  status: ('A' for Active; 'I' for Inactive)
REMARK    1  A    between atoms: N_1  and  CA_2 
REMARK    2  A    between atoms: CA_2  and  C_3 
REMARK    3  A    between atoms: CA_2  and  CB_5 
REMARK       I    between atoms: C_3  and  N_9 
REMARK    4  A    between atoms: CB_5  and  CG_6 
REMARK    5  A    between atoms: CG_6  and  CD1_7 
REMARK    6  A    between atoms: CG_6  and  CD2_8 
REMARK    7  A    between atoms: N_9  and  CA_10 
REMARK    8  A    between atoms: CA_10  and  C_11 
REMARK    9  A    between atoms: CA_10  and  CB_13 
REMARK       I    between atoms: C_11  and  N_19 
REMARK   10  A    between atoms: CB_13  and  CG_14 
REMARK   11  A    between atoms: CA_20  and  C_21 
REMARK       I    between atoms: C_21  and  N_26 
REMARK   12  A    between atoms: N_26  and  CA_27 
REMARK   13  A    between atoms: CA_27  and  C_28 
REMARK   14  A    between atoms: CA_27  and  CB_30 
REMARK       I    between atoms: C_28  and  N_34 
REMARK   15  A    between atoms: CB_30  and  CG_31 
REMARK       I    between atoms: CG_31  and  ND2_33 
REMARK   16  A    between atoms: CA_35  and  C_36 
REMARK       I    between atoms: C_36  and  N_41 
REMARK   17  A    between atoms: N_41  and  CA_42 
REMARK   18  A    between atoms: CA_42  and  C_43 
REMARK   19  A    between atoms: CA_42  and  CB_45 
REMARK       I    between atoms: C_43  and  N_49 
REMARK   20  A    between atoms: CB_45  and  CG_46 
REMARK   21  A    between atoms: CG_46  and  SD_47 
REMARK   22  A    between atoms: SD_47  and  CE_48 
REMARK   23  A    between atoms: N_49  and  CA_50 
REMARK   24  A    between atoms: CA_50  and  C_51 
REMARK   25  A    between atoms: CA_50  and  CB_53 
REMARK       I    between atoms: C_51  and  N_65 
REMARK   26  A    between atoms: CB_53  and  CG_54 
REMARK   27  A    between atoms: CZ_59  and  OH_60 
REMARK   28  A    between atoms: OH_60  and  P_61 
REMARK   29  A    between atoms: N_65  and  CA_66 
REMARK   30  A    between atoms: CA_66  and  C_67 
REMARK   31  A    between atoms: CA_66  and  CB_69 
REMARK       I    between atoms: C_67  and  N_70 
REMARK   32  A    between atoms: N_70  and  CA_71 
REMARK   33  A    between atoms: CA_71  and  C_72 
REMARK   34  A    between atoms: CA_71  and  CB_74 
REMARK   35  A    between atoms: CB_74  and  CG_75 
REMARK   36  A    between atoms: CG_75  and  CD_76 
REMARK   37  A    between atoms: CD_76  and  NE_77 
REMARK       I    between atoms: NE_77  and  CZ_78 
REMARK       I    between atoms: CZ_78  and  NH1_79 
ROOT
ATOM      1  N   PRO d   1     -85.378 -11.324 -25.842  0.00  0.00    -0.337 N 
ATOM      2  CA  PRO d   1     -85.896  -9.964 -26.048  0.00  0.00     0.091 C 
ATOM      3  CB  PRO d   1     -85.900  -9.368 -24.635  0.00  0.00    -0.036 C 
ATOM      4  CG  PRO d   1     -85.873 -10.556 -23.715  0.00  0.00    -0.048 C 
ATOM      5  CD  PRO d   1     -85.037 -11.565 -24.429  0.00  0.00    -0.001 C 
ATOM      6  H   PRO d   1     -86.874  -9.983 -26.529  0.00  0.00     0.087 H 
ATOM      7  H   PRO d   1     -86.775  -8.742 -24.462  0.00  0.00     0.036 H 
ATOM      8  H   PRO d   1     -85.047  -8.709 -24.471  0.00  0.00     0.036 H 
ATOM      9  H   PRO d   1     -86.874 -10.932 -23.504  0.00  0.00     0.035 H 
ATOM     10  H   PRO d   1     -85.463 -10.305 -22.737  0.00  0.00     0.035 H 
ATOM     11  H   PRO d   1     -83.972 -11.458 -24.224  0.00  0.00     0.064 H 
ATOM     12  H   PRO d   1     -85.239 -12.588 -24.111  0.00  0.00     0.064 H 
ATOM     13  C   ASN d   1     -85.281 -12.215 -26.846  0.00  0.00     0.243 C 
ATOM     14  O   ASN d   1     -85.700 -11.990 -27.982  0.00  0.00    -0.271 OA
ENDROOT
BRANCH   2  15
ATOM     15  C   PRO d   1     -85.033  -9.114 -26.988  0.00  0.00     0.241 C 
ATOM     16  O   PRO d   1     -85.558  -8.220 -27.657  0.00  0.00    -0.271 OA
ATOM     17  N   MET d   1     -83.729  -9.396 -27.037  0.00  0.00    -0.346 N 
ATOM     18  H   MET d   1     -83.360 -10.131 -26.434  0.00  0.00     0.163 HD
BRANCH  17  19
ATOM     19  CA  MET d   1     -82.810  -8.682 -27.930  0.00  0.00     0.090 C 
ATOM     20  H   MET d   1     -83.048  -7.626 -27.803  0.00  0.00     0.087 H 
BRANCH  19  21
ATOM     21  C   MET d   1     -83.009  -9.014 -29.411  0.00  0.00     0.241 C 
ATOM     22  O   MET d   1     -82.617  -8.229 -30.281  0.00  0.00    -0.271 OA
ATOM     23  N   PTR d   1     -83.625 -10.167 -29.686  0.00  0.00    -0.346 N 
ATOM     24  H   PTR d   1     -84.053 -10.688 -28.921  0.00  0.00     0.163 HD
BRANCH  23  25
ATOM     25  CA  PTR d   1     -83.710 -10.713 -31.045  0.00  0.00     0.093 C 
ATOM     26  H   PTR d   1     -82.672 -10.777 -31.372  0.00  0.00     0.088 H 
BRANCH  25  27
ATOM     27  C   PTR d   1     -84.411  -9.807 -32.060  0.00  0.00     0.241 C 
ATOM     28  O   PTR d   1     -83.813  -9.433 -33.067  0.00  0.00    -0.271 OA
ATOM     29  N   GLN d   1     -85.667  -9.456 -31.792  0.00  0.00    -0.346 N 
ATOM     30  H   GLN d   1     -86.093  -9.766 -30.919  0.00  0.00     0.163 HD
BRANCH  29  31
ATOM     31  CA  GLN d   1     -86.458  -8.632 -32.722  0.00  0.00     0.086 C 
ATOM     32  H   GLN d   1     -86.291  -9.066 -33.708  0.00  0.00     0.086 H 
BRANCH  31  33
ATOM     33  C   GLN d   1     -85.992  -7.166 -32.838  0.00  0.00     0.240 C 
ATOM     34  O   GLN d   1     -86.644  -6.355 -33.493  0.00  0.00    -0.271 OA
ATOM     35  N   ARG d   1     -84.863  -6.839 -32.215  0.00  0.00    -0.345 N 
ATOM     36  H   ARG d   1     -84.389  -7.542 -31.648  0.00  0.00     0.163 HD
BRANCH  35  37
ATOM     37  CA  ARG d   1     -84.280  -5.500 -32.319  0.00  0.00     0.096 C 
ATOM     38  H   ARG d   1     -85.038  -4.840 -32.739  0.00  0.00     0.089 H 
BRANCH  37  39
ATOM     39  C   ARG d   1     -83.072  -5.493 -33.259  0.00  0.00     0.196 C 
ATOM     40  O   ARG d   1     -82.996  -6.302 -34.222  0.00  0.00    -0.646 OA
ATOM     41  O   ARG d   1     -82.141  -4.666 -33.067  0.00  0.00    -0.646 OA
ENDBRANCH  37  39
BRANCH  37  42
ATOM     42  CB  ARG d   1     -83.886  -4.970 -30.936  0.00  0.00    -0.035 C 
ATOM     43  H   ARG d   1     -83.349  -4.034 -31.090  0.00  0.00     0.036 H 
ATOM     44  H   ARG d   1     -83.296  -5.746 -30.449  0.00  0.00     0.036 H 
BRANCH  42  45
ATOM     45  CG  ARG d   1     -85.069  -4.667 -30.027  0.00  0.00    -0.047 C 
ATOM     46  H   ARG d   1     -85.807  -5.460 -30.145  0.00  0.00     0.035 H 
ATOM     47  H   ARG d   1     -85.479  -3.696 -30.305  0.00  0.00     0.035 H 
BRANCH  45  48
ATOM     48  CD  ARG d   1     -84.649  -4.612 -28.565  0.00  0.00     0.009 C 
ATOM     49  H   ARG d   1     -84.199  -3.638 -28.376  0.00  0.00     0.064 H 
ATOM     50  H   ARG d   1     -83.949  -5.427 -28.380  0.00  0.00     0.064 H 
BRANCH  48  51
ATOM     51  NE  ARG d   1     -85.789  -4.773 -27.662  0.00  0.00    -0.227 N 
ATOM     52  CZ  ARG d   1     -85.693  -5.067 -26.367  0.00  0.00     0.665 C 
ATOM     53  NH1 ARG d   1     -84.504  -5.243 -25.800  0.00  0.00    -0.235 N 
ATOM     54  NH2 ARG d   1     -86.791  -5.191 -25.631  0.00  0.00    -0.235 N 
ATOM     55  H   ARG d   1     -83.655  -5.153 -26.358  0.00  0.00     0.174 HD
ATOM     56  H   ARG d   1     -84.441  -5.468 -24.807  0.00  0.00     0.174 HD
ATOM     57  H   ARG d   1     -87.708  -5.061 -26.058  0.00  0.00     0.174 HD
ATOM     58  H   ARG d   1     -86.717  -5.416 -24.639  0.00  0.00     0.174 HD
ATOM     59  H   ARG d   1     -86.724  -4.651 -28.052  0.00  0.00     0.177 HD
ENDBRANCH  48  51
ENDBRANCH  45  48
ENDBRANCH  42  45
ENDBRANCH  37  42
ENDBRANCH  35  37
ENDBRANCH  31  33
BRANCH  31  60
ATOM     60  CB  GLN d   1     -87.948  -8.701 -32.371  0.00  0.00    -0.049 C 
ATOM     61  H   GLN d   1     -88.288  -9.734 -32.438  0.00  0.00     0.030 H 
ATOM     62  H   GLN d   1     -88.098  -8.332 -31.356  0.00  0.00     0.030 H 
ATOM     63  H   GLN d   1     -88.514  -8.085 -33.070  0.00  0.00     0.030 H 
ENDBRANCH  31  60
ENDBRANCH  29  31
ENDBRANCH  25  27
BRANCH  25  64
ATOM     64  CB  PTR d   1     -84.331 -12.113 -31.060  0.00  0.00    -0.014 C 
ATOM     65  H   PTR d   1     -85.395 -11.998 -30.856  0.00  0.00     0.043 H 
ATOM     66  H   PTR d   1     -83.801 -12.711 -30.318  0.00  0.00     0.043 H 
BRANCH  64  67
ATOM     67  CG  PTR d   1     -84.202 -12.826 -32.388  0.00  0.00    -0.056 A 
ATOM     68  CD1 PTR d   1     -82.951 -13.198 -32.890  0.00  0.00    -0.074 A 
ATOM     69  CE1 PTR d   1     -82.831 -13.847 -34.111  0.00  0.00    -0.050 A 
ATOM     70  H   PTR d   1     -82.054 -12.974 -32.312  0.00  0.00     0.084 H 
ATOM     71  CZ  PTR d   1     -83.968 -14.114 -34.862  0.00  0.00     0.082 A 
ATOM     72  H   PTR d   1     -81.849 -14.146 -34.478  0.00  0.00     0.087 H 
ATOM     73  CE2 PTR d   1     -85.222 -13.760 -34.379  0.00  0.00    -0.050 A 
ATOM     74  CD2 PTR d   1     -85.329 -13.111 -33.155  0.00  0.00    -0.074 A 
ATOM     75  H   PTR d   1     -86.117 -13.990 -34.957  0.00  0.00     0.087 H 
ATOM     76  H   PTR d   1     -86.313 -12.820 -32.788  0.00  0.00     0.084 H 
BRANCH  71  77
ATOM     77  OH  PTR d   1     -83.847 -14.719 -35.937  0.00  0.00    -0.240 OA
BRANCH  77  78
ATOM     78  P   PTR d   1     -84.297 -14.193 -37.395  0.00  0.00     0.427 P 
ATOM     79  O1P PTR d   1     -83.424 -13.060 -37.778  0.00  0.00    -0.617 OA
ATOM     80  O2P PTR d   1     -85.771 -13.758 -37.404  0.00  0.00    -0.617 OA
ATOM     81  O3P PTR d   1     -84.130 -15.361 -38.382  0.00  0.00    -0.617 OA
ENDBRANCH  77  78
ENDBRANCH  71  77
ENDBRANCH  64  67
ENDBRANCH  25  64
ENDBRANCH  23  25
ENDBRANCH  19  21
BRANCH  19  82
ATOM     82  CB  MET d   1     -81.350  -8.939 -27.541  0.00  0.00    -0.030 C 
ATOM     83  H   MET d   1     -80.750  -8.740 -28.429  0.00  0.00     0.037 H 
ATOM     84  H   MET d   1     -81.302  -9.962 -27.167  0.00  0.00     0.037 H 
BRANCH  82  85
ATOM     85  CG  MET d   1     -80.802  -8.039 -26.430  0.00  0.00    -0.021 C 
ATOM     86  H   MET d   1     -79.718  -8.150 -26.439  0.00  0.00     0.049 H 
ATOM     87  H   MET d   1     -81.287  -8.349 -25.504  0.00  0.00     0.049 H 
BRANCH  85  88
ATOM     88  SD  MET d   1     -81.152  -6.266 -26.640  0.00  0.00    -0.173 SA
BRANCH  88  89
ATOM     89  CE  MET d   1     -79.516  -5.588 -26.376  0.00  0.00    -0.035 C 
ATOM     90  H   MET d   1     -79.170  -5.855 -25.378  0.00  0.00     0.041 H 
ATOM     91  H   MET d   1     -78.831  -5.995 -27.120  0.00  0.00     0.041 H 
ATOM     92  H   MET d   1     -79.554  -4.503 -26.470  0.00  0.00     0.041 H 
ENDBRANCH  88  89
ENDBRANCH  85  88
ENDBRANCH  82  85
ENDBRANCH  19  82
ENDBRANCH  17  19
ENDBRANCH   2  15
BRANCH  13  93
ATOM     93  CA  ASN d   1     -84.637 -13.559 -26.522  0.00  0.00     0.097 C 
ATOM     94  H   ASN d   1     -84.341 -13.532 -25.473  0.00  0.00     0.088 H 
BRANCH  93  95
ATOM     95  N   ASN d   1     -85.580 -14.664 -26.688  0.00  0.00    -0.346 N 
ATOM     96  C   PRO d   1     -86.140 -15.277 -25.648  0.00  0.00     0.241 C 
ATOM     97  O   PRO d   1     -85.948 -14.935 -24.481  0.00  0.00    -0.271 OA
ATOM     98  H   ASN d   1     -85.816 -14.975 -27.630  0.00  0.00     0.163 HD
BRANCH  96  99
ATOM     99  CA  PRO d   1     -87.048 -16.469 -25.958  0.00  0.00     0.091 C 
ATOM    100  N   PRO d   1     -87.152 -17.385 -24.815  0.00  0.00    -0.337 N 
ATOM    101  C   HIS d   1     -86.080 -18.092 -24.406  0.00  0.00     0.243 C 
ATOM    102  CD  PRO d   1     -88.517 -17.431 -24.253  0.00  0.00    -0.001 C 
ATOM    103  O   HIS d   1     -85.027 -18.136 -25.050  0.00  0.00    -0.271 OA
ATOM    104  CG  PRO d   1     -89.209 -16.282 -24.904  0.00  0.00    -0.048 C 
ATOM    105  H   PRO d   1     -88.521 -17.355 -23.166  0.00  0.00     0.064 H 
ATOM    106  H   PRO d   1     -89.015 -18.381 -24.450  0.00  0.00     0.064 H 
ATOM    107  CB  PRO d   1     -88.494 -16.010 -26.186  0.00  0.00    -0.036 C 
ATOM    108  H   PRO d   1     -90.257 -16.518 -25.090  0.00  0.00     0.035 H 
ATOM    109  H   PRO d   1     -89.189 -15.404 -24.258  0.00  0.00     0.035 H 
ATOM    110  H   PRO d   1     -88.954 -16.542 -27.019  0.00  0.00     0.036 H 
ATOM    111  H   PRO d   1     -88.539 -14.954 -26.451  0.00  0.00     0.036 H 
ATOM    112  H   PRO d   1     -86.607 -16.947 -26.833  0.00  0.00     0.087 H 
BRANCH 101 113
ATOM    113  CA  HIS d   1     -86.218 -18.891 -23.108  0.00  0.00     0.095 C 
ATOM    114  H   HIS d   1     -87.213 -18.711 -22.702  0.00  0.00     0.088 H 
BRANCH 113 115
ATOM    115  N   HIS d   1     -86.074 -20.322 -23.364  0.00  0.00    -0.346 N 
ATOM    116  C   LEU d   1     -87.115 -21.149 -23.397  0.00  0.00     0.249 C 
ATOM    117  O   LEU d   1     -88.287 -20.766 -23.334  0.00  0.00    -0.271 OA
ATOM    118  H   HIS d   1     -85.141 -20.701 -23.523  0.00  0.00     0.163 HD
BRANCH 116 119
ATOM    119  CA  LEU d   1     -86.775 -22.634 -23.531  0.00  0.00     0.176 C 
ATOM    120  H   LEU d   1     -85.872 -22.823 -22.950  0.00  0.00     0.099 H 
BRANCH 119 121
ATOM    121  N   LEU d   1     -87.842 -23.510 -22.963  0.00  0.00    -0.066 N 
ATOM    122  H   LEU d   1     -88.001 -23.261 -21.987  0.00  0.00     0.275 HD
ATOM    123  H   LEU d   1     -88.704 -23.380 -23.492  0.00  0.00     0.275 HD
ATOM    124  H   LEU d   1     -87.548 -24.485 -23.023  0.00  0.00     0.275 HD
ENDBRANCH 119 121
BRANCH 119 125
ATOM    125  CB  LEU d   1     -86.508 -22.978 -24.999  0.00  0.00    -0.028 C 
ATOM    126  H   LEU d   1     -85.828 -22.197 -25.338  0.00  0.00     0.037 H 
ATOM    127  H   LEU d   1     -87.501 -23.076 -25.437  0.00  0.00     0.037 H 
BRANCH 125 128
ATOM    128  CG  LEU d   1     -85.800 -24.284 -25.376  0.00  0.00    -0.059 C 
ATOM    129  H   LEU d   1     -86.414 -25.111 -25.020  0.00  0.00     0.038 H 
BRANCH 128 130
ATOM    130  CD1 LEU d   1     -85.652 -24.372 -26.892  0.00  0.00    -0.073 C 
ATOM    131  H   LEU d   1     -85.007 -23.565 -27.240  0.00  0.00     0.028 H 
ATOM    132  H   LEU d   1     -85.210 -25.332 -27.157  0.00  0.00     0.028 H 
ATOM    133  H   LEU d   1     -86.633 -24.281 -27.358  0.00  0.00     0.028 H 
ENDBRANCH 128 130
BRANCH 128 134
ATOM    134  CD2 LEU d   1     -84.440 -24.409 -24.705  0.00  0.00    -0.073 C 
ATOM    135  H   LEU d   1     -83.995 -25.369 -24.965  0.00  0.00     0.028 H 
ATOM    136  H   LEU d   1     -83.792 -23.602 -25.047  0.00  0.00     0.028 H 
ATOM    137  H   LEU d   1     -84.562 -24.344 -23.624  0.00  0.00     0.028 H 
ENDBRANCH 128 134
ENDBRANCH 125 128
ENDBRANCH 119 125
ENDBRANCH 116 119
ENDBRANCH 113 115
BRANCH 113 138
ATOM    138  CB  HIS d   1     -85.173 -18.428 -22.078  0.00  0.00     0.004 C 
ATOM    139  H   HIS d   1     -85.258 -17.344 -22.000  0.00  0.00     0.046 H 
ATOM    140  H   HIS d   1     -84.201 -18.777 -22.428  0.00  0.00     0.046 H 
BRANCH 138 141
ATOM    141  CG  HIS d   1     -85.374 -18.988 -20.699  0.00  0.00     0.053 A 
ATOM    142  ND1 HIS d   1     -84.784 -18.451 -19.574  0.00  0.00    -0.247 NA
ATOM    143  CE1 HIS d   1     -85.152 -19.141 -18.510  0.00  0.00     0.064 A 
ATOM    144  NE2 HIS d   1     -85.970 -20.100 -18.901  0.00  0.00    -0.359 N 
ATOM    145  H   HIS d   1     -84.835 -18.951 -17.485  0.00  0.00     0.143 H 
ATOM    146  CD2 HIS d   1     -86.129 -20.025 -20.264  0.00  0.00     0.002 A 
ATOM    147  H   HIS d   1     -86.413 -20.786 -18.290  0.00  0.00     0.166 HD
ATOM    148  H   HIS d   1     -86.747 -20.678 -20.880  0.00  0.00     0.114 H 
ENDBRANCH 138 141
ENDBRANCH 113 138
ENDBRANCH 101 113
ENDBRANCH  96  99
ENDBRANCH  93  95
BRANCH  93 149
ATOM    149  CB  ASN d   1     -83.377 -13.787 -27.378  0.00  0.00     0.036 C 
ATOM    150  H   ASN d   1     -83.684 -13.784 -28.424  0.00  0.00     0.051 H 
ATOM    151  H   ASN d   1     -82.931 -14.730 -27.064  0.00  0.00     0.051 H 
BRANCH 149 152
ATOM    152  CG  ASN d   1     -82.319 -12.691 -27.201  0.00  0.00     0.217 C 
ATOM    153  OD1 ASN d   1     -82.346 -11.926 -26.240  0.00  0.00    -0.274 OA
ATOM    154  ND2 ASN d   1     -81.376 -12.625 -28.136  0.00  0.00    -0.370 N 
ATOM    155  H   ASN d   1     -80.641 -11.921 -28.070  0.00  0.00     0.159 HD
ATOM    156  H   ASN d   1     -81.388 -13.278 -28.919  0.00  0.00     0.159 HD
ENDBRANCH 149 152
ENDBRANCH  93 149
ENDBRANCH  13  93
TORSDOF 37
