REMARK  12 active torsions:
REMARK  status: ('A' for Active; 'I' for Inactive)
REMARK    1  A    between atoms: CBI_35  and  CAG_7 
REMARK    2  A    between atoms: CAH_8  and  CBJ_36 
REMARK    3  A    between atoms: CAU_21  and  CAW_23 
REMARK    4  A    between atoms: CBE_31  and  CAU_21 
REMARK    5  A    between atoms: CAX_24  and  CAV_22 
REMARK    6  A    between atoms: CAV_22  and  CBF_32 
REMARK    7  A    between atoms: CAW_23  and  CBG_33 
REMARK    8  A    between atoms: CBH_34  and  CAX_24 
REMARK    9  A    between atoms: NAY_25  and  NBA_27 
REMARK   10  A    between atoms: NBB_28  and  NAZ_26 
REMARK   11  A    between atoms: NBC_29  and  CBM_39 
REMARK   12  A    between atoms: NBD_30  and  CBN_40 
ROOT
ATOM      1  CAQ LJZ d   1      17.699 -31.870 -14.212  0.00  0.00    -0.071 A 
ATOM      2  CAR LJZ d   1      18.593 -32.954 -14.337  0.00  0.00    -0.071 A 
ATOM      3  CAS LJZ d   1      15.876 -33.483 -14.137  0.00  0.00    -0.071 A 
ATOM      4  CAT LJZ d   1      16.775 -34.579 -14.271  0.00  0.00    -0.071 A 
ATOM      5  CBI LJZ d   1      16.350 -32.134 -14.103  0.00  0.00    -0.017 A 
ATOM      6  CBJ LJZ d   1      18.128 -34.303 -14.372  0.00  0.00    -0.017 A 
ATOM      7  H11 LJZ d   1      18.065 -30.850 -14.202  0.00  0.00     0.084 H 
ATOM      8  H12 LJZ d   1      19.657 -32.758 -14.408  0.00  0.00     0.084 H 
ATOM      9  H13 LJZ d   1      14.812 -33.675 -14.059  0.00  0.00     0.084 H 
ATOM     10  H14 LJZ d   1      16.411 -35.600 -14.293  0.00  0.00     0.084 H 
ENDROOT
BRANCH   5  11
ATOM     11  CAG LJZ d   1      15.393 -30.980 -13.976  0.00  0.00     0.031 C 
ATOM     12  NAY LJZ d   1      14.364 -31.019 -13.177  0.00  0.00    -0.185 NA
ATOM     13  H1  LJZ d   1      15.566 -30.084 -14.570  0.00  0.00     0.118 H 
BRANCH  12  14
ATOM     14  NBA LJZ d   1      13.378 -30.128 -13.434  0.00  0.00    -0.259 N 
ATOM     15  CBE LJZ d   1      12.360 -29.849 -12.599  0.00  0.00     0.171 C 
ATOM     16  OAA LJZ d   1      11.727 -28.733 -12.227  0.00  0.00    -0.176 OA
ATOM     17  H23 LJZ d   1      13.408 -29.642 -14.307  0.00  0.00     0.191 HD
BRANCH  15  18
ATOM     18  CAU LJZ d   1      11.537 -31.093 -12.286  0.00  0.00     0.005 C 
ATOM     19  H15 LJZ d   1      11.437 -31.686 -13.207  0.00  0.00     0.046 H 
ATOM     20  H16 LJZ d   1      12.070 -31.683 -11.526  0.00  0.00     0.046 H 
BRANCH  18  21
ATOM     21  CAW LJZ d   1      10.144 -30.776 -11.762  0.00  0.00     0.004 C 
ATOM     22  H19 LJZ d   1       9.622 -30.147 -12.498  0.00  0.00     0.046 H 
ATOM     23  H20 LJZ d   1      10.237 -30.229 -10.812  0.00  0.00     0.046 H 
BRANCH  21  24
ATOM     24  CBG LJZ d   1       9.321 -32.049 -11.524  0.00  0.00     0.156 C 
ATOM     25  OAC LJZ d   1      10.064 -33.034 -11.013  0.00  0.00    -0.177 OA
ATOM     26  NBC LJZ d   1       8.002 -31.822 -11.604  0.00  0.00    -0.337 N 
ATOM     27  H25 LJZ d   1       7.639 -30.957 -11.951  0.00  0.00     0.168 HD
BRANCH  26  28
ATOM     28  CBM LJZ d   1       7.119 -32.899 -11.159  0.00  0.00     0.055 A 
ATOM     29  CAO LJZ d   1       6.297 -32.661 -10.066  0.00  0.00    -0.056 A 
ATOM     30  CAK LJZ d   1       5.403 -33.697  -9.594  0.00  0.00    -0.081 A 
ATOM     31  H9  LJZ d   1       6.325 -31.700  -9.566  0.00  0.00     0.087 H 
ATOM     32  CAI LJZ d   1       5.351 -34.991 -10.251  0.00  0.00    -0.081 A 
ATOM     33  H5  LJZ d   1       4.764 -33.505  -8.739  0.00  0.00     0.083 H 
ATOM     34  CAM LJZ d   1       6.191 -35.252 -11.375  0.00  0.00    -0.060 A 
ATOM     35  H3  LJZ d   1       4.675 -35.757  -9.888  0.00  0.00     0.083 H 
ATOM     36  CBK LJZ d   1       7.077 -34.238 -11.839  0.00  0.00     0.060 A 
ATOM     37  H7  LJZ d   1       6.155 -36.215 -11.872  0.00  0.00     0.086 H 
ATOM     38 CLAE LJZ d   1       8.093 -34.606 -13.191  0.00  0.00    -0.082 Cl
ENDBRANCH  26  28
ENDBRANCH  21  24
ENDBRANCH  18  21
ENDBRANCH  15  18
ENDBRANCH  12  14
ENDBRANCH   5  11
BRANCH   6  39
ATOM     39  CAH LJZ d   1      19.147 -35.409 -14.494  0.00  0.00     0.031 C 
ATOM     40  NAZ LJZ d   1      18.930 -36.564 -15.080  0.00  0.00    -0.185 NA
ATOM     41  H2  LJZ d   1      20.133 -35.237 -14.065  0.00  0.00     0.118 H 
BRANCH  40  42
ATOM     42  NBB LJZ d   1      20.055 -37.336 -15.237  0.00  0.00    -0.259 N 
ATOM     43  CBF LJZ d   1      20.040 -38.563 -15.816  0.00  0.00     0.171 C 
ATOM     44  OAB LJZ d   1      20.976 -39.456 -16.125  0.00  0.00    -0.176 OA
ATOM     45  H24 LJZ d   1      20.928 -36.976 -14.908  0.00  0.00     0.191 HD
BRANCH  43  46
ATOM     46  CAV LJZ d   1      18.616 -39.150 -15.970  0.00  0.00     0.005 C 
ATOM     47  H17 LJZ d   1      18.139 -39.208 -14.981  0.00  0.00     0.046 H 
ATOM     48  H18 LJZ d   1      18.023 -38.496 -16.626  0.00  0.00     0.046 H 
BRANCH  46  49
ATOM     49  CAX LJZ d   1      18.681 -40.549 -16.580  0.00  0.00     0.004 C 
ATOM     50  H21 LJZ d   1      19.350 -41.170 -15.966  0.00  0.00     0.046 H 
ATOM     51  H22 LJZ d   1      19.087 -40.470 -17.599  0.00  0.00     0.046 H 
BRANCH  49  52
ATOM     52  CBH LJZ d   1      17.312 -41.228 -16.651  0.00  0.00     0.156 C 
ATOM     53  OAD LJZ d   1      16.351 -40.375 -17.012  0.00  0.00    -0.177 OA
ATOM     54  NBD LJZ d   1      17.437 -42.579 -16.519  0.00  0.00    -0.337 N 
ATOM     55  H26 LJZ d   1      18.283 -42.986 -16.173  0.00  0.00     0.168 HD
BRANCH  54  56
ATOM     56  CBN LJZ d   1      16.303 -43.415 -16.896  0.00  0.00     0.055 A 
ATOM     57  CAP LJZ d   1      16.468 -44.361 -17.904  0.00  0.00    -0.056 A 
ATOM     58  CAL LJZ d   1      15.383 -45.191 -18.290  0.00  0.00    -0.081 A 
ATOM     59  H10 LJZ d   1      17.428 -44.464 -18.396  0.00  0.00     0.087 H 
ATOM     60  CAJ LJZ d   1      14.148 -45.066 -17.666  0.00  0.00    -0.081 A 
ATOM     61  H6  LJZ d   1      15.519 -45.926 -19.075  0.00  0.00     0.083 H 
ATOM     62  CAN LJZ d   1      13.964 -44.103 -16.644  0.00  0.00    -0.060 A 
ATOM     63  H4  LJZ d   1      13.325 -45.706 -17.962  0.00  0.00     0.083 H 
ATOM     64  CBL LJZ d   1      15.033 -43.280 -16.262  0.00  0.00     0.060 A 
ATOM     65  H8  LJZ d   1      13.000 -44.002 -16.159  0.00  0.00     0.086 H 
ATOM     66 CLAF LJZ d   1      14.767 -42.109 -15.022  0.00  0.00    -0.082 Cl
ENDBRANCH  54  56
ENDBRANCH  49  52
ENDBRANCH  46  49
ENDBRANCH  43  46
ENDBRANCH  40  42
ENDBRANCH   6  39
TORSDOF 12
