REMARK  7 active torsions:
REMARK  status: ('A' for Active; 'I' for Inactive)
REMARK    1  A    between atoms: C8_1  and  S7_2 
REMARK    2  A    between atoms: C8_1  and  C9_9 
REMARK    3  A    between atoms: C8_1  and  C10_12 
REMARK    4  A    between atoms: S7_2  and  C6_3 
REMARK    5  A    between atoms: C6_3  and  C5_4 
REMARK    6  A    between atoms: C5_4  and  N3_5 
REMARK       I    between atoms: N3_5  and  C1_6 
REMARK       I    between atoms: C1_6  and  N4_7 
REMARK    7  A    between atoms: C10_12  and  C11_13 
ROOT
ATOM      1  C6  GEM d   1       3.822 -13.076 -28.052  0.00  0.00    -0.007 C 
ATOM      2  H   GEM d   1       4.594 -12.651 -28.694  0.00  0.00     0.051 H 
ATOM      3  H   GEM d   1       3.877 -12.739 -27.017  0.00  0.00     0.051 H 
ENDROOT
BRANCH   1   4
ATOM      4  S7  GEM d   1       4.045 -14.832 -28.048  0.00  0.00    -0.151 SA
BRANCH   4   5
ATOM      5  C8  GEM d   1       3.703 -15.206 -29.745  0.00  0.00     0.084 C 
ATOM      6  H   GEM d   1       2.764 -14.735 -30.036  0.00  0.00     0.074 H 
BRANCH   5   7
ATOM      7  C9  GEM d   1       3.606 -16.704 -29.861  0.00  0.00     0.187 C 
ATOM      8  O14 GEM d   1       3.870 -17.392 -28.850  0.00  0.00    -0.647 OA
ATOM      9  O15 GEM d   1       3.259 -17.208 -30.950  0.00  0.00    -0.647 OA
ENDBRANCH   5   7
BRANCH   5  10
ATOM     10  C10 GEM d   1       4.739 -14.619 -30.718  0.00  0.00     0.036 C 
ATOM     11  H   GEM d   1       4.846 -13.570 -30.442  0.00  0.00     0.051 H 
ATOM     12  H   GEM d   1       4.362 -14.830 -31.719  0.00  0.00     0.051 H 
BRANCH  10  13
ATOM     13  C11 GEM d   1       6.143 -15.209 -30.669  0.00  0.00     0.174 C 
ATOM     14  O12 GEM d   1       7.105 -14.405 -30.603  0.00  0.00    -0.648 OA
ATOM     15  O13 GEM d   1       6.303 -16.455 -30.733  0.00  0.00    -0.648 OA
ENDBRANCH  10  13
ENDBRANCH   5  10
ENDBRANCH   4   5
ENDBRANCH   1   4
BRANCH   1  16
ATOM     16  C5  GEM d   1       2.471 -12.629 -28.606  0.00  0.00     0.017 C 
ATOM     17  H   GEM d   1       2.285 -13.091 -29.575  0.00  0.00     0.066 H 
ATOM     18  H   GEM d   1       2.457 -11.549 -28.749  0.00  0.00     0.066 H 
BRANCH  16  19
ATOM     19  N3  GEM d   1       1.451 -13.028 -27.649  0.00  0.00    -0.226 N 
ATOM     20  C1  GEM d   1       0.134 -12.985 -27.820  0.00  0.00     0.665 C 
ATOM     21  N4  GEM d   1      -0.681 -13.385 -26.852  0.00  0.00    -0.235 N 
ATOM     22  N2  GEM d   1      -0.375 -12.545 -28.966  0.00  0.00    -0.235 N 
ATOM     23  H   GEM d   1      -1.691 -13.354 -26.990  0.00  0.00     0.174 HD
ATOM     24  H   GEM d   1      -0.297 -13.724 -25.970  0.00  0.00     0.174 HD
ATOM     25  H   GEM d   1      -1.386 -12.516 -29.097  0.00  0.00     0.174 HD
ATOM     26  H   GEM d   1       0.245 -12.236 -29.714  0.00  0.00     0.174 HD
ATOM     27  H   GEM d   1       1.782 -13.378 -26.750  0.00  0.00     0.177 HD
ENDBRANCH  16  19
ENDBRANCH   1  16
TORSDOF 7
