REMARK  15 active torsions:
REMARK  status: ('A' for Active; 'I' for Inactive)
REMARK    1  A    between atoms: C2_2  and  NAN_14 
REMARK    2  A    between atoms: C6_6  and  NAM_13 
REMARK    3  A    between atoms: CAD_8  and  OAL_12 
REMARK    4  A    between atoms: CAE_9  and  OAK_11 
REMARK    5  A    between atoms: OAK_11  and  CBJ_35 
REMARK    6  A    between atoms: OAL_12  and  CBI_34 
REMARK    7  A    between atoms: NAM_13  and  CAV_21 
REMARK    8  A    between atoms: NAN_14  and  CAO_15 
REMARK    9  A    between atoms: CAO_15  and  CAP_16 
REMARK   10  A    between atoms: CAP_16  and  CAQ_17 
REMARK   11  A    between atoms: CAQ_17  and  NAR_18 
REMARK   12  A    between atoms: NAR_18  and  CAS_19 
REMARK   13  A    between atoms: NAR_18  and  CAU_20 
REMARK   14  A    between atoms: NAY_24  and  CBB_27 
REMARK   15  A    between atoms: CBB_27  and  CBC_28 
ROOT
ATOM      1  N1  E11 d   1     -20.147  -8.205  25.682  0.00  0.00    -0.045 NA
ATOM      2  C2  E11 d   1     -19.159  -9.095  25.861  0.00  0.00     0.725 A 
ATOM      3  N3  E11 d   1     -18.141  -9.172  24.991  0.00  0.00    -0.062 NA
ATOM      4  C4  E11 d   1     -18.090  -8.368  23.920  0.00  0.00     0.092 A 
ATOM      5  C5  E11 d   1     -19.106  -7.443  23.708  0.00  0.00     0.042 A 
ATOM      6  C6  E11 d   1     -20.146  -7.375  24.629  0.00  0.00     0.155 A 
ATOM      7  CAC E11 d   1     -17.034  -8.456  23.018  0.00  0.00    -0.019 A 
ATOM      8  CAD E11 d   1     -17.000  -7.624  21.903  0.00  0.00     0.103 A 
ATOM      9  CAE E11 d   1     -18.024  -6.708  21.686  0.00  0.00     0.102 A 
ATOM     10  CAF E11 d   1     -19.076  -6.614  22.593  0.00  0.00    -0.032 A 
ATOM     11  H   E11 d   1     -16.233  -9.177  23.185  0.00  0.00     0.091 H 
ATOM     12  H   E11 d   1     -19.875  -5.891  22.429  0.00  0.00     0.089 H 
ENDROOT
BRANCH   6  13
ATOM     13  NAM E11 d   1     -21.080  -6.436  24.498  0.00  0.00    -0.369 N 
ATOM     14  H   E11 d   1     -21.064  -5.825  23.681  0.00  0.00     0.161 HD
BRANCH  13  15
ATOM     15  CAV E11 d   1     -22.134  -6.263  25.508  0.00  0.00     0.014 C 
ATOM     16  CAW E11 d   1     -23.512  -6.521  24.893  0.00  0.00    -0.021 C 
ATOM     17  CAX E11 d   1     -24.622  -6.199  25.896  0.00  0.00     0.116 C 
ATOM     18  H   E11 d   1     -23.582  -7.573  24.616  0.00  0.00     0.038 H 
ATOM     19  H   E11 d   1     -23.632  -5.882  24.018  0.00  0.00     0.038 H 
ATOM     20  NAY E11 d   1     -24.521  -4.790  26.303  0.00  0.00     0.092 N 
ATOM     21  H   E11 d   1     -24.517  -6.839  26.772  0.00  0.00     0.080 H 
ATOM     22  H   E11 d   1     -25.593  -6.375  25.432  0.00  0.00     0.080 H 
ATOM     23  CAZ E11 d   1     -23.250  -4.572  27.011  0.00  0.00     0.116 C 
ATOM     24  CBA E11 d   1     -22.085  -4.834  26.055  0.00  0.00    -0.021 C 
ATOM     25  H   E11 d   1     -23.185  -5.253  27.860  0.00  0.00     0.080 H 
ATOM     26  H   E11 d   1     -23.204  -3.543  27.368  0.00  0.00     0.080 H 
ATOM     27  H   E11 d   1     -22.155  -4.137  25.220  0.00  0.00     0.038 H 
ATOM     28  H   E11 d   1     -21.150  -4.700  26.599  0.00  0.00     0.038 H 
ATOM     29  H   E11 d   1     -21.967  -6.977  26.315  0.00  0.00     0.072 H 
BRANCH  20  30
ATOM     30  CBB E11 d   1     -25.654  -4.441  27.174  0.00  0.00     0.137 C 
ATOM     31  H   E11 d   1     -25.542  -4.961  28.126  0.00  0.00     0.087 H 
ATOM     32  H   E11 d   1     -26.582  -4.737  26.684  0.00  0.00     0.087 H 
BRANCH  30  33
ATOM     33  CBC E11 d   1     -25.687  -2.933  27.432  0.00  0.00    -0.030 A 
ATOM     34  CBD E11 d   1     -25.868  -2.452  28.725  0.00  0.00    -0.075 A 
ATOM     35  CBE E11 d   1     -25.895  -1.083  28.967  0.00  0.00    -0.082 A 
ATOM     36  H   E11 d   1     -25.989  -3.152  29.552  0.00  0.00     0.084 H 
ATOM     37  CBF E11 d   1     -25.739  -0.190  27.913  0.00  0.00    -0.083 A 
ATOM     38  H   E11 d   1     -26.038  -0.711  29.981  0.00  0.00     0.083 H 
ATOM     39  CBG E11 d   1     -25.558  -0.669  26.619  0.00  0.00    -0.082 A 
ATOM     40  H   E11 d   1     -25.758   0.884  28.100  0.00  0.00     0.083 H 
ATOM     41  CBH E11 d   1     -25.532  -2.038  26.378  0.00  0.00    -0.075 A 
ATOM     42  H   E11 d   1     -25.436   0.031  25.792  0.00  0.00     0.083 H 
ATOM     43  H   E11 d   1     -25.390  -2.410  25.363  0.00  0.00     0.084 H 
ENDBRANCH  30  33
ENDBRANCH  20  30
ENDBRANCH  13  15
ENDBRANCH   6  13
BRANCH   2  44
ATOM     44  NAN E11 d   1     -19.186  -9.929  26.897  0.00  0.00    -0.222 N 
ATOM     45  H   E11 d   1     -18.434 -10.608  27.013  0.00  0.00     0.177 HD
BRANCH  44  46
ATOM     46  CAO E11 d   1     -20.280  -9.890  27.877  0.00  0.00     0.011 C 
ATOM     47  H   E11 d   1     -20.368  -8.881  28.279  0.00  0.00     0.064 H 
ATOM     48  H   E11 d   1     -20.067 -10.592  28.683  0.00  0.00     0.064 H 
BRANCH  46  49
ATOM     49  CAP E11 d   1     -21.595 -10.281  27.201  0.00  0.00    -0.025 C 
ATOM     50  H   E11 d   1     -21.456 -11.230  26.683  0.00  0.00     0.037 H 
ATOM     51  H   E11 d   1     -21.877  -9.496  26.499  0.00  0.00     0.037 H 
BRANCH  49  52
ATOM     52  CAQ E11 d   1     -22.710 -10.442  28.236  0.00  0.00     0.114 C 
ATOM     53  H   E11 d   1     -23.413 -11.197  27.882  0.00  0.00     0.079 H 
ATOM     54  H   E11 d   1     -23.209  -9.482  28.368  0.00  0.00     0.079 H 
BRANCH  52  55
ATOM     55  NAR E11 d   1     -22.160 -10.874  29.530  0.00  0.00     0.080 N 
BRANCH  55  56
ATOM     56  CAS E11 d   1     -22.753 -12.161  29.923  0.00  0.00     0.095 C 
ATOM     57  H   E11 d   1     -23.834 -12.050  30.011  0.00  0.00     0.071 H 
ATOM     58  H   E11 d   1     -22.524 -12.911  29.166  0.00  0.00     0.071 H 
ATOM     59  H   E11 d   1     -22.339 -12.472  30.882  0.00  0.00     0.071 H 
ENDBRANCH  55  56
BRANCH  55  60
ATOM     60  CAU E11 d   1     -20.697 -11.001  29.454  0.00  0.00     0.095 C 
ATOM     61  H   E11 d   1     -20.437 -11.739  28.695  0.00  0.00     0.071 H 
ATOM     62  H   E11 d   1     -20.263 -10.037  29.189  0.00  0.00     0.071 H 
ATOM     63  H   E11 d   1     -20.311 -11.322  30.422  0.00  0.00     0.071 H 
ENDBRANCH  55  60
ENDBRANCH  52  55
ENDBRANCH  49  52
ENDBRANCH  46  49
ENDBRANCH  44  46
ENDBRANCH   2  44
BRANCH   9  64
ATOM     64  OAK E11 d   1     -18.011  -5.964  20.547  0.00  0.00    -0.353 OA
BRANCH  64  65
ATOM     65  CBJ E11 d   1     -18.599  -4.676  20.748  0.00  0.00     0.010 C 
ATOM     66  H   E11 d   1     -19.634  -4.796  21.067  0.00  0.00     0.066 H 
ATOM     67  H   E11 d   1     -18.041  -4.139  21.515  0.00  0.00     0.066 H 
ATOM     68  H   E11 d   1     -18.568  -4.114  19.814  0.00  0.00     0.066 H 
ENDBRANCH  64  65
ENDBRANCH   9  64
BRANCH   8  69
ATOM     69  OAL E11 d   1     -15.954  -7.659  21.031  0.00  0.00    -0.353 OA
BRANCH  69  70
ATOM     70  CBI E11 d   1     -15.367  -8.960  20.941  0.00  0.00     0.010 C 
ATOM     71  H   E11 d   1     -15.000  -9.260  21.922  0.00  0.00     0.066 H 
ATOM     72  H   E11 d   1     -16.117  -9.673  20.599  0.00  0.00     0.066 H 
ATOM     73  H   E11 d   1     -14.538  -8.935  20.234  0.00  0.00     0.066 H 
ENDBRANCH  69  70
ENDBRANCH   8  69
TORSDOF 15
