REMARK  20 active torsions:
REMARK  status: ('A' for Active; 'I' for Inactive)
REMARK    1  A    between atoms: C2_2  and  NAU_21 
REMARK    2  A    between atoms: C6_6  and  NAN_14 
REMARK    3  A    between atoms: CAA_7  and  OAK_11 
REMARK    4  A    between atoms: CAB_8  and  OAL_12 
REMARK    5  A    between atoms: OAK_11  and  CBB_28 
REMARK    6  A    between atoms: OAL_12  and  CAM_13 
REMARK    7  A    between atoms: NAN_14  and  CAO_15 
REMARK    8  A    between atoms: NAR_18  and  CBH_34 
REMARK    9  A    between atoms: NAU_21  and  CAV_22 
REMARK   10  A    between atoms: CAV_22  and  CAW_23 
REMARK   11  A    between atoms: CAW_23  and  CAX_24 
REMARK   12  A    between atoms: CAX_24  and  NAY_25 
REMARK   13  A    between atoms: NAY_25  and  CAZ_26 
REMARK   14  A    between atoms: NAY_25  and  CBA_27 
REMARK   15  A    between atoms: CBB_28  and  CBC_29 
REMARK   16  A    between atoms: CBC_29  and  CBD_30 
REMARK   17  A    between atoms: CBD_30  and  CBE_31 
REMARK   18  A    between atoms: CBE_31  and  CBF_32 
REMARK   19  A    between atoms: CBF_32  and  NBG_33 
REMARK   20  A    between atoms: CBH_34  and  CBI_35 
ROOT
ATOM      1  N1  E67 d   1      15.047  42.308  37.192  0.00  0.00    -0.045 NA
ATOM      2  C2  E67 d   1      14.223  41.486  37.929  0.00  0.00     0.725 A 
ATOM      3  N3  E67 d   1      12.883  41.507  37.748  0.00  0.00    -0.062 NA
ATOM      4  C4  E67 d   1      12.343  42.357  36.824  0.00  0.00     0.092 A 
ATOM      5  C5  E67 d   1      13.182  43.222  36.054  0.00  0.00     0.042 A 
ATOM      6  C6  E67 d   1      14.575  43.174  36.259  0.00  0.00     0.155 A 
ATOM      7  CAA E67 d   1      10.362  43.272  35.652  0.00  0.00     0.104 A 
ATOM      8  CAB E67 d   1      11.199  44.135  34.893  0.00  0.00     0.102 A 
ATOM      9  CAC E67 d   1      12.613  44.101  35.102  0.00  0.00    -0.032 A 
ATOM     10  CAF E67 d   1      10.938  42.384  36.619  0.00  0.00    -0.019 A 
ATOM     11  H   E67 d   1      13.260  44.759  34.522  0.00  0.00     0.089 H 
ATOM     12  H   E67 d   1      10.293  41.725  37.201  0.00  0.00     0.091 H 
ENDROOT
BRANCH   6  13
ATOM     13  NAN E67 d   1      15.413  43.964  35.543  0.00  0.00    -0.369 N 
ATOM     14  H   E67 d   1      14.973  44.588  34.867  0.00  0.00     0.161 HD
BRANCH  13  15
ATOM     15  CAO E67 d   1      16.905  44.031  35.625  0.00  0.00     0.014 C 
ATOM     16  CAP E67 d   1      17.356  45.487  35.485  0.00  0.00    -0.021 C 
ATOM     17  CAQ E67 d   1      18.940  45.590  35.543  0.00  0.00     0.116 C 
ATOM     18  H   E67 d   1      16.934  46.068  36.305  0.00  0.00     0.038 H 
ATOM     19  H   E67 d   1      17.012  45.872  34.525  0.00  0.00     0.038 H 
ATOM     20  NAR E67 d   1      19.550  44.786  34.428  0.00  0.00     0.092 N 
ATOM     21  H   E67 d   1      19.290  45.200  36.499  0.00  0.00     0.080 H 
ATOM     22  H   E67 d   1      19.235  46.634  35.435  0.00  0.00     0.080 H 
ATOM     23  CAS E67 d   1      19.128  43.339  34.610  0.00  0.00     0.116 C 
ATOM     24  CAT E67 d   1      17.584  43.222  34.498  0.00  0.00    -0.021 C 
ATOM     25  H   E67 d   1      19.445  42.993  35.594  0.00  0.00     0.080 H 
ATOM     26  H   E67 d   1      19.592  42.728  33.836  0.00  0.00     0.080 H 
ATOM     27  H   E67 d   1      17.265  43.617  33.533  0.00  0.00     0.038 H 
ATOM     28  H   E67 d   1      17.298  42.174  34.589  0.00  0.00     0.038 H 
ATOM     29  H   E67 d   1      17.194  43.610  36.588  0.00  0.00     0.072 H 
BRANCH  20  30
ATOM     30  CBH E67 d   1      21.047  44.954  34.545  0.00  0.00     0.137 C 
ATOM     31  H   E67 d   1      21.318  44.495  35.496  0.00  0.00     0.087 H 
ATOM     32  H   E67 d   1      21.230  46.022  34.425  0.00  0.00     0.087 H 
BRANCH  30  33
ATOM     33  CBI E67 d   1      21.946  44.254  33.473  0.00  0.00    -0.030 A 
ATOM     34  CBJ E67 d   1      23.273  43.855  33.880  0.00  0.00    -0.075 A 
ATOM     35  CBK E67 d   1      24.188  43.219  32.992  0.00  0.00    -0.082 A 
ATOM     36  H   E67 d   1      23.587  44.048  34.906  0.00  0.00     0.084 H 
ATOM     37  CBL E67 d   1      23.750  42.957  31.577  0.00  0.00    -0.083 A 
ATOM     38  H   E67 d   1      25.183  42.929  33.330  0.00  0.00     0.083 H 
ATOM     39  CBM E67 d   1      22.345  43.390  31.176  0.00  0.00    -0.082 A 
ATOM     40  H   E67 d   1      24.416  42.473  30.862  0.00  0.00     0.083 H 
ATOM     41  CBN E67 d   1      21.496  44.021  32.128  0.00  0.00    -0.075 A 
ATOM     42  H   E67 d   1      21.990  43.216  30.160  0.00  0.00     0.083 H 
ATOM     43  H   E67 d   1      20.493  44.331  31.834  0.00  0.00     0.084 H 
ENDBRANCH  30  33
ENDBRANCH  20  30
ENDBRANCH  13  15
ENDBRANCH   6  13
BRANCH   2  44
ATOM     44  NAU E67 d   1      14.813  40.682  38.814  0.00  0.00    -0.222 N 
ATOM     45  H   E67 d   1      14.299  40.033  39.410  0.00  0.00     0.177 HD
BRANCH  44  46
ATOM     46  CAV E67 d   1      16.287  40.822  38.847  0.00  0.00     0.011 C 
ATOM     47  H   E67 d   1      16.562  41.825  38.520  0.00  0.00     0.064 H 
ATOM     48  H   E67 d   1      16.735  40.083  38.183  0.00  0.00     0.064 H 
BRANCH  46  49
ATOM     49  CAW E67 d   1      16.789  40.600  40.255  0.00  0.00    -0.025 C 
ATOM     50  H   E67 d   1      17.822  40.258  40.195  0.00  0.00     0.037 H 
ATOM     51  H   E67 d   1      16.137  39.870  40.734  0.00  0.00     0.037 H 
BRANCH  49  52
ATOM     52  CAX E67 d   1      16.764  41.802  41.041  0.00  0.00     0.114 C 
ATOM     53  H   E67 d   1      15.761  42.224  41.109  0.00  0.00     0.079 H 
ATOM     54  H   E67 d   1      17.365  42.594  40.594  0.00  0.00     0.079 H 
BRANCH  52  55
ATOM     55  NAY E67 d   1      17.284  41.392  42.365  0.00  0.00     0.080 N 
BRANCH  55  56
ATOM     56  CAZ E67 d   1      16.228  41.369  43.399  0.00  0.00     0.095 C 
ATOM     57  H   E67 d   1      15.797  42.365  43.498  0.00  0.00     0.071 H 
ATOM     58  H   E67 d   1      15.451  40.663  43.107  0.00  0.00     0.071 H 
ATOM     59  H   E67 d   1      16.660  41.062  44.351  0.00  0.00     0.071 H 
ENDBRANCH  55  56
BRANCH  55  60
ATOM     60  CBA E67 d   1      18.416  42.292  42.707  0.00  0.00     0.095 C 
ATOM     61  H   E67 d   1      19.194  42.199  41.949  0.00  0.00     0.071 H 
ATOM     62  H   E67 d   1      18.062  43.322  42.742  0.00  0.00     0.071 H 
ATOM     63  H   E67 d   1      18.820  42.012  43.680  0.00  0.00     0.071 H 
ENDBRANCH  55  60
ENDBRANCH  52  55
ENDBRANCH  49  52
ENDBRANCH  46  49
ENDBRANCH  44  46
ENDBRANCH   2  44
BRANCH   8  64
ATOM     64  OAL E67 d   1      10.597  44.988  33.969  0.00  0.00    -0.353 OA
BRANCH  64  65
ATOM     65  CAM E67 d   1      11.301  45.212  32.737  0.00  0.00     0.010 C 
ATOM     66  H   E67 d   1      12.276  45.650  32.952  0.00  0.00     0.066 H 
ATOM     67  H   E67 d   1      11.434  44.263  32.218  0.00  0.00     0.066 H 
ATOM     68  H   E67 d   1      10.725  45.892  32.110  0.00  0.00     0.066 H 
ENDBRANCH  64  65
ENDBRANCH   8  64
BRANCH   7  69
ATOM     69  OAK E67 d   1       9.004  43.339  35.398  0.00  0.00    -0.348 OA
BRANCH  69  70
ATOM     70  CBB E67 d   1       8.122  42.891  36.437  0.00  0.00     0.026 C 
ATOM     71  H   E67 d   1       8.282  43.502  37.326  0.00  0.00     0.075 H 
ATOM     72  H   E67 d   1       8.331  41.843  36.652  0.00  0.00     0.075 H 
BRANCH  70  73
ATOM     73  CBC E67 d   1       6.664  43.027  35.996  0.00  0.00    -0.045 C 
ATOM     74  H   E67 d   1       6.564  44.048  35.629  0.00  0.00     0.036 H 
ATOM     75  H   E67 d   1       6.069  42.741  36.863  0.00  0.00     0.036 H 
BRANCH  73  76
ATOM     76  CBD E67 d   1       6.182  42.131  34.854  0.00  0.00    -0.062 C 
ATOM     77  H   E67 d   1       5.145  41.886  35.085  0.00  0.00     0.033 H 
ATOM     78  H   E67 d   1       6.887  41.301  34.808  0.00  0.00     0.033 H 
BRANCH  76  79
ATOM     79  CBE E67 d   1       6.165  42.743  33.451  0.00  0.00    -0.043 C 
ATOM     80  H   E67 d   1       7.165  43.067  33.161  0.00  0.00     0.035 H 
ATOM     81  H   E67 d   1       5.521  43.622  33.423  0.00  0.00     0.035 H 
BRANCH  79  82
ATOM     82  CBF E67 d   1       5.645  41.657  32.487  0.00  0.00     0.080 C 
ATOM     83  H   E67 d   1       4.637  41.382  32.798  0.00  0.00     0.075 H 
ATOM     84  H   E67 d   1       6.332  40.812  32.525  0.00  0.00     0.075 H 
BRANCH  82  85
ATOM     85  NBG E67 d   1       5.582  42.128  31.111  0.00  0.00    -0.079 N 
ATOM     86  H   E67 d   1       5.234  41.379  30.512  0.00  0.00     0.274 HD
ATOM     87  H   E67 d   1       4.953  42.929  31.056  0.00  0.00     0.274 HD
ATOM     88  H   E67 d   1       6.515  42.404  30.805  0.00  0.00     0.274 HD
ENDBRANCH  82  85
ENDBRANCH  79  82
ENDBRANCH  76  79
ENDBRANCH  73  76
ENDBRANCH  70  73
ENDBRANCH  69  70
ENDBRANCH   7  69
TORSDOF 20
