REMARK  23 active torsions:
REMARK  status: ('A' for Active; 'I' for Inactive)
REMARK    1  A    between atoms: C2_2  and  NAU_21 
REMARK    2  A    between atoms: CAA_7  and  OAK_11 
REMARK    3  A    between atoms: CAB_8  and  OAL_12 
REMARK    4  A    between atoms: OAK_11  and  CBB_28 
REMARK    5  A    between atoms: OAL_12  and  CAM_13 
REMARK    6  A    between atoms: NAN_14  and  CAO_15 
REMARK    7  A    between atoms: NAR_18  and  CBH_34 
REMARK    8  A    between atoms: NAU_21  and  CAV_22 
REMARK    9  A    between atoms: CAV_22  and  CAW_23 
REMARK   10  A    between atoms: CAW_23  and  CAX_24 
REMARK   11  A    between atoms: CAX_24  and  NAY_25 
REMARK   12  A    between atoms: NAY_25  and  CAZ_26 
REMARK   13  A    between atoms: NAY_25  and  CBA_27 
REMARK   14  A    between atoms: CBB_28  and  CBC_29 
REMARK   15  A    between atoms: CBC_29  and  CBD_30 
REMARK   16  A    between atoms: CBD_30  and  CBE_31 
REMARK   17  A    between atoms: CBE_31  and  CBF_32 
REMARK   18  A    between atoms: CBF_32  and  NBG_33 
REMARK   19  A    between atoms: CBH_34  and  CBI_35 
REMARK   20  A    between atoms: CBI_35  and  CBJ_36 
REMARK   21  A    between atoms: CBJ_36  and  CBK_37 
REMARK   22  A    between atoms: CBK_37  and  CBL_38 
REMARK   23  A    between atoms: CBL_38  and  NBM_39 
ROOT
ATOM      1  N1  E72 d   1      15.197  42.144  37.518  0.00  0.00    -0.045 NA
ATOM      2  C2  E72 d   1      14.356  41.374  38.275  0.00  0.00     0.725 A 
ATOM      3  N3  E72 d   1      13.014  41.465  38.107  0.00  0.00    -0.062 NA
ATOM      4  C4  E72 d   1      12.476  42.331  37.208  0.00  0.00     0.092 A 
ATOM      5  C5  E72 d   1      13.332  43.158  36.417  0.00  0.00     0.042 A 
ATOM      6  C6  E72 d   1      14.721  43.028  36.589  0.00  0.00     0.155 A 
ATOM      7  CAA E72 d   1      10.515  43.403  36.175  0.00  0.00     0.104 A 
ATOM      8  CAB E72 d   1      11.373  44.224  35.384  0.00  0.00     0.102 A 
ATOM      9  CAC E72 d   1      12.784  44.095  35.512  0.00  0.00    -0.032 A 
ATOM     10  CAF E72 d   1      11.073  42.458  37.089  0.00  0.00    -0.019 A 
ATOM     11  NAN E72 d   1      15.557  43.779  35.852  0.00  0.00    -0.369 N 
ATOM     12  H   E72 d   1      13.444  44.720  34.911  0.00  0.00     0.089 H 
ATOM     13  H   E72 d   1      10.416  41.834  37.695  0.00  0.00     0.091 H 
ATOM     14  H   E72 d   1      15.165  44.413  35.156  0.00  0.00     0.161 HD
ENDROOT
BRANCH  11  15
ATOM     15  CAO E72 d   1      17.021  43.717  36.016  0.00  0.00     0.014 C 
ATOM     16  CAP E72 d   1      17.626  45.104  35.698  0.00  0.00    -0.021 C 
ATOM     17  CAQ E72 d   1      19.168  45.056  35.740  0.00  0.00     0.115 C 
ATOM     18  H   E72 d   1      17.277  45.818  36.444  0.00  0.00     0.038 H 
ATOM     19  H   E72 d   1      17.312  45.402  34.698  0.00  0.00     0.038 H 
ATOM     20  NAR E72 d   1      19.674  44.015  34.808  0.00  0.00     0.088 N 
ATOM     21  H   E72 d   1      19.490  44.815  36.753  0.00  0.00     0.080 H 
ATOM     22  H   E72 d   1      19.564  46.026  35.440  0.00  0.00     0.080 H 
ATOM     23  CAS E72 d   1      19.136  42.662  35.126  0.00  0.00     0.115 C 
ATOM     24  CAT E72 d   1      17.599  42.670  35.047  0.00  0.00    -0.021 C 
ATOM     25  H   E72 d   1      19.440  42.385  36.135  0.00  0.00     0.080 H 
ATOM     26  H   E72 d   1      19.527  41.944  34.405  0.00  0.00     0.080 H 
ATOM     27  H   E72 d   1      17.296  42.920  34.030  0.00  0.00     0.038 H 
ATOM     28  H   E72 d   1      17.223  41.684  35.322  0.00  0.00     0.038 H 
ATOM     29  H   E72 d   1      17.266  43.437  37.041  0.00  0.00     0.072 H 
BRANCH  20  30
ATOM     30  CBH E72 d   1      21.145  43.987  34.841  0.00  0.00     0.113 C 
ATOM     31  H   E72 d   1      21.477  43.222  35.543  0.00  0.00     0.079 H 
ATOM     32  H   E72 d   1      21.519  44.960  35.158  0.00  0.00     0.079 H 
BRANCH  30  33
ATOM     33  CBI E72 d   1      21.683  43.665  33.444  0.00  0.00    -0.040 C 
ATOM     34  H   E72 d   1      21.504  44.525  32.798  0.00  0.00     0.035 H 
ATOM     35  H   E72 d   1      21.174  42.775  33.075  0.00  0.00     0.035 H 
BRANCH  33  36
ATOM     36  CBJ E72 d   1      23.187  43.386  33.473  0.00  0.00    -0.062 C 
ATOM     37  H   E72 d   1      23.377  42.523  34.111  0.00  0.00     0.033 H 
ATOM     38  H   E72 d   1      23.704  44.264  33.861  0.00  0.00     0.033 H 
BRANCH  36  39
ATOM     39  CBK E72 d   1      23.698  43.087  32.063  0.00  0.00    -0.043 C 
ATOM     40  H   E72 d   1      23.506  43.955  31.433  0.00  0.00     0.035 H 
ATOM     41  H   E72 d   1      23.182  42.203  31.687  0.00  0.00     0.035 H 
BRANCH  39  42
ATOM     42  CBL E72 d   1      25.199  42.810  32.065  0.00  0.00     0.080 C 
ATOM     43  H   E72 d   1      25.411  41.943  32.690  0.00  0.00     0.075 H 
ATOM     44  H   E72 d   1      25.731  43.675  32.462  0.00  0.00     0.075 H 
BRANCH  42  45
ATOM     45  NBM E72 d   1      25.642  42.547  30.689  0.00  0.00    -0.079 N 
ATOM     46  H   E72 d   1      26.645  42.361  30.686  0.00  0.00     0.274 HD
ATOM     47  H   E72 d   1      25.144  41.736  30.322  0.00  0.00     0.274 HD
ATOM     48  H   E72 d   1      25.444  43.361  30.108  0.00  0.00     0.274 HD
ENDBRANCH  42  45
ENDBRANCH  39  42
ENDBRANCH  36  39
ENDBRANCH  33  36
ENDBRANCH  30  33
ENDBRANCH  20  30
ENDBRANCH  11  15
BRANCH   2  49
ATOM     49  NAU E72 d   1      14.844  40.565  39.231  0.00  0.00    -0.222 N 
ATOM     50  H   E72 d   1      14.206  39.953  39.739  0.00  0.00     0.177 HD
BRANCH  49  51
ATOM     51  CAV E72 d   1      16.288  40.543  39.563  0.00  0.00     0.011 C 
ATOM     52  H   E72 d   1      16.881  40.561  38.648  0.00  0.00     0.064 H 
ATOM     53  H   E72 d   1      16.530  39.634  40.114  0.00  0.00     0.064 H 
BRANCH  51  54
ATOM     54  CAW E72 d   1      16.609  41.776  40.420  0.00  0.00    -0.025 C 
ATOM     55  H   E72 d   1      15.796  41.907  41.134  0.00  0.00     0.037 H 
ATOM     56  H   E72 d   1      16.725  42.627  39.749  0.00  0.00     0.037 H 
BRANCH  54  57
ATOM     57  CAX E72 d   1      17.912  41.625  41.216  0.00  0.00     0.114 C 
ATOM     58  H   E72 d   1      18.317  42.620  41.400  0.00  0.00     0.079 H 
ATOM     59  H   E72 d   1      18.598  41.008  40.635  0.00  0.00     0.079 H 
BRANCH  57  60
ATOM     60  NAY E72 d   1      17.687  40.965  42.524  0.00  0.00     0.080 N 
BRANCH  60  61
ATOM     61  CAZ E72 d   1      16.714  41.708  43.354  0.00  0.00     0.095 C 
ATOM     62  H   E72 d   1      17.089  42.715  43.538  0.00  0.00     0.071 H 
ATOM     63  H   E72 d   1      15.760  41.765  42.830  0.00  0.00     0.071 H 
ATOM     64  H   E72 d   1      16.578  41.190  44.303  0.00  0.00     0.071 H 
ENDBRANCH  60  61
BRANCH  60  65
ATOM     65  CBA E72 d   1      18.971  40.900  43.239  0.00  0.00     0.095 C 
ATOM     66  H   E72 d   1      19.685  40.326  42.649  0.00  0.00     0.071 H 
ATOM     67  H   E72 d   1      19.352  41.910  43.391  0.00  0.00     0.071 H 
ATOM     68  H   E72 d   1      18.824  40.417  44.205  0.00  0.00     0.071 H 
ENDBRANCH  60  65
ENDBRANCH  57  60
ENDBRANCH  54  57
ENDBRANCH  51  54
ENDBRANCH  49  51
ENDBRANCH   2  49
BRANCH   8  69
ATOM     69  OAL E72 d   1      10.825  45.224  34.605  0.00  0.00    -0.353 OA
BRANCH  69  70
ATOM     70  CAM E72 d   1      11.305  45.180  33.248  0.00  0.00     0.010 C 
ATOM     71  H   E72 d   1      12.388  45.301  33.243  0.00  0.00     0.066 H 
ATOM     72  H   E72 d   1      11.043  44.220  32.802  0.00  0.00     0.066 H 
ATOM     73  H   E72 d   1      10.846  45.986  32.675  0.00  0.00     0.066 H 
ENDBRANCH  69  70
ENDBRANCH   8  69
BRANCH   7  74
ATOM     74  OAK E72 d   1       9.173  43.656  36.175  0.00  0.00    -0.348 OA
BRANCH  74  75
ATOM     75  CBB E72 d   1       8.384  42.522  35.790  0.00  0.00     0.026 C 
ATOM     76  H   E72 d   1       8.578  41.684  36.460  0.00  0.00     0.075 H 
ATOM     77  H   E72 d   1       8.641  42.212  34.777  0.00  0.00     0.075 H 
BRANCH  75  78
ATOM     78  CBC E72 d   1       6.911  42.923  35.861  0.00  0.00    -0.045 C 
ATOM     79  H   E72 d   1       6.826  43.964  35.549  0.00  0.00     0.036 H 
ATOM     80  H   E72 d   1       6.566  42.773  36.884  0.00  0.00     0.036 H 
BRANCH  78  81
ATOM     81  CBD E72 d   1       6.039  42.074  34.934  0.00  0.00    -0.062 C 
ATOM     82  H   E72 d   1       4.997  42.340  35.109  0.00  0.00     0.033 H 
ATOM     83  H   E72 d   1       6.235  41.024  35.150  0.00  0.00     0.033 H 
BRANCH  81  84
ATOM     84  CBE E72 d   1       6.355  42.326  33.459  0.00  0.00    -0.043 C 
ATOM     85  H   E72 d   1       7.436  42.369  33.327  0.00  0.00     0.035 H 
ATOM     86  H   E72 d   1       5.902  43.269  33.152  0.00  0.00     0.035 H 
BRANCH  84  87
ATOM     87  CBF E72 d   1       5.792  41.199  32.602  0.00  0.00     0.080 C 
ATOM     88  H   E72 d   1       4.703  41.231  32.630  0.00  0.00     0.075 H 
ATOM     89  H   E72 d   1       6.138  40.241  32.990  0.00  0.00     0.075 H 
BRANCH  87  90
ATOM     90  NBG E72 d   1       6.248  41.359  31.223  0.00  0.00    -0.079 N 
ATOM     91  H   E72 d   1       5.870  40.604  30.651  0.00  0.00     0.274 HD
ATOM     92  H   E72 d   1       5.924  42.256  30.861  0.00  0.00     0.274 HD
ATOM     93  H   E72 d   1       7.267  41.329  31.198  0.00  0.00     0.274 HD
ENDBRANCH  87  90
ENDBRANCH  84  87
ENDBRANCH  81  84
ENDBRANCH  78  81
ENDBRANCH  75  78
ENDBRANCH  74  75
ENDBRANCH   7  74
TORSDOF 23
