REMARK  3 active torsions:
REMARK  status: ('A' for Active; 'I' for Inactive)
REMARK    1  A    between atoms: C1_1  and  C2_4 
REMARK    2  A    between atoms: C2_4  and  C3_5 
REMARK    3  A    between atoms: C3_5  and  S_7 
ROOT
ATOM      1  C3  SPV d   1       0.371  -4.701   9.247  0.00  0.00     0.110 C 
ATOM      2  H1  SPV d   1      -0.464  -5.378   9.479  0.00  0.00     0.072 H 
ATOM      3  H2  SPV d   1       1.213  -4.912   9.922  0.00  0.00     0.072 H 
ENDROOT
BRANCH   1   4
ATOM      4  C2  SPV d   1      -0.116  -3.184   9.494  0.00  0.00     0.241 C 
ATOM      5  O2  SPV d   1      -1.348  -2.935   9.313  0.00  0.00    -0.285 OA
BRANCH   4   6
ATOM      6  C1  SPV d   1       0.805  -2.197   9.818  0.00  0.00     0.247 C 
ATOM      7  O1  SPV d   1       0.420  -1.016   9.932  0.00  0.00    -0.642 OA
ATOM      8  O2' SPV d   1       2.037  -2.526   9.995  0.00  0.00    -0.642 OA
ENDBRANCH   4   6
ENDBRANCH   1   4
BRANCH   1   9
ATOM      9  S   SPV d   1       0.892  -5.001   7.591  0.00  0.00     0.109 S 
ATOM     10  O1S SPV d   1       1.500  -6.273   7.676  0.00  0.00    -0.595 OA
ATOM     11  O2S SPV d   1       1.835  -3.953   7.249  0.00  0.00    -0.595 OA
ATOM     12  O3S SPV d   1      -0.324  -5.028   6.762  0.00  0.00    -0.595 OA
ENDBRANCH   1   9
TORSDOF 3
