REMARK  3 active torsions:
REMARK  status: ('A' for Active; 'I' for Inactive)
REMARK    1  A    between atoms: P_1  and  O1P_2 
REMARK    2  A    between atoms: O1P_2  and  C2_6 
REMARK    3  A    between atoms: C2_6  and  C1_7 
ROOT
ATOM      1  C2  PGA d   1      21.954   5.202   2.465  0.00  0.00     0.112 C 
ATOM      2  H1  PGA d   1      21.932   6.142   3.036  0.00  0.00     0.092 H 
ATOM      3  H2  PGA d   1      20.945   4.979   2.088  0.00  0.00     0.092 H 
ENDROOT
BRANCH   1   4
ATOM      4  O1P PGA d   1      22.385   4.155   3.301  0.00  0.00    -0.272 OA
BRANCH   4   5
ATOM      5  P   PGA d   1      21.304   3.083   3.854  0.00  0.00     0.422 P 
ATOM      6  O2P PGA d   1      20.235   3.895   4.570  0.00  0.00    -0.617 OA
ATOM      7  O3P PGA d   1      22.049   2.170   4.799  0.00  0.00    -0.617 OA
ATOM      8  O4P PGA d   1      20.598   2.394   2.694  0.00  0.00    -0.617 OA
ENDBRANCH   4   5
ENDBRANCH   1   4
BRANCH   1   9
ATOM      9  C1  PGA d   1      22.905   5.342   1.303  0.00  0.00     0.198 C 
ATOM     10  O1  PGA d   1      22.842   6.393   0.638  0.00  0.00    -0.646 OA
ATOM     11  O2  PGA d   1      23.724   4.430   0.979  0.00  0.00    -0.646 OA
ENDBRANCH   1   9
TORSDOF 3
