REMARK  29 active torsions:
REMARK  status: ('A' for Active; 'I' for Inactive)
REMARK    1  A    between atoms: N_1  and  CA_2 
REMARK    2  A    between atoms: CA_2  and  C_3 
REMARK    3  A    between atoms: CA_2  and  CB_5 
REMARK       I    between atoms: C_3  and  N_6 
REMARK    4  A    between atoms: N_6  and  CA_7 
REMARK    5  A    between atoms: CA_7  and  C_8 
REMARK    6  A    between atoms: CA_7  and  CB_10 
REMARK       I    between atoms: C_8  and  N_17 
REMARK    7  A    between atoms: CB_10  and  CG_11 
REMARK    8  A    between atoms: CG_11  and  CD_12 
REMARK    9  A    between atoms: CD_12  and  NE_13 
REMARK       I    between atoms: NE_13  and  CZ_14 
REMARK       I    between atoms: CZ_14  and  NH1_15 
REMARK   10  A    between atoms: N_17  and  CA_18 
REMARK   11  A    between atoms: CA_18  and  C_19 
REMARK   12  A    between atoms: CA_18  and  CB_21 
REMARK       I    between atoms: C_19  and  N_24 
REMARK   13  A    between atoms: CB_21  and  OG1_22 
REMARK   14  A    between atoms: CB_21  and  CG2_23 
REMARK   15  A    between atoms: N_24  and  CA_25 
REMARK   16  A    between atoms: CA_25  and  CB_26 
REMARK   17  A    between atoms: CA_25  and  C_31 
REMARK   18  A    between atoms: CB_26  and  CG_27 
REMARK   19  A    between atoms: CG_27  and  CD_28 
REMARK   20  A    between atoms: CD_28  and  CE_29 
REMARK   21  A    between atoms: CE_29  and  NZ_30 
REMARK   22  A    between atoms: NZ_30  and  CM1_33 
REMARK   23  A    between atoms: NZ_30  and  CM2_34 
REMARK   24  A    between atoms: NZ_30  and  CM3_35 
REMARK       I    between atoms: C_31  and  N_36 
REMARK   25  A    between atoms: N_36  and  CA_37 
REMARK   26  A    between atoms: CA_37  and  C_38 
REMARK   27  A    between atoms: CA_37  and  CB_40 
REMARK   28  A    between atoms: CB_40  and  CG_41 
REMARK   29  A    between atoms: CG_41  and  CD_42 
REMARK       I    between atoms: CD_42  and  NE2_44 
ROOT
ATOM      1  C   THR d   1     -14.588  10.557  31.955  0.00  0.00     0.243 C 
ATOM      2  O   THR d   1     -14.284  11.740  32.148  0.00  0.00    -0.271 OA
ATOM      3  N   M3L d   1     -15.728  10.016  32.380  0.00  0.00    -0.346 N 
ATOM      4  H   M3L d   1     -15.896   9.028  32.192  0.00  0.00     0.163 HD
ENDROOT
BRANCH   1   5
ATOM      5  CA  THR d   1     -13.663   9.594  31.202  0.00  0.00     0.113 C 
ATOM      6  H   THR d   1     -14.201   9.295  30.303  0.00  0.00     0.091 H 
BRANCH   5   7
ATOM      7  N   THR d   1     -12.428  10.157  30.650  0.00  0.00    -0.344 N 
ATOM      8  C   ARG d   1     -12.240  10.187  29.330  0.00  0.00     0.241 C 
ATOM      9  O   ARG d   1     -13.085   9.781  28.534  0.00  0.00    -0.271 OA
ATOM     10  H   THR d   1     -11.712  10.526  31.276  0.00  0.00     0.163 HD
BRANCH   8  11
ATOM     11  CA  ARG d   1     -10.928  10.758  28.814  0.00  0.00     0.089 C 
ATOM     12  H   ARG d   1     -10.217  10.878  29.631  0.00  0.00     0.087 H 
BRANCH  11  13
ATOM     13  N   ARG d   1     -10.427   9.837  27.806  0.00  0.00    -0.346 N 
ATOM     14  C   ALA d   1      -9.545   8.884  28.076  0.00  0.00     0.248 C 
ATOM     15  O   ALA d   1      -9.057   8.706  29.197  0.00  0.00    -0.271 OA
ATOM     16  H   ARG d   1     -10.769   9.928  26.849  0.00  0.00     0.163 HD
BRANCH  14  17
ATOM     17  CA  ALA d   1      -9.143   7.998  26.904  0.00  0.00     0.172 C 
ATOM     18  H   ALA d   1      -9.107   8.594  25.992  0.00  0.00     0.098 H 
BRANCH  17  19
ATOM     19  N   ALA d   1      -7.792   7.420  27.163  0.00  0.00    -0.067 N 
ATOM     20  H   ALA d   1      -7.118   8.176  27.288  0.00  0.00     0.275 HD
ATOM     21  H   ALA d   1      -7.824   6.849  28.008  0.00  0.00     0.275 HD
ATOM     22  H   ALA d   1      -7.513   6.842  26.370  0.00  0.00     0.275 HD
ENDBRANCH  17  19
BRANCH  17  23
ATOM     23  CB  ALA d   1     -10.181   6.875  26.712  0.00  0.00    -0.042 C 
ATOM     24  H   ALA d   1     -10.233   6.271  27.618  0.00  0.00     0.030 H 
ATOM     25  H   ALA d   1     -11.158   7.315  26.511  0.00  0.00     0.030 H 
ATOM     26  H   ALA d   1      -9.884   6.247  25.872  0.00  0.00     0.030 H 
ENDBRANCH  17  23
ENDBRANCH  14  17
ENDBRANCH  11  13
BRANCH  11  27
ATOM     27  CB  ARG d   1     -11.162  12.128  28.176  0.00  0.00    -0.036 C 
ATOM     28  H   ARG d   1     -11.836  12.676  28.834  0.00  0.00     0.036 H 
ATOM     29  H   ARG d   1     -11.554  11.951  27.174  0.00  0.00     0.036 H 
BRANCH  27  30
ATOM     30  CG  ARG d   1      -9.901  12.977  28.020  0.00  0.00    -0.048 C 
ATOM     31  H   ARG d   1      -9.952  13.532  27.083  0.00  0.00     0.035 H 
ATOM     32  H   ARG d   1      -9.026  12.327  28.014  0.00  0.00     0.035 H 
BRANCH  30  33
ATOM     33  CD  ARG d   1      -9.795  13.956  29.182  0.00  0.00     0.009 C 
ATOM     34  H   ARG d   1      -9.597  13.378  30.085  0.00  0.00     0.064 H 
ATOM     35  H   ARG d   1     -10.729  14.516  29.229  0.00  0.00     0.064 H 
BRANCH  33  36
ATOM     36  NE  ARG d   1      -8.709  14.917  29.024  0.00  0.00    -0.227 N 
ATOM     37  CZ  ARG d   1      -8.432  15.869  29.912  0.00  0.00     0.665 C 
ATOM     38  NH1 ARG d   1      -9.165  15.976  31.018  0.00  0.00    -0.235 N 
ATOM     39  NH2 ARG d   1      -7.431  16.717  29.693  0.00  0.00    -0.235 N 
ATOM     40  H   ARG d   1      -9.937  15.329  31.183  0.00  0.00     0.174 HD
ATOM     41  H   ARG d   1      -8.955  16.704  31.700  0.00  0.00     0.174 HD
ATOM     42  H   ARG d   1      -6.873  16.639  28.843  0.00  0.00     0.174 HD
ATOM     43  H   ARG d   1      -7.221  17.445  30.375  0.00  0.00     0.174 HD
ATOM     44  H   ARG d   1      -8.130  14.856  28.187  0.00  0.00     0.177 HD
ENDBRANCH  33  36
ENDBRANCH  30  33
ENDBRANCH  27  30
ENDBRANCH  11  27
ENDBRANCH   8  11
ENDBRANCH   5   7
BRANCH   5  45
ATOM     45  CB  THR d   1     -13.366   8.392  32.143  0.00  0.00     0.060 C 
ATOM     46  H   THR d   1     -14.308   7.898  32.381  0.00  0.00     0.086 H 
BRANCH  45  47
ATOM     47  OG1 THR d   1     -12.751   8.859  33.352  0.00  0.00    -0.393 OA
ATOM     48  H   THR d   1     -12.571   8.112  33.927  0.00  0.00     0.210 HD
ENDBRANCH  45  47
BRANCH  45  49
ATOM     49  CG2 THR d   1     -12.440   7.385  31.453  0.00  0.00    -0.050 C 
ATOM     50  H   THR d   1     -12.919   7.015  30.546  0.00  0.00     0.031 H 
ATOM     51  H   THR d   1     -11.501   7.874  31.196  0.00  0.00     0.031 H 
ATOM     52  H   THR d   1     -12.244   6.552  32.128  0.00  0.00     0.031 H 
ENDBRANCH  45  49
ENDBRANCH   5  45
ENDBRANCH   1   5
BRANCH   3  53
ATOM     53  CA  M3L d   1     -16.746  10.767  33.100  0.00  0.00     0.089 C 
ATOM     54  H   M3L d   1     -16.798  11.767  32.670  0.00  0.00     0.087 H 
BRANCH  53  55
ATOM     55  CB  M3L d   1     -18.091  10.047  32.954  0.00  0.00    -0.038 C 
ATOM     56  H   M3L d   1     -17.999   9.099  33.484  0.00  0.00     0.036 H 
ATOM     57  H   M3L d   1     -18.287   9.961  31.885  0.00  0.00     0.036 H 
BRANCH  55  58
ATOM     58  CG  M3L d   1     -19.273  10.770  33.557  0.00  0.00    -0.061 C 
ATOM     59  H   M3L d   1     -19.677  11.459  32.815  0.00  0.00     0.033 H 
ATOM     60  H   M3L d   1     -18.939  11.305  34.446  0.00  0.00     0.033 H 
BRANCH  58  61
ATOM     61  CD  M3L d   1     -20.364   9.791  33.958  0.00  0.00    -0.042 C 
ATOM     62  H   M3L d   1     -21.145  10.357  34.466  0.00  0.00     0.035 H 
ATOM     63  H   M3L d   1     -19.907   9.027  34.588  0.00  0.00     0.035 H 
BRANCH  61  64
ATOM     64  CE  M3L d   1     -21.010   9.080  32.759  0.00  0.00     0.084 C 
ATOM     65  H   M3L d   1     -20.236   8.606  32.156  0.00  0.00     0.076 H 
ATOM     66  H   M3L d   1     -21.547   9.807  32.150  0.00  0.00     0.076 H 
BRANCH  64  67
ATOM     67  NZ  M3L d   1     -21.952   8.053  33.249  0.00  0.00    -0.079 N 
BRANCH  67  68
ATOM     68  CM1 M3L d   1     -22.966   8.697  34.147  0.00  0.00     0.067 C 
ATOM     69  H   M3L d   1     -22.458   9.160  34.993  0.00  0.00     0.068 H 
ATOM     70  H   M3L d   1     -23.513   9.457  33.589  0.00  0.00     0.068 H 
ATOM     71  H   M3L d   1     -23.662   7.940  34.509  0.00  0.00     0.068 H 
ENDBRANCH  67  68
BRANCH  67  72
ATOM     72  CM2 M3L d   1     -21.167   7.034  33.978  0.00  0.00     0.067 C 
ATOM     73  H   M3L d   1     -20.437   6.588  33.303  0.00  0.00     0.068 H 
ATOM     74  H   M3L d   1     -20.650   7.505  34.814  0.00  0.00     0.068 H 
ATOM     75  H   M3L d   1     -21.837   6.260  34.353  0.00  0.00     0.068 H 
ENDBRANCH  67  72
BRANCH  67  76
ATOM     76  CM3 M3L d   1     -22.719   7.286  32.243  0.00  0.00     0.067 C 
ATOM     77  H   M3L d   1     -23.325   7.971  31.650  0.00  0.00     0.068 H 
ATOM     78  H   M3L d   1     -22.028   6.753  31.590  0.00  0.00     0.068 H 
ATOM     79  H   M3L d   1     -23.367   6.571  32.750  0.00  0.00     0.068 H 
ENDBRANCH  67  76
ENDBRANCH  64  67
ENDBRANCH  61  64
ENDBRANCH  58  61
ENDBRANCH  55  58
ENDBRANCH  53  55
BRANCH  53  80
ATOM     80  C   M3L d   1     -16.403  10.928  34.586  0.00  0.00     0.241 C 
ATOM     81  O   M3L d   1     -15.556  10.207  35.127  0.00  0.00    -0.271 OA
ATOM     82  N   GLN d   1     -17.086  11.874  35.233  0.00  0.00    -0.345 N 
ATOM     83  H   GLN d   1     -17.773  12.412  34.705  0.00  0.00     0.163 HD
BRANCH  82  84
ATOM     84  CA  GLN d   1     -16.912  12.190  36.657  0.00  0.00     0.096 C 
ATOM     85  H   GLN d   1     -17.736  12.838  36.954  0.00  0.00     0.089 H 
BRANCH  84  86
ATOM     86  C   GLN d   1     -15.588  12.924  36.889  0.00  0.00     0.196 C 
ATOM     87  O   GLN d   1     -15.332  13.884  36.130  0.00  0.00    -0.646 OA
ATOM     88  O1  GLN d   1     -14.793  12.576  37.803  0.00  0.00    -0.646 OA
ENDBRANCH  84  86
BRANCH  84  89
ATOM     89  CB  GLN d   1     -16.955  10.914  37.518  0.00  0.00    -0.029 C 
ATOM     90  H   GLN d   1     -15.980  10.434  37.432  0.00  0.00     0.037 H 
ATOM     91  H   GLN d   1     -17.784  10.307  37.154  0.00  0.00     0.037 H 
BRANCH  89  92
ATOM     92  CG  GLN d   1     -17.203  11.172  39.007  0.00  0.00     0.011 C 
ATOM     93  H   GLN d   1     -18.246  10.932  39.212  0.00  0.00     0.047 H 
ATOM     94  H   GLN d   1     -16.949  12.213  39.206  0.00  0.00     0.047 H 
BRANCH  92  95
ATOM     95  CD  GLN d   1     -16.341  10.303  39.930  0.00  0.00     0.215 C 
ATOM     96  OE1 GLN d   1     -15.803   9.266  39.515  0.00  0.00    -0.274 OA
ATOM     97  NE2 GLN d   1     -16.218  10.719  41.198  0.00  0.00    -0.370 N 
ATOM     98  H   GLN d   1     -15.665  10.176  41.861  0.00  0.00     0.159 HD
ATOM     99  H   GLN d   1     -16.677  11.579  41.500  0.00  0.00     0.159 HD
ENDBRANCH  92  95
ENDBRANCH  89  92
ENDBRANCH  84  89
ENDBRANCH  82  84
ENDBRANCH  53  80
ENDBRANCH   3  53
TORSDOF 29
