REMARK  23 active torsions:
REMARK  status: ('A' for Active; 'I' for Inactive)
REMARK    1  A    between atoms: N_1  and  CA_2 
REMARK    2  A    between atoms: CA_2  and  C_3 
REMARK    3  A    between atoms: CA_2  and  CB_5 
REMARK       I    between atoms: C_3  and  N_6 
REMARK    4  A    between atoms: N_6  and  CA_7 
REMARK    5  A    between atoms: CA_7  and  C_8 
REMARK    6  A    between atoms: CA_7  and  CB_10 
REMARK       I    between atoms: C_8  and  N_17 
REMARK    7  A    between atoms: CB_10  and  CG_11 
REMARK    8  A    between atoms: CG_11  and  CD_12 
REMARK    9  A    between atoms: CD_12  and  NE_13 
REMARK       I    between atoms: NE_13  and  CZ_14 
REMARK       I    between atoms: CZ_14  and  NH1_15 
REMARK   10  A    between atoms: N_17  and  CA_18 
REMARK   11  A    between atoms: CA_18  and  C_19 
REMARK   12  A    between atoms: CA_18  and  CB_21 
REMARK       I    between atoms: C_19  and  N_24 
REMARK   13  A    between atoms: CB_21  and  OG1_22 
REMARK   14  A    between atoms: CB_21  and  CG2_23 
REMARK   15  A    between atoms: N_24  and  CA_25 
REMARK   16  A    between atoms: CA_25  and  CB_26 
REMARK   17  A    between atoms: CA_25  and  C_33 
REMARK   18  A    between atoms: CB_26  and  CG_27 
REMARK   19  A    between atoms: CG_27  and  CD_28 
REMARK   20  A    between atoms: CD_28  and  CE_29 
REMARK   21  A    between atoms: CE_29  and  NZ_30 
REMARK   22  A    between atoms: NZ_30  and  CH1_31 
REMARK   23  A    between atoms: NZ_30  and  CH2_32 
ROOT
ATOM      1  CA  THR d   1     -37.006  10.219 -30.808  0.00  0.00     0.113 C 
ATOM      2  H22 THR d   1     -36.387   9.731 -30.041  0.00  0.00     0.091 H 
ENDROOT
BRANCH   1   3
ATOM      3  N   THR d   1     -38.122  10.886 -30.112  0.00  0.00    -0.344 N 
ATOM      4  C   ARG d   1     -38.290  10.798 -28.791  0.00  0.00     0.241 C 
ATOM      5  O   ARG d   1     -37.495  10.211 -28.052  0.00  0.00    -0.271 OA
ATOM      6  H21 THR d   1     -38.775  11.422 -30.648  0.00  0.00     0.163 HD
BRANCH   4   7
ATOM      7  CA  ARG d   1     -39.539  11.448 -28.209  0.00  0.00     0.089 C 
ATOM      8  H9  ARG d   1     -40.266  11.631 -29.014  0.00  0.00     0.087 H 
BRANCH   7   9
ATOM      9  N   ARG d   1     -40.115  10.518 -27.240  0.00  0.00    -0.346 N 
ATOM     10  C   ALA d   1     -40.836   9.478 -27.645  0.00  0.00     0.248 C 
ATOM     11  O   ALA d   1     -41.231   9.348 -28.804  0.00  0.00    -0.271 OA
ATOM     12  H8  ARG d   1     -39.965  10.666 -26.262  0.00  0.00     0.163 HD
BRANCH  10  13
ATOM     13  CA  ALA d   1     -41.203   8.444 -26.589  0.00  0.00     0.172 C 
ATOM     14  H4  ALA d   1     -41.523   8.976 -25.681  0.00  0.00     0.098 H 
BRANCH  13  15
ATOM     15  N   ALA d   1     -42.332   7.590 -27.059  0.00  0.00    -0.067 N 
ATOM     16  H1  ALA d   1     -42.560   6.913 -26.348  0.00  0.00     0.275 HD
ATOM     17  H2  ALA d   1     -42.062   7.111 -27.904  0.00  0.00     0.275 HD
ATOM     18  H3  ALA d   1     -43.137   8.168 -27.243  0.00  0.00     0.275 HD
ENDBRANCH  13  15
BRANCH  13  19
ATOM     19  CB  ALA d   1     -39.998   7.574 -26.238  0.00  0.00    -0.042 C 
ATOM     20  H5  ALA d   1     -39.172   8.213 -25.893  0.00  0.00     0.030 H 
ATOM     21  H6  ALA d   1     -39.679   7.012 -27.128  0.00  0.00     0.030 H 
ATOM     22  H7  ALA d   1     -40.274   6.870 -25.440  0.00  0.00     0.030 H 
ENDBRANCH  13  19
ENDBRANCH  10  13
ENDBRANCH   7   9
BRANCH   7  23
ATOM     23  CB  ARG d   1     -39.189  12.780 -27.551  0.00  0.00    -0.036 C 
ATOM     24  H10 ARG d   1     -38.739  13.432 -28.314  0.00  0.00     0.036 H 
ATOM     25  H11 ARG d   1     -38.455  12.588 -26.755  0.00  0.00     0.036 H 
BRANCH  23  26
ATOM     26  CG  ARG d   1     -40.373  13.511 -26.939  0.00  0.00    -0.048 C 
ATOM     27  H12 ARG d   1     -40.702  12.980 -26.034  0.00  0.00     0.035 H 
ATOM     28  H13 ARG d   1     -41.198  13.542 -27.666  0.00  0.00     0.035 H 
BRANCH  26  29
ATOM     29  CD  ARG d   1     -39.970  14.929 -26.573  0.00  0.00     0.009 C 
ATOM     30  H14 ARG d   1     -39.624  15.448 -27.479  0.00  0.00     0.064 H 
ATOM     31  H15 ARG d   1     -39.153  14.890 -25.838  0.00  0.00     0.064 H 
BRANCH  29  32
ATOM     32  NE  ARG d   1     -41.090  15.670 -26.000  0.00  0.00    -0.227 N 
ATOM     33  CZ  ARG d   1     -42.004  16.334 -26.706  0.00  0.00     0.665 C 
ATOM     34  NH1 ARG d   1     -41.949  16.371 -28.035  0.00  0.00    -0.235 N 
ATOM     35  NH2 ARG d   1     -42.980  16.967 -26.076  0.00  0.00    -0.235 N 
ATOM     36  H17 ARG d   1     -42.664  16.889 -28.566  0.00  0.00     0.174 HD
ATOM     37  H18 ARG d   1     -41.192  15.882 -28.533  0.00  0.00     0.174 HD
ATOM     38  H19 ARG d   1     -43.030  16.943 -25.047  0.00  0.00     0.174 HD
ATOM     39  H20 ARG d   1     -43.690  17.484 -26.614  0.00  0.00     0.174 HD
ATOM     40  H16 ARG d   1     -41.180  15.680 -24.974  0.00  0.00     0.177 HD
ENDBRANCH  29  32
ENDBRANCH  26  29
ENDBRANCH  23  26
ENDBRANCH   7  23
ENDBRANCH   4   7
ENDBRANCH   1   3
BRANCH   1  41
ATOM     41  C   THR d   1     -36.108  11.182 -31.597  0.00  0.00     0.243 C 
ATOM     42  O   THR d   1     -36.425  12.367 -31.725  0.00  0.00    -0.271 OA
ATOM     43  N   MLY d   1     -34.832  10.613 -32.034  0.00  0.00    -0.345 N 
ATOM     44  H28 MLY d   1     -34.584   9.676 -31.787  0.00  0.00     0.163 HD
BRANCH  43  45
ATOM     45  CA  MLY d   1     -33.921  11.437 -32.841  0.00  0.00     0.096 C 
ATOM     46  H29 MLY d   1     -34.167  12.500 -32.700  0.00  0.00     0.089 H 
BRANCH  45  47
ATOM     47  CB  MLY d   1     -32.478  11.185 -32.399  0.00  0.00    -0.037 C 
ATOM     48  H30 MLY d   1     -32.484  10.695 -31.414  0.00  0.00     0.036 H 
ATOM     49  H31 MLY d   1     -31.951  12.148 -32.327  0.00  0.00     0.036 H 
BRANCH  47  50
ATOM     50  CG  MLY d   1     -31.746  10.288 -33.399  0.00  0.00    -0.061 C 
ATOM     51  H32 MLY d   1     -31.364  10.907 -34.224  0.00  0.00     0.033 H 
ATOM     52  H33 MLY d   1     -32.450   9.542 -33.795  0.00  0.00     0.033 H 
BRANCH  50  53
ATOM     53  CD  MLY d   1     -30.574   9.565 -32.732  0.00  0.00    -0.042 C 
ATOM     54  H34 MLY d   1     -30.910   8.575 -32.389  0.00  0.00     0.035 H 
ATOM     55  H35 MLY d   1     -30.231  10.155 -31.869  0.00  0.00     0.035 H 
BRANCH  53  56
ATOM     56  CE  MLY d   1     -29.411   9.387 -33.710  0.00  0.00     0.083 C 
ATOM     57  H36 MLY d   1     -28.738  10.255 -33.641  0.00  0.00     0.075 H 
ATOM     58  H37 MLY d   1     -29.803   9.307 -34.735  0.00  0.00     0.075 H 
BRANCH  56  59
ATOM     59  NZ  MLY d   1     -28.669   8.164 -33.373  0.00  0.00    -0.079 N 
ATOM     60  H38 MLY d   1     -27.916   8.036 -34.031  0.00  0.00     0.278 HD
BRANCH  59  61
ATOM     61  CH1 MLY d   1     -29.574   7.008 -33.434  0.00  0.00     0.066 C 
ATOM     62  H39 MLY d   1     -29.018   6.093 -33.182  0.00  0.00     0.068 H 
ATOM     63  H40 MLY d   1     -29.986   6.918 -34.450  0.00  0.00     0.068 H 
ATOM     64  H41 MLY d   1     -30.396   7.147 -32.716  0.00  0.00     0.068 H 
ENDBRANCH  59  61
BRANCH  59  65
ATOM     65  CH2 MLY d   1     -28.117   8.284 -32.016  0.00  0.00     0.066 C 
ATOM     66  H42 MLY d   1     -27.440   9.149 -31.971  0.00  0.00     0.068 H 
ATOM     67  H43 MLY d   1     -27.560   7.369 -31.764  0.00  0.00     0.068 H 
ATOM     68  H44 MLY d   1     -28.938   8.423 -31.297  0.00  0.00     0.068 H 
ENDBRANCH  59  65
ENDBRANCH  56  59
ENDBRANCH  53  56
ENDBRANCH  50  53
ENDBRANCH  47  50
ENDBRANCH  45  47
BRANCH  45  69
ATOM     69  C   MLY d   1     -34.074  11.070 -34.319  0.00  0.00     0.196 C 
ATOM     70  O   MLY d   1     -35.142  10.649 -34.760  0.00  0.00    -0.646 OA
ATOM     71  O1  MLY d   1     -33.091  11.201 -35.096  0.00  0.00    -0.646 OA
ENDBRANCH  45  69
ENDBRANCH  43  45
ENDBRANCH   1  41
BRANCH   1  72
ATOM     72  CB  THR d   1     -37.521   9.140 -31.776  0.00  0.00     0.060 C 
ATOM     73  H23 THR d   1     -36.661   8.676 -32.282  0.00  0.00     0.086 H 
BRANCH  72  74
ATOM     74  OG1 THR d   1     -38.370   9.750 -32.758  0.00  0.00    -0.393 OA
ATOM     75  H24 THR d   1     -38.689   9.085 -33.356  0.00  0.00     0.210 HD
ENDBRANCH  72  74
BRANCH  72  76
ATOM     76  CG2 THR d   1     -38.284   8.070 -31.033  0.00  0.00    -0.050 C 
ATOM     77  H25 THR d   1     -38.641   7.312 -31.746  0.00  0.00     0.031 H 
ATOM     78  H26 THR d   1     -39.144   8.523 -30.519  0.00  0.00     0.031 H 
ATOM     79  H27 THR d   1     -37.623   7.595 -30.293  0.00  0.00     0.031 H 
ENDBRANCH  72  76
ENDBRANCH   1  72
TORSDOF 23
