REMARK  6 active torsions:
REMARK  status: ('A' for Active; 'I' for Inactive)
REMARK    1  A    between atoms: C5_4  and  C27_18 
REMARK    2  A    between atoms: C10_8  and  C15_11 
REMARK    3  A    between atoms: C11_9  and  N12_10 
REMARK    4  A    between atoms: C20_14  and  O25_17 
REMARK    5  A    between atoms: C30_20  and  N37_24 
REMARK    6  A    between atoms: N44_27  and  C51_30 
ROOT
ATOM      1  C27 5LK d   1      26.236  12.972  51.399  0.00  0.00    -0.019 A 
ATOM      2  C28 5LK d   1      27.535  13.358  51.002  0.00  0.00    -0.051 A 
ATOM      3  C30 5LK d   1      27.968  14.693  51.092  0.00  0.00     0.011 A 
ATOM      4  C31 5LK d   1      27.066  15.643  51.583  0.00  0.00    -0.062 A 
ATOM      5  C33 5LK d   1      25.778  15.294  51.994  0.00  0.00    -0.080 A 
ATOM      6  C35 5LK d   1      25.365  13.953  51.901  0.00  0.00    -0.072 A 
ATOM      7  H11 5LK d   1      28.215  12.607  50.618  0.00  0.00     0.087 H 
ATOM      8  H12 5LK d   1      27.376  16.680  51.646  0.00  0.00     0.086 H 
ATOM      9  H13 5LK d   1      25.103  16.049  52.381  0.00  0.00     0.083 H 
ATOM     10  H14 5LK d   1      24.367  13.674  52.219  0.00  0.00     0.084 H 
ENDROOT
BRANCH   1  11
ATOM     11  C5  5LK d   1      25.818  11.515  51.321  0.00  0.00     0.039 A 
ATOM     12  C3  5LK d   1      26.637  10.395  50.815  0.00  0.00     0.009 A 
ATOM     13  N2  5LK d   1      25.915   9.354  50.936  0.00  0.00    -0.301 N 
ATOM     14  H2  5LK d   1      27.650  10.449  50.420  0.00  0.00     0.115 H 
ATOM     15  N1  5LK d   1      24.687   9.650  51.449  0.00  0.00    -0.221 N 
ATOM     16  H1  5LK d   1      26.221   8.405  50.678  0.00  0.00     0.186 HD
ATOM     17  C6  5LK d   1      24.663  10.932  51.714  0.00  0.00     0.163 A 
ATOM     18  C11 5LK d   1      23.727   8.831  51.792  0.00  0.00     0.135 C 
ATOM     19  N7  5LK d   1      23.491  11.530  52.312  0.00  0.00    -0.240 NA
ATOM     20  C8  5LK d   1      22.531  10.791  52.729  0.00  0.00     0.019 C 
ATOM     21  C10 5LK d   1      22.664   9.329  52.482  0.00  0.00     0.037 C 
ATOM     22  H3  5LK d   1      21.668  11.208  53.235  0.00  0.00     0.116 H 
BRANCH  21  23
ATOM     23  C15 5LK d   1      21.535   8.495  53.014  0.00  0.00    -0.021 A 
ATOM     24  C16 5LK d   1      21.824   7.823  54.223  0.00  0.00    -0.070 A 
ATOM     25  C18 5LK d   1      20.858   7.021  54.815  0.00  0.00    -0.050 A 
ATOM     26  H6  5LK d   1      22.797   7.934  54.687  0.00  0.00     0.085 H 
ATOM     27  C20 5LK d   1      19.596   6.917  54.209  0.00  0.00     0.065 A 
ATOM     28  H7  5LK d   1      21.075   6.483  55.731  0.00  0.00     0.087 H 
ATOM     29  C21 5LK d   1      19.296   7.600  53.005  0.00  0.00    -0.050 A 
ATOM     30  C23 5LK d   1      20.279   8.391  52.402  0.00  0.00    -0.070 A 
ATOM     31  H8  5LK d   1      18.314   7.510  52.555  0.00  0.00     0.087 H 
ATOM     32  H9  5LK d   1      20.073   8.915  51.476  0.00  0.00     0.085 H 
BRANCH  27  33
ATOM     33  O25 5LK d   1      18.644   6.116  54.822  0.00  0.00    -0.361 OA
ATOM     34  H10 5LK d   1      17.885   6.642  55.045  0.00  0.00     0.217 HD
ENDBRANCH  27  33
ENDBRANCH  21  23
BRANCH  18  35
ATOM     35  N12 5LK d   1      23.955   7.555  51.515  0.00  0.00    -0.383 N 
ATOM     36  H4  5LK d   1      23.250   6.843  51.752  0.00  0.00     0.157 HD
ATOM     37  H5  5LK d   1      24.837   7.276  51.063  0.00  0.00     0.157 HD
ENDBRANCH  18  35
ENDBRANCH   1  11
BRANCH   3  38
ATOM     38  N37 5LK d   1      29.281  15.113  50.672  0.00  0.00    -0.280 NA
ATOM     39  C38 5LK d   1      30.327  14.069  50.590  0.00  0.00     0.006 C 
ATOM     40  C41 5LK d   1      31.738  14.679  50.325  0.00  0.00     0.094 C 
ATOM     41  H15 5LK d   1      30.078  13.380  49.770  0.00  0.00     0.058 H 
ATOM     42  H16 5LK d   1      30.352  13.515  51.540  0.00  0.00     0.058 H 
ATOM     43  N44 5LK d   1      31.745  15.504  49.086  0.00  0.00    -0.073 N 
ATOM     44  H17 5LK d   1      32.467  13.863  50.216  0.00  0.00     0.077 H 
ATOM     45  H18 5LK d   1      32.021  15.312  51.179  0.00  0.00     0.077 H 
ATOM     46  C45 5LK d   1      30.721  16.576  49.124  0.00  0.00     0.094 C 
ATOM     47  H19 5LK d   1      31.492  14.895  48.323  0.00  0.00     0.279 HD
ATOM     48  C48 5LK d   1      29.323  15.991  49.472  0.00  0.00     0.006 C 
ATOM     49  H20 5LK d   1      30.673  17.064  48.139  0.00  0.00     0.077 H 
ATOM     50  H21 5LK d   1      31.002  17.317  49.887  0.00  0.00     0.077 H 
ATOM     51  H22 5LK d   1      28.636  16.833  49.643  0.00  0.00     0.058 H 
ATOM     52  H23 5LK d   1      28.976  15.404  48.609  0.00  0.00     0.058 H 
BRANCH  43  53
ATOM     53  C51 5LK d   1      33.121  16.000  48.802  0.00  0.00     0.066 C 
ATOM     54  H24 5LK d   1      33.821  15.152  48.790  0.00  0.00     0.068 H 
ATOM     55  H25 5LK d   1      33.422  16.713  49.584  0.00  0.00     0.068 H 
ATOM     56  H26 5LK d   1      33.135  16.501  47.823  0.00  0.00     0.068 H 
ENDBRANCH  43  53
ENDBRANCH   3  38
TORSDOF 6
