REMARK  6 active torsions:
REMARK  status: ('A' for Active; 'I' for Inactive)
REMARK    1  A    between atoms: C1_1  and  C2_2 
REMARK    2  A    between atoms: C7_7  and  C8_8 
REMARK    3  A    between atoms: C8_8  and  C10_10 
REMARK    4  A    between atoms: C13_13  and  C15_15 
REMARK       I    between atoms: C15_15  and  N17_17 
REMARK    5  A    between atoms: N17_17  and  C18_18 
REMARK    6  A    between atoms: C18_18  and  C19_19 
ROOT
ATOM      1  C10 1GK d   1      42.953  31.420  31.604  0.00  0.00     0.033 A 
ATOM      2  C11 1GK d   1      42.319  32.562  32.019  0.00  0.00    -0.009 A 
ATOM      3  N12 1GK d   1      43.265  33.467  32.396  0.00  0.00    -0.361 N 
ATOM      4  C13 1GK d   1      44.519  32.963  32.250  0.00  0.00     0.101 A 
ATOM      5  C14 1GK d   1      44.344  31.683  31.750  0.00  0.00    -0.037 A 
ATOM      6  H8  1GK d   1      41.242  32.719  32.043  0.00  0.00     0.112 H 
ATOM      7  H9  1GK d   1      43.057  34.413  32.747  0.00  0.00     0.165 HD
ATOM      8  H10 1GK d   1      45.145  30.987  31.507  0.00  0.00     0.088 H 
ENDROOT
BRANCH   1   9
ATOM      9  C8  1GK d   1      42.263  30.240  31.138  0.00  0.00     0.194 C 
ATOM     10  O9  1GK d   1      42.854  29.208  30.874  0.00  0.00    -0.287 OA
BRANCH   9  11
ATOM     11  C7  1GK d   1      40.781  30.305  31.037  0.00  0.00     0.021 A 
ATOM     12  C2  1GK d   1      40.008  29.840  32.083  0.00  0.00    -0.048 A 
ATOM     13  C3  1GK d   1      38.627  29.901  32.004  0.00  0.00    -0.076 A 
ATOM     14  C4  1GK d   1      38.020  30.436  30.892  0.00  0.00    -0.082 A 
ATOM     15  H4  1GK d   1      38.022  29.526  32.822  0.00  0.00     0.084 H 
ATOM     16  C5  1GK d   1      38.797  30.895  29.854  0.00  0.00    -0.082 A 
ATOM     17  H5  1GK d   1      36.939  30.495  30.834  0.00  0.00     0.083 H 
ATOM     18  C6  1GK d   1      40.177  30.833  29.913  0.00  0.00    -0.069 A 
ATOM     19  H6  1GK d   1      38.319  31.312  28.975  0.00  0.00     0.083 H 
ATOM     20  H7  1GK d   1      40.778  31.195  29.087  0.00  0.00     0.085 H 
BRANCH  12  21
ATOM     21  C1  1GK d   1      40.654  29.261  33.296  0.00  0.00    -0.050 C 
ATOM     22  H1  1GK d   1      39.878  28.950  34.011  0.00  0.00     0.033 H 
ATOM     23  H2  1GK d   1      41.301  30.018  33.764  0.00  0.00     0.033 H 
ATOM     24  H3  1GK d   1      41.259  28.389  33.008  0.00  0.00     0.033 H 
ENDBRANCH  12  21
ENDBRANCH   9  11
ENDBRANCH   1   9
BRANCH   4  25
ATOM     25  C15 1GK d   1      45.679  33.736  32.593  0.00  0.00     0.268 C 
ATOM     26  O16 1GK d   1      45.632  34.902  32.976  0.00  0.00    -0.266 OA
ATOM     27  N17 1GK d   1      46.852  33.054  32.492  0.00  0.00    -0.350 N 
ATOM     28  H11 1GK d   1      46.868  32.104  32.181  0.00  0.00     0.163 HD
BRANCH  27  29
ATOM     29  C18 1GK d   1      48.069  33.737  32.845  0.00  0.00     0.040 C 
ATOM     30  H12 1GK d   1      48.647  33.119  33.548  0.00  0.00     0.074 H 
ATOM     31  H13 1GK d   1      47.827  34.700  33.318  0.00  0.00     0.074 H 
BRANCH  29  32
ATOM     32  C19 1GK d   1      48.853  33.969  31.643  0.00  0.00     0.070 A 
ATOM     33  C20 1GK d   1      48.723  34.871  30.612  0.00  0.00    -0.051 A 
ATOM     34  C21 1GK d   1      49.786  34.594  29.722  0.00  0.00    -0.059 A 
ATOM     35  H14 1GK d   1      47.959  35.639  30.504  0.00  0.00     0.087 H 
ATOM     36  C22 1GK d   1      50.479  33.536  30.274  0.00  0.00     0.019 A 
ATOM     37  H15 1GK d   1      50.012  35.111  28.790  0.00  0.00     0.086 H 
ATOM     38  O23 1GK d   1      49.917  33.141  31.454  0.00  0.00    -0.325 OA
ATOM     39  H16 1GK d   1      51.359  33.076  29.827  0.00  0.00     0.123 H 
ENDBRANCH  29  32
ENDBRANCH  27  29
ENDBRANCH   4  25
TORSDOF 6
