REMARK  12 active torsions:
REMARK  status: ('A' for Active; 'I' for Inactive)
REMARK    1  A    between atoms: N1_2  and  C1_1 
REMARK    2  A    between atoms: C7_16  and  N1_2 
REMARK    3  A    between atoms: C2_4  and  O2_6 
REMARK    4  A    between atoms: N2_5  and  C7_16 
REMARK    5  A    between atoms: C3_7  and  O3_9 
REMARK    6  A    between atoms: C8_18  and  N3_8 
REMARK    7  A    between atoms: C4_10  and  O4_11 
REMARK    8  A    between atoms: C5_12  and  C6_14 
REMARK    9  A    between atoms: C6_14  and  O6_15 
REMARK   10  A    between atoms: C12_22  and  O7_17 
REMARK   11  A    between atoms: O7_17  and  C15_25 
REMARK   12  A    between atoms: C9_19  and  C8_18 
ROOT
ATOM      1  N1  17S d   1      18.916  13.942  55.670  0.00  0.00    -0.336 N 
ATOM      2  H2  17S d   1      18.949  13.771  54.685  0.00  0.00     0.164 HD
ENDROOT
BRANCH   1   3
ATOM      3  C1  17S d   1      19.359  15.236  56.162  0.00  0.00     0.133 C 
ATOM      4  C2  17S d   1      20.697  15.584  55.494  0.00  0.00     0.104 C 
ATOM      5  C3  17S d   1      21.055  17.040  55.794  0.00  0.00     0.091 C 
ATOM      6  H3  17S d   1      20.588  15.465  54.406  0.00  0.00     0.093 H 
ATOM      7  C4  17S d   1      19.925  17.957  55.332  0.00  0.00     0.089 C 
ATOM      8  H5  17S d   1      21.203  17.159  56.877  0.00  0.00     0.091 H 
ATOM      9  C5  17S d   1      18.576  17.531  55.903  0.00  0.00     0.088 C 
ATOM     10  H7  17S d   1      19.871  17.909  54.234  0.00  0.00     0.091 H 
ATOM     11  O5  17S d   1      18.335  16.130  55.716  0.00  0.00    -0.354 OA
ATOM     12  H9  17S d   1      18.544  17.771  56.976  0.00  0.00     0.090 H 
ATOM     13  H1  17S d   1      19.459  15.248  57.257  0.00  0.00     0.122 H 
BRANCH   4  14
ATOM     14  O2  17S d   1      21.735  14.706  55.944  0.00  0.00    -0.389 OA
ATOM     15  H4  17S d   1      22.552  14.939  55.519  0.00  0.00     0.210 HD
ENDBRANCH   4  14
BRANCH   5  16
ATOM     16  O3  17S d   1      22.258  17.408  55.106  0.00  0.00    -0.390 OA
ATOM     17  H6  17S d   1      22.130  17.306  54.170  0.00  0.00     0.210 HD
ENDBRANCH   5  16
BRANCH   7  18
ATOM     18  O4  17S d   1      20.182  19.310  55.723  0.00  0.00    -0.390 OA
ATOM     19  H8  17S d   1      20.996  19.603  55.331  0.00  0.00     0.210 HD
ENDBRANCH   7  18
BRANCH   9  20
ATOM     20  C6  17S d   1      17.477  18.276  55.165  0.00  0.00     0.043 C 
ATOM     21  H10 17S d   1      17.017  17.622  54.410  0.00  0.00     0.078 H 
ATOM     22  H11 17S d   1      17.889  19.170  54.674  0.00  0.00     0.078 H 
BRANCH  20  23
ATOM     23  O6  17S d   1      16.511  18.654  56.141  0.00  0.00    -0.398 OA
ATOM     24  H12 17S d   1      15.803  19.125  55.718  0.00  0.00     0.209 HD
ENDBRANCH  20  23
ENDBRANCH   9  20
ENDBRANCH   1   3
BRANCH   1  25
ATOM     25  C7  17S d   1      18.466  12.968  56.469  0.00  0.00     0.216 C 
ATOM     26  S1  17S d   1      18.435  13.123  58.160  0.00  0.00    -0.037 SA
BRANCH  25  27
ATOM     27  N2  17S d   1      18.059  11.835  55.917  0.00  0.00    -0.125 NA
ATOM     28  N3  17S d   1      18.079  11.709  54.682  0.00  0.00    -0.186 NA
BRANCH  28  29
ATOM     29  C8  17S d   1      17.691  10.633  54.180  0.00  0.00     0.058 C 
ATOM     30  H13 17S d   1      16.653  10.493  54.515  0.00  0.00     0.077 H 
ATOM     31  H14 17S d   1      18.325   9.845  54.611  0.00  0.00     0.077 H 
BRANCH  29  32
ATOM     32  C9  17S d   1      17.689  10.411  52.722  0.00  0.00    -0.037 A 
ATOM     33  C10 17S d   1      18.390  11.244  51.843  0.00  0.00    -0.072 A 
ATOM     34  C11 17S d   1      18.354  10.982  50.476  0.00  0.00    -0.050 A 
ATOM     35  H15 17S d   1      18.956  12.086  52.223  0.00  0.00     0.084 H 
ATOM     36  C12 17S d   1      17.619   9.887  50.003  0.00  0.00     0.068 A 
ATOM     37  H16 17S d   1      18.890  11.620  49.783  0.00  0.00     0.087 H 
ATOM     38  C13 17S d   1      16.921   9.067  50.886  0.00  0.00    -0.050 A 
ATOM     39  C14 17S d   1      16.953   9.335  52.247  0.00  0.00    -0.072 A 
ATOM     40  H17 17S d   1      16.355   8.222  50.511  0.00  0.00     0.087 H 
ATOM     41  H18 17S d   1      16.404   8.705  52.938  0.00  0.00     0.084 H 
BRANCH  36  42
ATOM     42  O7  17S d   1      17.563   9.610  48.666  0.00  0.00    -0.356 OA
BRANCH  42  43
ATOM     43  C15 17S d   1      17.337   8.261  48.262  0.00  0.00     0.010 C 
ATOM     44  H19 17S d   1      17.319   8.205  47.164  0.00  0.00     0.066 H 
ATOM     45  H20 17S d   1      16.372   7.915  48.662  0.00  0.00     0.066 H 
ATOM     46  H21 17S d   1      18.145   7.622  48.649  0.00  0.00     0.066 H 
ENDBRANCH  42  43
ENDBRANCH  36  42
ENDBRANCH  29  32
ENDBRANCH  28  29
ENDBRANCH  25  27
ENDBRANCH   1  25
TORSDOF 12
