REMARK  11 active torsions:
REMARK  status: ('A' for Active; 'I' for Inactive)
REMARK    1  A    between atoms: N1_2  and  C1_1 
REMARK    2  A    between atoms: C7_16  and  N1_2 
REMARK    3  A    between atoms: C2_4  and  O2_6 
REMARK    4  A    between atoms: N2_5  and  C7_16 
REMARK    5  A    between atoms: C3_7  and  O3_9 
REMARK    6  A    between atoms: N3_8  and  C8_17 
REMARK    7  A    between atoms: C4_10  and  O4_11 
REMARK    8  A    between atoms: C5_12  and  C6_14 
REMARK    9  A    between atoms: C6_14  and  O6_15 
REMARK   10  A    between atoms: C8_17  and  C9_18 
REMARK   11  A    between atoms: C12_21  and  C15_24 
ROOT
ATOM      1  N1  18S d   1      18.851  13.694  55.491  0.00  0.00    -0.336 N 
ATOM      2  H2  18S d   1      18.863  13.559  54.500  0.00  0.00     0.164 HD
ENDROOT
BRANCH   1   3
ATOM      3  C1  18S d   1      19.335  14.950  56.030  0.00  0.00     0.133 C 
ATOM      4  C2  18S d   1      20.605  15.341  55.269  0.00  0.00     0.104 C 
ATOM      5  C3  18S d   1      20.946  16.785  55.618  0.00  0.00     0.091 C 
ATOM      6  H3  18S d   1      20.409  15.273  54.189  0.00  0.00     0.093 H 
ATOM      7  C4  18S d   1      19.786  17.668  55.176  0.00  0.00     0.089 C 
ATOM      8  H5  18S d   1      21.103  16.878  56.703  0.00  0.00     0.091 H 
ATOM      9  C5  18S d   1      18.450  17.243  55.789  0.00  0.00     0.088 C 
ATOM     10  H7  18S d   1      19.696  17.579  54.083  0.00  0.00     0.091 H 
ATOM     11  O5  18S d   1      18.244  15.827  55.735  0.00  0.00    -0.354 OA
ATOM     12  H9  18S d   1      18.398  17.593  56.831  0.00  0.00     0.090 H 
ATOM     13  H1  18S d   1      19.535  14.897  57.110  0.00  0.00     0.122 H 
BRANCH   4  14
ATOM     14  O2  18S d   1      21.685  14.459  55.586  0.00  0.00    -0.389 OA
ATOM     15  H4  18S d   1      22.459  14.722  55.102  0.00  0.00     0.210 HD
ENDBRANCH   4  14
BRANCH   5  16
ATOM     16  O3  18S d   1      22.121  17.209  54.923  0.00  0.00    -0.390 OA
ATOM     17  H6  18S d   1      21.974  17.145  53.987  0.00  0.00     0.210 HD
ENDBRANCH   5  16
BRANCH   7  18
ATOM     18  O4  18S d   1      20.057  19.031  55.492  0.00  0.00    -0.390 OA
ATOM     19  H8  18S d   1      20.848  19.308  55.044  0.00  0.00     0.210 HD
ENDBRANCH   7  18
BRANCH   9  20
ATOM     20  C6  18S d   1      17.324  17.839  54.959  0.00  0.00     0.043 C 
ATOM     21  H10 18S d   1      16.542  17.083  54.798  0.00  0.00     0.078 H 
ATOM     22  H11 18S d   1      17.716  18.173  53.987  0.00  0.00     0.078 H 
BRANCH  20  23
ATOM     23  O6  18S d   1      16.778  18.953  55.666  0.00  0.00    -0.398 OA
ATOM     24  H12 18S d   1      16.073  19.335  55.157  0.00  0.00     0.209 HD
ENDBRANCH  20  23
ENDBRANCH   9  20
ENDBRANCH   1   3
BRANCH   1  25
ATOM     25  C7  18S d   1      18.392  12.715  56.266  0.00  0.00     0.216 C 
ATOM     26  S1  18S d   1      18.411  12.868  57.966  0.00  0.00    -0.037 SA
BRANCH  25  27
ATOM     27  N2  18S d   1      17.933  11.603  55.676  0.00  0.00    -0.125 NA
ATOM     28  N3  18S d   1      17.924  11.512  54.431  0.00  0.00    -0.186 NA
BRANCH  28  29
ATOM     29  C8  18S d   1      17.507  10.465  53.881  0.00  0.00     0.058 C 
ATOM     30  H13 18S d   1      16.469  10.337  54.221  0.00  0.00     0.077 H 
ATOM     31  H14 18S d   1      18.126   9.647  54.278  0.00  0.00     0.077 H 
BRANCH  29  32
ATOM     32  C9  18S d   1      17.481  10.282  52.413  0.00  0.00    -0.037 A 
ATOM     33  C10 18S d   1      18.180  11.132  51.546  0.00  0.00    -0.075 A 
ATOM     34  C11 18S d   1      18.125  10.901  50.169  0.00  0.00    -0.077 A 
ATOM     35  H15 18S d   1      18.758  11.961  51.940  0.00  0.00     0.084 H 
ATOM     36  C12 18S d   1      17.380   9.825  49.659  0.00  0.00    -0.062 A 
ATOM     37  H16 18S d   1      18.660  11.556  49.491  0.00  0.00     0.084 H 
ATOM     38  C13 18S d   1      16.687   8.983  50.524  0.00  0.00    -0.077 A 
ATOM     39  C14 18S d   1      16.741   9.218  51.898  0.00  0.00    -0.075 A 
ATOM     40  H17 18S d   1      16.111   8.152  50.133  0.00  0.00     0.084 H 
ATOM     41  H18 18S d   1      16.201   8.565  52.574  0.00  0.00     0.084 H 
BRANCH  36  42
ATOM     42  C15 18S d   1      17.299   9.563  48.175  0.00  0.00    -0.051 C 
ATOM     43  H19 18S d   1      17.898  10.312  47.637  0.00  0.00     0.033 H 
ATOM     44  H20 18S d   1      16.251   9.628  47.848  0.00  0.00     0.033 H 
ATOM     45  H21 18S d   1      17.689   8.558  47.958  0.00  0.00     0.033 H 
ENDBRANCH  36  42
ENDBRANCH  29  32
ENDBRANCH  28  29
ENDBRANCH  25  27
ENDBRANCH   1  25
TORSDOF 11
