REMARK  12 active torsions:
REMARK  status: ('A' for Active; 'I' for Inactive)
REMARK    1  A    between atoms: N1_3  and  C1_1 
REMARK    2  A    between atoms: C7_19  and  N1_3 
REMARK    3  A    between atoms: C2_5  and  O2_8 
REMARK    4  A    between atoms: N3_11  and  N2_7 
REMARK    5  A    between atoms: N2_7  and  C7_19 
REMARK    6  A    between atoms: C3_9  and  O3_12 
REMARK    7  A    between atoms: C8_20  and  N3_11 
REMARK    8  A    between atoms: C4_13  and  O4_14 
REMARK    9  A    between atoms: C5_15  and  C6_17 
REMARK   10  A    between atoms: C6_17  and  O6_18 
REMARK   11  A    between atoms: C9_21  and  C8_20 
REMARK   12  A    between atoms: C12_24  and  C15_27 
ROOT
ATOM      1  N1  21N d   1      18.946  14.143  56.377  0.00  0.00    -0.336 N 
ATOM      2  H2  21N d   1      18.866  13.946  55.400  0.00  0.00     0.164 HD
ENDROOT
BRANCH   1   3
ATOM      3  C1  21N d   1      19.479  15.443  56.755  0.00  0.00     0.133 C 
ATOM      4  C2  21N d   1      20.791  15.726  55.994  0.00  0.00     0.104 C 
ATOM      5  C3  21N d   1      21.232  17.183  56.203  0.00  0.00     0.091 C 
ATOM      6  H3  21N d   1      20.591  15.591  54.921  0.00  0.00     0.093 H 
ATOM      7  C4  21N d   1      20.090  18.128  55.815  0.00  0.00     0.089 C 
ATOM      8  H5  21N d   1      21.494  17.333  57.261  0.00  0.00     0.091 H 
ATOM      9  C5  21N d   1      18.832  17.804  56.623  0.00  0.00     0.088 C 
ATOM     10  H7  21N d   1      19.862  17.974  54.750  0.00  0.00     0.091 H 
ATOM     11  O5  21N d   1      18.483  16.426  56.426  0.00  0.00    -0.354 OA
ATOM     12  H9  21N d   1      19.063  17.962  57.687  0.00  0.00     0.090 H 
ATOM     13  H1  21N d   1      19.678  15.463  57.837  0.00  0.00     0.122 H 
BRANCH   4  14
ATOM     14  O2  21N d   1      21.822  14.789  56.361  0.00  0.00    -0.389 OA
ATOM     15  H4  21N d   1      22.616  14.988  55.878  0.00  0.00     0.210 HD
ENDBRANCH   4  14
BRANCH   5  16
ATOM     16  O3  21N d   1      22.360  17.491  55.386  0.00  0.00    -0.390 OA
ATOM     17  H6  21N d   1      22.131  17.367  54.472  0.00  0.00     0.210 HD
ENDBRANCH   5  16
BRANCH   7  18
ATOM     18  O4  21N d   1      20.482  19.498  55.993  0.00  0.00    -0.390 OA
ATOM     19  H8  21N d   1      21.235  19.684  55.445  0.00  0.00     0.210 HD
ENDBRANCH   7  18
BRANCH   9  20
ATOM     20  C6  21N d   1      17.627  18.686  56.265  0.00  0.00     0.043 C 
ATOM     21  H10 21N d   1      17.721  19.646  56.793  0.00  0.00     0.078 H 
ATOM     22  H11 21N d   1      16.707  18.178  56.589  0.00  0.00     0.078 H 
BRANCH  20  23
ATOM     23  O6  21N d   1      17.542  18.941  54.852  0.00  0.00    -0.398 OA
ATOM     24  H12 21N d   1      18.330  19.386  54.564  0.00  0.00     0.209 HD
ENDBRANCH  20  23
ENDBRANCH   9  20
ENDBRANCH   1   3
BRANCH   1  25
ATOM     25  C7  21N d   1      18.553  13.187  57.232  0.00  0.00     0.216 C 
ATOM     26  S1  21N d   1      18.730  13.321  58.791  0.00  0.00    -0.037 SA
BRANCH  25  27
ATOM     27  N2  21N d   1      17.985  12.084  56.743  0.00  0.00    -0.125 NA
BRANCH  27  28
ATOM     28  N3  21N d   1      18.044  11.866  55.442  0.00  0.00    -0.186 NA
BRANCH  28  29
ATOM     29  C8  21N d   1      17.464  10.885  54.936  0.00  0.00     0.058 C 
ATOM     30  H13 21N d   1      16.398  10.989  55.188  0.00  0.00     0.077 H 
ATOM     31  H14 21N d   1      17.873   9.992  55.431  0.00  0.00     0.077 H 
BRANCH  29  32
ATOM     32  C9  21N d   1      17.527  10.626  53.488  0.00  0.00    -0.037 A 
ATOM     33  C10 21N d   1      18.413  11.318  52.652  0.00  0.00    -0.074 A 
ATOM     34  C11 21N d   1      18.446  11.038  51.287  0.00  0.00    -0.068 A 
ATOM     35  H15 21N d   1      19.073  12.071  53.067  0.00  0.00     0.084 H 
ATOM     36  C12 21N d   1      17.588  10.066  50.752  0.00  0.00     0.047 A 
ATOM     37  H16 21N d   1      19.134  11.571  50.640  0.00  0.00     0.084 H 
ATOM     38  C13 21N d   1      16.704   9.384  51.593  0.00  0.00    -0.068 A 
ATOM     39  C14 21N d   1      16.673   9.659  52.958  0.00  0.00    -0.074 A 
ATOM     40  H17 21N d   1      16.038   8.636  51.180  0.00  0.00     0.084 H 
ATOM     41  H18 21N d   1      15.988   9.124  53.606  0.00  0.00     0.084 H 
BRANCH  36  42
ATOM     42  C15 21N d   1      17.610   9.746  49.276  0.00  0.00     0.417 C 
ATOM     43  F1  21N d   1      17.157  10.762  48.573  0.00  0.00    -0.166 F 
ATOM     44  F2  21N d   1      16.883   8.672  49.006  0.00  0.00    -0.166 F 
ATOM     45  F3  21N d   1      18.850   9.493  48.919  0.00  0.00    -0.166 F 
ENDBRANCH  36  42
ENDBRANCH  29  32
ENDBRANCH  28  29
ENDBRANCH  27  28
ENDBRANCH  25  27
ENDBRANCH   1  25
TORSDOF 12
