REMARK  10 active torsions:
REMARK  status: ('A' for Active; 'I' for Inactive)
REMARK    1  A    between atoms: N1_2  and  C1_1 
REMARK    2  A    between atoms: C7_17  and  N1_2 
REMARK    3  A    between atoms: C2_5  and  O2_7 
REMARK    4  A    between atoms: N2_6  and  C7_17 
REMARK    5  A    between atoms: C3_8  and  O6_16 
REMARK    6  A    between atoms: C8_18  and  N3_9 
REMARK    7  A    between atoms: C6_15  and  O3_10 
REMARK    8  A    between atoms: C4_11  and  O4_12 
REMARK    9  A    between atoms: C5_13  and  C6_15 
REMARK   10  A    between atoms: C9_19  and  C8_18 
ROOT
ATOM      1  C1  22S d   1      19.288  15.063  56.029  0.00  0.00     0.133 C 
ATOM      2  C2  22S d   1      20.715  15.420  55.557  0.00  0.00     0.104 C 
ATOM      3  C3  22S d   1      21.033  16.897  55.893  0.00  0.00     0.091 C 
ATOM      4  C4  22S d   1      19.938  17.838  55.371  0.00  0.00     0.089 C 
ATOM      5  C5  22S d   1      18.563  17.368  55.828  0.00  0.00     0.088 C 
ATOM      6  O5  22S d   1      18.376  16.000  55.454  0.00  0.00    -0.354 OA
ATOM      7  H1  22S d   1      19.241  15.059  57.128  0.00  0.00     0.122 H 
ATOM      8  H3  22S d   1      20.746  15.303  54.464  0.00  0.00     0.093 H 
ATOM      9  H5  22S d   1      21.081  16.990  56.988  0.00  0.00     0.091 H 
ATOM     10  H7  22S d   1      19.972  17.840  54.272  0.00  0.00     0.091 H 
ATOM     11  H9  22S d   1      18.492  17.463  56.922  0.00  0.00     0.090 H 
ENDROOT
BRANCH   1  12
ATOM     12  N1  22S d   1      18.825  13.793  55.470  0.00  0.00    -0.336 N 
ATOM     13  H2  22S d   1      18.918  13.665  54.483  0.00  0.00     0.164 HD
BRANCH  12  14
ATOM     14  C7  22S d   1      18.284  12.784  56.176  0.00  0.00     0.216 C 
ATOM     15  S1  22S d   1      18.129  12.839  57.868  0.00  0.00    -0.037 SA
BRANCH  14  16
ATOM     16  N2  22S d   1      17.877  11.678  55.542  0.00  0.00    -0.125 NA
ATOM     17  N3  22S d   1      17.968  11.590  54.303  0.00  0.00    -0.186 NA
BRANCH  17  18
ATOM     18  C8  22S d   1      17.581  10.564  53.687  0.00  0.00     0.060 C 
ATOM     19  H13 22S d   1      16.514  10.438  53.922  0.00  0.00     0.077 H 
ATOM     20  H14 22S d   1      18.149   9.716  54.096  0.00  0.00     0.077 H 
BRANCH  18  21
ATOM     21  C9  22S d   1      17.705  10.487  52.207  0.00  0.00    -0.015 A 
ATOM     22  C10 22S d   1      16.947   9.544  51.513  0.00  0.00     0.042 A 
ATOM     23 CL1  22S d   1      15.841   8.453  52.425  0.00  0.00    -0.084 Cl
ATOM     24  C11 22S d   1      17.042   9.439  50.123  0.00  0.00    -0.061 A 
ATOM     25  C12 22S d   1      17.897  10.303  49.433  0.00  0.00    -0.081 A 
ATOM     26  H15 22S d   1      16.460   8.698  49.587  0.00  0.00     0.086 H 
ATOM     27  C13 22S d   1      18.660  11.254  50.122  0.00  0.00    -0.082 A 
ATOM     28  H16 22S d   1      17.970  10.236  48.353  0.00  0.00     0.083 H 
ATOM     29  C14 22S d   1      18.560  11.353  51.513  0.00  0.00    -0.073 A 
ATOM     30  H17 22S d   1      19.327  11.912  49.578  0.00  0.00     0.083 H 
ATOM     31  H18 22S d   1      19.140  12.095  52.051  0.00  0.00     0.084 H 
ENDBRANCH  18  21
ENDBRANCH  17  18
ENDBRANCH  14  16
ENDBRANCH  12  14
ENDBRANCH   1  12
BRANCH   2  32
ATOM     32  O2  22S d   1      21.714  14.549  56.120  0.00  0.00    -0.389 OA
ATOM     33  H4  22S d   1      22.572  14.806  55.803  0.00  0.00     0.210 HD
ENDBRANCH   2  32
BRANCH   3  34
ATOM     34  O6  22S d   1      22.292  17.317  55.348  0.00  0.00    -0.390 OA
ATOM     35  H12 22S d   1      22.254  17.277  54.400  0.00  0.00     0.210 HD
ENDBRANCH   3  34
BRANCH   5  36
ATOM     36  C6  22S d   1      17.471  18.209  55.175  0.00  0.00     0.043 C 
ATOM     37  H10 22S d   1      17.370  19.167  55.707  0.00  0.00     0.078 H 
ATOM     38  H11 22S d   1      17.726  18.399  54.122  0.00  0.00     0.078 H 
BRANCH  36  39
ATOM     39  O3  22S d   1      16.243  17.480  55.252  0.00  0.00    -0.398 OA
ATOM     40  H6  22S d   1      15.549  17.988  54.850  0.00  0.00     0.209 HD
ENDBRANCH  36  39
ENDBRANCH   5  36
BRANCH   4  41
ATOM     41  O4  22S d   1      20.135  19.173  55.848  0.00  0.00    -0.390 OA
ATOM     42  H8  22S d   1      20.979  19.493  55.551  0.00  0.00     0.210 HD
ENDBRANCH   4  41
TORSDOF 10
