REMARK  10 active torsions:
REMARK  status: ('A' for Active; 'I' for Inactive)
REMARK    1  A    between atoms: C1_1  and  NAL_12 
REMARK    2  A    between atoms: C2_2  and  O2_3 
REMARK    3  A    between atoms: C3_4  and  O3_5 
REMARK    4  A    between atoms: C4_6  and  O4_7 
REMARK    5  A    between atoms: C5_8  and  C6_10 
REMARK    6  A    between atoms: C6_10  and  O6_11 
REMARK    7  A    between atoms: CAM_13  and  NAN_14 
REMARK    8  A    between atoms: NAP_16  and  CAQ_17 
REMARK    9  A    between atoms: CAQ_17  and  CAR_18 
REMARK   10  A    between atoms: CAS_19  and  NAX_24 
ROOT
ATOM      1  C1  24S d   1      33.710  22.961  27.890  0.00  0.00     0.133 C 
ATOM      2  C2  24S d   1      34.032  23.169  26.402  0.00  0.00     0.104 C 
ATOM      3  C3  24S d   1      32.908  22.574  25.524  0.00  0.00     0.091 C 
ATOM      4  C4  24S d   1      32.629  21.120  25.932  0.00  0.00     0.089 C 
ATOM      5  C5  24S d   1      32.419  20.983  27.457  0.00  0.00     0.088 C 
ATOM      6  O5  24S d   1      33.525  21.559  28.153  0.00  0.00    -0.354 OA
ATOM      7  H1  24S d   1      32.813  23.533  28.171  0.00  0.00     0.122 H 
ATOM      8  H2  24S d   1      34.964  22.633  26.169  0.00  0.00     0.093 H 
ATOM      9  H4  24S d   1      31.997  23.165  25.697  0.00  0.00     0.091 H 
ATOM     10  H6  24S d   1      33.501  20.510  25.654  0.00  0.00     0.091 H 
ATOM     11  H8  24S d   1      31.507  21.539  27.719  0.00  0.00     0.090 H 
ENDROOT
BRANCH   1  12
ATOM     12  NAL 24S d   1      34.864  23.379  28.677  0.00  0.00    -0.336 N 
ATOM     13  CAM 24S d   1      34.749  24.022  29.845  0.00  0.00     0.216 C 
ATOM     14  SAO 24S d   1      33.216  24.445  30.487  0.00  0.00    -0.037 SA
ATOM     15  H12 24S d   1      35.780  23.177  28.329  0.00  0.00     0.164 HD
BRANCH  13  16
ATOM     16  NAN 24S d   1      35.893  24.330  30.474  0.00  0.00    -0.125 NA
ATOM     17  NAP 24S d   1      35.898  24.938  31.560  0.00  0.00    -0.186 NA
BRANCH  17  18
ATOM     18  CAQ 24S d   1      36.994  25.209  32.124  0.00  0.00     0.060 C 
ATOM     19  H13 24S d   1      37.560  25.826  31.410  0.00  0.00     0.077 H 
ATOM     20  H14 24S d   1      37.509  24.248  32.267  0.00  0.00     0.077 H 
BRANCH  18  21
ATOM     21  CAR 24S d   1      37.071  25.916  33.431  0.00  0.00    -0.004 A 
ATOM     22  CAS 24S d   1      36.006  25.948  34.354  0.00  0.00     0.111 A 
ATOM     23  CAT 24S d   1      36.174  26.611  35.578  0.00  0.00    -0.050 A 
ATOM     24  CAU 24S d   1      37.378  27.241  35.890  0.00  0.00    -0.081 A 
ATOM     25  H15 24S d   1      35.358  26.634  36.291  0.00  0.00     0.087 H 
ATOM     26  CAV 24S d   1      38.434  27.197  34.976  0.00  0.00    -0.082 A 
ATOM     27  H16 24S d   1      37.494  27.761  36.834  0.00  0.00     0.083 H 
ATOM     28  CAW 24S d   1      38.281  26.536  33.756  0.00  0.00    -0.073 A 
ATOM     29  H17 24S d   1      39.376  27.678  35.215  0.00  0.00     0.083 H 
ATOM     30  H18 24S d   1      39.107  26.503  33.055  0.00  0.00     0.084 H 
BRANCH  22  31
ATOM     31  NAX 24S d   1      34.754  25.335  34.107  0.00  0.00    -0.115 N 
ATOM     32  OAY 24S d   1      34.628  24.124  34.213  0.00  0.00    -0.532 OA
ATOM     33  OAZ 24S d   1      33.775  26.001  33.795  0.00  0.00    -0.532 OA
ENDBRANCH  22  31
ENDBRANCH  18  21
ENDBRANCH  17  18
ENDBRANCH  13  16
ENDBRANCH   1  12
BRANCH   2  34
ATOM     34  O2  24S d   1      34.244  24.565  26.143  0.00  0.00    -0.389 OA
ATOM     35  H3  24S d   1      34.443  24.689  25.222  0.00  0.00     0.210 HD
ENDBRANCH   2  34
BRANCH   3  36
ATOM     36  O3  24S d   1      33.213  22.630  24.119  0.00  0.00    -0.390 OA
ATOM     37  H5  24S d   1      33.338  23.535  23.859  0.00  0.00     0.210 HD
ENDBRANCH   3  36
BRANCH   5  38
ATOM     38  C6  24S d   1      32.247  19.542  27.938  0.00  0.00     0.043 C 
ATOM     39  H9  24S d   1      31.252  19.178  27.642  0.00  0.00     0.078 H 
ATOM     40  H10 24S d   1      32.337  19.513  29.034  0.00  0.00     0.078 H 
BRANCH  38  41
ATOM     41  O6  24S d   1      33.250  18.696  27.360  0.00  0.00    -0.398 OA
ATOM     42  H11 24S d   1      34.111  19.006  27.616  0.00  0.00     0.209 HD
ENDBRANCH  38  41
ENDBRANCH   5  38
BRANCH   4  43
ATOM     43  O4  24S d   1      31.491  20.637  25.213  0.00  0.00    -0.390 OA
ATOM     44  H7  24S d   1      30.736  21.176  25.418  0.00  0.00     0.210 HD
ENDBRANCH   4  43
TORSDOF 10
