REMARK  6 active torsions:
REMARK  status: ('A' for Active; 'I' for Inactive)
REMARK    1  A    between atoms: N8_8  and  C12_12 
REMARK    2  A    between atoms: C12_12  and  C13_13 
REMARK    3  A    between atoms: C13_13  and  C14_14 
REMARK    4  A    between atoms: C14_14  and  C15_15 
REMARK       I    between atoms: C15_15  and  N17_17 
REMARK    5  A    between atoms: N17_17  and  C18_18 
REMARK    6  A    between atoms: N17_17  and  C19_19 
ROOT
ATOM      1  C14 EV4 d   1      17.888 -42.361   7.849  0.00  0.00     0.011 C 
ATOM      2  H10 EV4 d   1      17.748 -41.280   7.702  0.00  0.00     0.047 H 
ATOM      3  H11 EV4 d   1      18.520 -42.762   7.043  0.00  0.00     0.047 H 
ENDROOT
BRANCH   1   4
ATOM      4  C13 EV4 d   1      16.536 -43.062   7.842  0.00  0.00    -0.041 C 
ATOM      5  H8  EV4 d   1      16.260 -43.255   6.795  0.00  0.00     0.036 H 
ATOM      6  H9  EV4 d   1      16.647 -44.018   8.374  0.00  0.00     0.036 H 
BRANCH   4   7
ATOM      7  C12 EV4 d   1      15.391 -42.288   8.497  0.00  0.00     0.017 C 
ATOM      8  H6  EV4 d   1      14.452 -42.510   7.969  0.00  0.00     0.065 H 
ATOM      9  H7  EV4 d   1      15.301 -42.593   9.550  0.00  0.00     0.065 H 
BRANCH   7  10
ATOM     10  N8  EV4 d   1      15.660 -40.829   8.429  0.00  0.00    -0.179 N 
ATOM     11  C2  EV4 d   1      16.127 -40.088   9.468  0.00  0.00     0.081 A 
ATOM     12  C1  EV4 d   1      16.436 -40.402  10.799  0.00  0.00    -0.052 A 
ATOM     13  C3  EV4 d   1      16.295 -38.663   8.994  0.00  0.00     0.104 A 
ATOM     14  C6  EV4 d   1      16.885 -39.395  11.660  0.00  0.00    -0.060 A 
ATOM     15  H1  EV4 d   1      16.328 -41.419  11.159  0.00  0.00     0.087 H 
ATOM     16  C5  EV4 d   1      17.005 -38.075  11.206  0.00  0.00     0.036 A 
ATOM     17  H3  EV4 d   1      17.142 -39.638  12.685  0.00  0.00     0.086 H 
ATOM     18  C4  EV4 d   1      16.732 -37.690   9.877  0.00  0.00    -0.031 A 
ATOM     19 CL7  EV4 d   1      17.587 -36.800  12.312  0.00  0.00    -0.084 Cl
ATOM     20  H2  EV4 d   1      16.860 -36.663   9.556  0.00  0.00     0.089 H 
ATOM     21  N10 EV4 d   1      15.945 -38.629   7.698  0.00  0.00    -0.063 NA
ATOM     22  C9  EV4 d   1      15.578 -39.915   7.402  0.00  0.00     0.701 A 
ATOM     23  N11 EV4 d   1      15.192 -40.202   6.124  0.00  0.00    -0.233 N 
ATOM     24  H4  EV4 d   1      15.159 -39.455   5.416  0.00  0.00     0.174 HD
ATOM     25  H5  EV4 d   1      14.934 -41.166   5.868  0.00  0.00     0.174 HD
ENDBRANCH   7  10
ENDBRANCH   4   7
ENDBRANCH   1   4
BRANCH   1  26
ATOM     26  C15 EV4 d   1      18.554 -42.620   9.212  0.00  0.00     0.219 C 
ATOM     27  O16 EV4 d   1      18.218 -43.641   9.819  0.00  0.00    -0.273 OA
ATOM     28  N17 EV4 d   1      19.497 -41.765   9.710  0.00  0.00    -0.352 N 
BRANCH  28  29
ATOM     29  C18 EV4 d   1      20.176 -41.921  11.006  0.00  0.00    -0.016 C 
ATOM     30  H12 EV4 d   1      19.840 -42.852  11.486  0.00  0.00     0.056 H 
ATOM     31  H13 EV4 d   1      19.932 -41.066  11.653  0.00  0.00     0.056 H 
ATOM     32  H14 EV4 d   1      21.264 -41.962  10.848  0.00  0.00     0.056 H 
ENDBRANCH  28  29
BRANCH  28  33
ATOM     33  C19 EV4 d   1      19.844 -40.563   8.947  0.00  0.00     0.014 C 
ATOM     34  C20 EV4 d   1      21.002 -39.853   9.633  0.00  0.00    -0.046 C 
ATOM     35  C21 EV4 d   1      21.158 -38.520   8.919  0.00  0.00    -0.063 C 
ATOM     36  H16 EV4 d   1      21.923 -40.447   9.540  0.00  0.00     0.036 H 
ATOM     37  H17 EV4 d   1      20.775 -39.692  10.697  0.00  0.00     0.036 H 
ATOM     38  C22 EV4 d   1      21.257 -38.686   7.407  0.00  0.00    -0.065 C 
ATOM     39  H18 EV4 d   1      22.073 -38.028   9.282  0.00  0.00     0.033 H 
ATOM     40  H19 EV4 d   1      20.286 -37.890   9.150  0.00  0.00     0.033 H 
ATOM     41  C23 EV4 d   1      20.268 -39.687   6.783  0.00  0.00    -0.063 C 
ATOM     42  H20 EV4 d   1      22.276 -39.024   7.169  0.00  0.00     0.033 H 
ATOM     43  H21 EV4 d   1      21.080 -37.703   6.946  0.00  0.00     0.033 H 
ATOM     44  C24 EV4 d   1      20.304 -40.991   7.562  0.00  0.00    -0.046 C 
ATOM     45  H22 EV4 d   1      20.551 -39.877   5.737  0.00  0.00     0.033 H 
ATOM     46  H23 EV4 d   1      19.252 -39.268   6.818  0.00  0.00     0.033 H 
ATOM     47  H24 EV4 d   1      19.618 -41.732   7.127  0.00  0.00     0.036 H 
ATOM     48  H25 EV4 d   1      21.322 -41.407   7.593  0.00  0.00     0.036 H 
ATOM     49  H15 EV4 d   1      18.974 -39.893   8.874  0.00  0.00     0.072 H 
ENDBRANCH  28  33
ENDBRANCH   1  26
TORSDOF 6
