REMARK  7 active torsions:
REMARK  status: ('A' for Active; 'I' for Inactive)
REMARK    1  A    between atoms: N9_9  and  C12_12 
REMARK    2  A    between atoms: C12_12  and  C13_13 
REMARK    3  A    between atoms: C12_12  and  C15_15 
REMARK    4  A    between atoms: C13_13  and  C14_14 
REMARK    5  A    between atoms: C15_15  and  C16_16 
REMARK       I    between atoms: C16_16  and  N17_17 
REMARK    6  A    between atoms: N17_17  and  C19_19 
REMARK    7  A    between atoms: C19_19  and  C20_20 
ROOT
ATOM      1  C15 EV5 d   1      16.527 -42.656   7.481  0.00  0.00     0.029 C 
ATOM      2  H12 EV5 d   1      16.475 -42.305   6.440  0.00  0.00     0.050 H 
ATOM      3  H13 EV5 d   1      16.330 -43.738   7.514  0.00  0.00     0.050 H 
ENDROOT
BRANCH   1   4
ATOM      4  C12 EV5 d   1      15.464 -41.929   8.307  0.00  0.00     0.042 C 
ATOM      5  H6  EV5 d   1      15.494 -42.329   9.331  0.00  0.00     0.074 H 
BRANCH   4   6
ATOM      6  N9  EV5 d   1      15.763 -40.465   8.379  0.00  0.00    -0.174 N 
ATOM      7  C1  EV5 d   1      16.124 -39.801   9.486  0.00  0.00     0.081 A 
ATOM      8  C2  EV5 d   1      16.329 -40.178  10.812  0.00  0.00    -0.052 A 
ATOM      9  C6  EV5 d   1      16.321 -38.373   9.102  0.00  0.00     0.105 A 
ATOM     10  C3  EV5 d   1      16.712 -39.216  11.748  0.00  0.00    -0.060 A 
ATOM     11  H1  EV5 d   1      16.192 -41.210  11.114  0.00  0.00     0.087 H 
ATOM     12  C4  EV5 d   1      16.896 -37.879  11.385  0.00  0.00     0.036 A 
ATOM     13  H2  EV5 d   1      16.870 -39.512  12.779  0.00  0.00     0.086 H 
ATOM     14  C5  EV5 d   1      16.703 -37.452  10.071  0.00  0.00    -0.031 A 
ATOM     15 CL11 EV5 d   1      17.389 -36.683  12.628  0.00  0.00    -0.084 Cl
ATOM     16  H3  EV5 d   1      16.850 -36.411   9.808  0.00  0.00     0.089 H 
ATOM     17  N7  EV5 d   1      16.064 -38.278   7.784  0.00  0.00    -0.063 NA
ATOM     18  C8  EV5 d   1      15.743 -39.530   7.413  0.00  0.00     0.701 A 
ATOM     19  N10 EV5 d   1      15.423 -39.790   6.121  0.00  0.00    -0.233 N 
ATOM     20  H4  EV5 d   1      15.426 -39.029   5.427  0.00  0.00     0.174 HD
ATOM     21  H5  EV5 d   1      15.177 -40.748   5.834  0.00  0.00     0.174 HD
ENDBRANCH   4   6
BRANCH   4  22
ATOM     22  C13 EV5 d   1      14.070 -42.199   7.739  0.00  0.00    -0.048 C 
ATOM     23  H7  EV5 d   1      13.935 -43.285   7.630  0.00  0.00     0.035 H 
ATOM     24  H8  EV5 d   1      13.989 -41.718   6.753  0.00  0.00     0.035 H 
BRANCH  22  25
ATOM     25  C14 EV5 d   1      12.979 -41.658   8.639  0.00  0.00    -0.075 C 
ATOM     26  H9  EV5 d   1      11.996 -41.873   8.194  0.00  0.00     0.027 H 
ATOM     27  H10 EV5 d   1      13.101 -40.570   8.750  0.00  0.00     0.027 H 
ATOM     28  H11 EV5 d   1      13.047 -42.137   9.627  0.00  0.00     0.027 H 
ENDBRANCH  22  25
ENDBRANCH   4  22
ENDBRANCH   1   4
BRANCH   1  29
ATOM     29  C16 EV5 d   1      17.915 -42.389   8.025  0.00  0.00     0.219 C 
ATOM     30  N17 EV5 d   1      18.741 -41.730   7.211  0.00  0.00    -0.361 N 
ATOM     31  H14 EV5 d   1      18.356 -41.476   6.324  0.00  0.00     0.162 HD
ATOM     32  O18 EV5 d   1      18.232 -42.768   9.143  0.00  0.00    -0.274 OA
BRANCH  30  33
ATOM     33  C19 EV5 d   1      20.127 -41.326   7.429  0.00  0.00    -0.002 C 
ATOM     34  H15 EV5 d   1      20.662 -41.275   6.469  0.00  0.00     0.064 H 
ATOM     35  H16 EV5 d   1      20.631 -42.045   8.092  0.00  0.00     0.064 H 
BRANCH  33  36
ATOM     36  C20 EV5 d   1      20.090 -39.946   8.083  0.00  0.00    -0.039 C 
ATOM     37  C21 EV5 d   1      19.546 -38.900   7.107  0.00  0.00    -0.060 C 
ATOM     38  C22 EV5 d   1      19.548 -37.500   7.723  0.00  0.00    -0.065 C 
ATOM     39  H18 EV5 d   1      18.515 -39.169   6.834  0.00  0.00     0.033 H 
ATOM     40  H19 EV5 d   1      20.174 -38.894   6.204  0.00  0.00     0.033 H 
ATOM     41  C23 EV5 d   1      20.936 -37.102   8.227  0.00  0.00    -0.065 C 
ATOM     42  H20 EV5 d   1      18.844 -37.482   8.568  0.00  0.00     0.033 H 
ATOM     43  H21 EV5 d   1      19.225 -36.776   6.961  0.00  0.00     0.033 H 
ATOM     44  C24 EV5 d   1      21.537 -38.163   9.151  0.00  0.00    -0.065 C 
ATOM     45  H22 EV5 d   1      20.855 -36.155   8.780  0.00  0.00     0.033 H 
ATOM     46  H23 EV5 d   1      21.602 -36.966   7.362  0.00  0.00     0.033 H 
ATOM     47  C25 EV5 d   1      21.504 -39.557   8.521  0.00  0.00    -0.060 C 
ATOM     48  H24 EV5 d   1      20.963 -38.184  10.089  0.00  0.00     0.033 H 
ATOM     49  H25 EV5 d   1      22.582 -37.895   9.367  0.00  0.00     0.033 H 
ATOM     50  H26 EV5 d   1      22.165 -39.567   7.642  0.00  0.00     0.033 H 
ATOM     51  H27 EV5 d   1      21.863 -40.290   9.258  0.00  0.00     0.033 H 
ATOM     52  H17 EV5 d   1      19.435 -39.985   8.966  0.00  0.00     0.042 H 
ENDBRANCH  33  36
ENDBRANCH  30  33
ENDBRANCH   1  29
TORSDOF 7
