REMARK  10 active torsions:
REMARK  status: ('A' for Active; 'I' for Inactive)
REMARK    1  A    between atoms: N1_2  and  C1_1 
REMARK    2  A    between atoms: C7_17  and  N1_2 
REMARK    3  A    between atoms: C2_5  and  O2_7 
REMARK    4  A    between atoms: N2_6  and  C7_17 
REMARK    5  A    between atoms: C3_8  and  O3_10 
REMARK    6  A    between atoms: C8_18  and  N3_9 
REMARK    7  A    between atoms: C4_11  and  O4_12 
REMARK    8  A    between atoms: C5_13  and  C6_15 
REMARK    9  A    between atoms: C6_15  and  O6_16 
REMARK   10  A    between atoms: C9_19  and  C8_18 
ROOT
ATOM      1  C1  16O d   1      19.406  15.121  56.155  0.00  0.00     0.133 C 
ATOM      2  C2  16O d   1      20.735  15.472  55.467  0.00  0.00     0.104 C 
ATOM      3  C3  16O d   1      21.066  16.948  55.751  0.00  0.00     0.091 C 
ATOM      4  C4  16O d   1      19.882  17.842  55.363  0.00  0.00     0.089 C 
ATOM      5  C5  16O d   1      18.649  17.385  56.135  0.00  0.00     0.088 C 
ATOM      6  O5  16O d   1      18.392  16.037  55.737  0.00  0.00    -0.354 OA
ATOM      7  H1  16O d   1      19.525  15.118  57.249  0.00  0.00     0.122 H 
ATOM      8  H3  16O d   1      20.614  15.351  54.380  0.00  0.00     0.093 H 
ATOM      9  H5  16O d   1      21.259  17.062  56.828  0.00  0.00     0.091 H 
ATOM     10  H7  16O d   1      19.694  17.730  54.285  0.00  0.00     0.091 H 
ATOM     11  H9  16O d   1      18.882  17.413  57.210  0.00  0.00     0.090 H 
ENDROOT
BRANCH   1  12
ATOM     12  N1  16O d   1      18.942  13.841  55.662  0.00  0.00    -0.336 N 
ATOM     13  H2  16O d   1      18.925  13.679  54.675  0.00  0.00     0.164 HD
BRANCH  12  14
ATOM     14  C7  16O d   1      18.537  12.874  56.481  0.00  0.00     0.216 C 
ATOM     15  S1  16O d   1      18.584  13.023  58.169  0.00  0.00    -0.037 SA
BRANCH  14  16
ATOM     16  N2  16O d   1      18.102  11.754  55.948  0.00  0.00    -0.125 NA
ATOM     17  N3  16O d   1      18.070  11.646  54.717  0.00  0.00    -0.186 NA
BRANCH  17  18
ATOM     18  C8  16O d   1      17.652  10.571  54.247  0.00  0.00     0.058 C 
ATOM     19  H13 16O d   1      16.630  10.440  54.633  0.00  0.00     0.077 H 
ATOM     20  H14 16O d   1      18.302   9.781  54.653  0.00  0.00     0.077 H 
BRANCH  18  21
ATOM     21  C9  16O d   1      17.580  10.345  52.800  0.00  0.00    -0.037 A 
ATOM     22  C10 16O d   1      16.751   9.329  52.342  0.00  0.00    -0.074 A 
ATOM     23  C11 16O d   1      16.676   9.084  50.981  0.00  0.00    -0.066 A 
ATOM     24  H15 16O d   1      16.171   8.736  53.040  0.00  0.00     0.084 H 
ATOM     25  C12 16O d   1      17.422   9.857  50.105  0.00  0.00     0.011 A 
ATOM     26  H16 16O d   1      16.038   8.293  50.603  0.00  0.00     0.085 H 
ATOM     27 BR1  16O d   1      17.293   9.499  48.262  0.00  0.00    -0.051 Br
ATOM     28  C13 16O d   1      18.252  10.889  50.556  0.00  0.00    -0.066 A 
ATOM     29  C14 16O d   1      18.332  11.130  51.918  0.00  0.00    -0.074 A 
ATOM     30  H17 16O d   1      18.821  11.488  49.854  0.00  0.00     0.085 H 
ATOM     31  H18 16O d   1      18.971  11.919  52.297  0.00  0.00     0.084 H 
ENDBRANCH  18  21
ENDBRANCH  17  18
ENDBRANCH  14  16
ENDBRANCH  12  14
ENDBRANCH   1  12
BRANCH   2  32
ATOM     32  O2  16O d   1      21.765  14.570  55.901  0.00  0.00    -0.389 OA
ATOM     33  H4  16O d   1      21.871  14.642  56.842  0.00  0.00     0.210 HD
ENDBRANCH   2  32
BRANCH   3  34
ATOM     34  O3  16O d   1      22.231  17.361  55.031  0.00  0.00    -0.390 OA
ATOM     35  H6  16O d   1      22.079  17.256  54.099  0.00  0.00     0.210 HD
ENDBRANCH   3  34
BRANCH   5  36
ATOM     36  C6  16O d   1      17.394  18.232  55.903  0.00  0.00     0.043 C 
ATOM     37  H10 16O d   1      17.516  19.207  56.398  0.00  0.00     0.078 H 
ATOM     38  H11 16O d   1      16.521  17.713  56.326  0.00  0.00     0.078 H 
BRANCH  36  39
ATOM     39  O6  16O d   1      17.190  18.436  54.500  0.00  0.00    -0.398 OA
ATOM     40  H12 16O d   1      16.410  18.962  54.368  0.00  0.00     0.209 HD
ENDBRANCH  36  39
ENDBRANCH   5  36
BRANCH   4  41
ATOM     41  O4  16O d   1      20.145  19.223  55.638  0.00  0.00    -0.390 OA
ATOM     42  H8  16O d   1      20.906  19.504  55.144  0.00  0.00     0.210 HD
ENDBRANCH   4  41
TORSDOF 10
