REMARK  10 active torsions:
REMARK  status: ('A' for Active; 'I' for Inactive)
REMARK    1  A    between atoms: N1_2  and  C1_1 
REMARK    2  A    between atoms: C7_17  and  N1_2 
REMARK    3  A    between atoms: C7_17  and  S1_3 
REMARK    4  A    between atoms: C2_5  and  O2_7 
REMARK    5  A    between atoms: N3_9  and  N2_6 
REMARK    6  A    between atoms: C3_8  and  O3_10 
REMARK    7  A    between atoms: C4_11  and  O4_12 
REMARK    8  A    between atoms: C5_13  and  C6_15 
REMARK    9  A    between atoms: C6_15  and  O6_16 
REMARK   10  A    between atoms: C9_19  and  C8_18 
ROOT
ATOM      1  C1  17T d   1      19.228  15.239  56.078  0.00  0.00     0.133 C 
ATOM      2  C2  17T d   1      20.590  15.588  55.429  0.00  0.00     0.104 C 
ATOM      3  C3  17T d   1      20.982  17.045  55.732  0.00  0.00     0.091 C 
ATOM      4  C4  17T d   1      19.827  17.989  55.371  0.00  0.00     0.089 C 
ATOM      5  C5  17T d   1      18.550  17.566  56.117  0.00  0.00     0.088 C 
ATOM      6  O5  17T d   1      18.213  16.209  55.712  0.00  0.00    -0.354 OA
ATOM      7  H1  17T d   1      19.343  15.208  57.172  0.00  0.00     0.122 H 
ATOM      8  H4  17T d   1      20.493  15.477  54.339  0.00  0.00     0.093 H 
ATOM      9  H6  17T d   1      21.194  17.138  56.807  0.00  0.00     0.091 H 
ATOM     10  H8  17T d   1      19.643  17.925  54.288  0.00  0.00     0.091 H 
ATOM     11  H10 17T d   1      18.763  17.579  57.196  0.00  0.00     0.090 H 
ENDROOT
BRANCH   1  12
ATOM     12  N1  17T d   1      18.752  13.938  55.577  0.00  0.00    -0.339 N 
ATOM     13  H2  17T d   1      18.721  13.789  54.558  0.00  0.00     0.164 HD
BRANCH  12  14
ATOM     14  C7  17T d   1      18.357  12.938  56.376  0.00  0.00     0.183 C 
ATOM     15  N2  17T d   1      17.941  11.795  55.833  0.00  0.00    -0.125 NA
BRANCH  14  16
ATOM     16  S1  17T d   1      18.377  13.095  58.128  0.00  0.00    -0.104 SA
ATOM     17  H3  17T d   1      18.045  12.239  58.545  0.00  0.00     0.110 HD
ENDBRANCH  14  16
BRANCH  15  18
ATOM     18  N3  17T d   1      17.919  11.668  54.608  0.00  0.00    -0.159 NA
ATOM     19  C8  17T d   1      17.507  10.543  54.062  0.00  0.00     0.034 C 
ATOM     20  H14 17T d   1      17.180   9.726  54.704  0.00  0.00     0.118 H 
BRANCH  19  21
ATOM     21  C9  17T d   1      17.481  10.377  52.682  0.00  0.00    -0.017 A 
ATOM     22  C10 17T d   1      16.692   9.361  52.145  0.00  0.00    -0.070 A 
ATOM     23  C11 17T d   1      16.660   9.166  50.770  0.00  0.00    -0.061 A 
ATOM     24  H15 17T d   1      16.105   8.725  52.798  0.00  0.00     0.084 H 
ATOM     25  C12 17T d   1      17.409   9.987  49.935  0.00  0.00     0.034 A 
ATOM     26  H16 17T d   1      16.051   8.374  50.349  0.00  0.00     0.086 H 
ATOM     27 CL1  17T d   1      17.345   9.722  48.232  0.00  0.00    -0.084 Cl
ATOM     28  C13 17T d   1      18.200  11.010  50.462  0.00  0.00    -0.061 A 
ATOM     29  C14 17T d   1      18.235  11.202  51.841  0.00  0.00    -0.070 A 
ATOM     30  H17 17T d   1      18.780  11.648  49.805  0.00  0.00     0.086 H 
ATOM     31  H18 17T d   1      18.847  11.991  52.263  0.00  0.00     0.084 H 
ENDBRANCH  19  21
ENDBRANCH  15  18
ENDBRANCH  12  14
ENDBRANCH   1  12
BRANCH   2  32
ATOM     32  O2  17T d   1      21.603  14.685  55.886  0.00  0.00    -0.389 OA
ATOM     33  H5  17T d   1      22.432  14.910  55.481  0.00  0.00     0.210 HD
ENDBRANCH   2  32
BRANCH   3  34
ATOM     34  O3  17T d   1      22.157  17.411  54.996  0.00  0.00    -0.390 OA
ATOM     35  H7  17T d   1      21.987  17.323  54.066  0.00  0.00     0.210 HD
ENDBRANCH   3  34
BRANCH   5  36
ATOM     36  C6  17T d   1      17.340  18.477  55.860  0.00  0.00     0.043 C 
ATOM     37  H11 17T d   1      17.605  19.516  56.107  0.00  0.00     0.078 H 
ATOM     38  H12 17T d   1      16.498  18.154  56.490  0.00  0.00     0.078 H 
BRANCH  36  39
ATOM     39  O6  17T d   1      16.961  18.397  54.483  0.00  0.00    -0.398 OA
ATOM     40  H13 17T d   1      16.213  18.962  54.328  0.00  0.00     0.209 HD
ENDBRANCH  36  39
ENDBRANCH   5  36
BRANCH   4  41
ATOM     41  O4  17T d   1      20.166  19.341  55.700  0.00  0.00    -0.390 OA
ATOM     42  H9  17T d   1      20.941  19.599  55.215  0.00  0.00     0.210 HD
ENDBRANCH   4  41
TORSDOF 10
