REMARK  11 active torsions:
REMARK  status: ('A' for Active; 'I' for Inactive)
REMARK    1  A    between atoms: N1_2  and  C1_1 
REMARK    2  A    between atoms: C7_17  and  N1_2 
REMARK    3  A    between atoms: C2_4  and  O2_6 
REMARK    4  A    between atoms: N2_5  and  C7_17 
REMARK    5  A    between atoms: C3_7  and  O3_9 
REMARK    6  A    between atoms: C8_19  and  N3_8 
REMARK    7  A    between atoms: C4_10  and  O4_12 
REMARK    8  A    between atoms: C12_24  and  N4_11 
REMARK    9  A    between atoms: C5_13  and  C6_15 
REMARK   10  A    between atoms: C6_15  and  O6_16 
REMARK   11  A    between atoms: C9_21  and  C8_19 
ROOT
ATOM      1  C1  18O d   1      19.319  15.256  56.190  0.00  0.00     0.133 C 
ATOM      2  C2  18O d   1      20.656  15.548  55.478  0.00  0.00     0.104 C 
ATOM      3  C3  18O d   1      21.079  16.999  55.739  0.00  0.00     0.091 C 
ATOM      4  C4  18O d   1      19.955  17.939  55.298  0.00  0.00     0.089 C 
ATOM      5  C5  18O d   1      18.635  17.595  55.971  0.00  0.00     0.088 C 
ATOM      6  O5  18O d   1      18.322  16.207  55.783  0.00  0.00    -0.354 OA
ATOM      7  H1  18O d   1      19.449  15.269  57.282  0.00  0.00     0.122 H 
ATOM      8  H3  18O d   1      20.493  15.435  54.396  0.00  0.00     0.093 H 
ATOM      9  H5  18O d   1      21.273  17.131  56.814  0.00  0.00     0.091 H 
ATOM     10  H7  18O d   1      19.834  17.836  54.209  0.00  0.00     0.091 H 
ATOM     11  H9  18O d   1      18.697  17.815  57.047  0.00  0.00     0.090 H 
ENDROOT
BRANCH   1  12
ATOM     12  N1  18O d   1      18.860  13.952  55.723  0.00  0.00    -0.336 N 
ATOM     13  H2  18O d   1      18.792  13.809  54.736  0.00  0.00     0.164 HD
BRANCH  12  14
ATOM     14  C7  18O d   1      18.523  12.931  56.525  0.00  0.00     0.216 C 
ATOM     15  S1  18O d   1      18.605  13.012  58.219  0.00  0.00    -0.037 SA
BRANCH  14  16
ATOM     16  N2  18O d   1      18.111  11.792  55.972  0.00  0.00    -0.125 NA
ATOM     17  N3  18O d   1      18.046  11.698  54.737  0.00  0.00    -0.186 NA
BRANCH  17  18
ATOM     18  C8  18O d   1      17.666  10.629  54.201  0.00  0.00     0.058 C 
ATOM     19  H13 18O d   1      16.655  10.423  54.583  0.00  0.00     0.077 H 
ATOM     20  H14 18O d   1      18.354   9.840  54.540  0.00  0.00     0.077 H 
BRANCH  18  21
ATOM     21  C9  18O d   1      17.596  10.533  52.730  0.00  0.00    -0.037 A 
ATOM     22  C10 18O d   1      18.275  11.459  51.930  0.00  0.00    -0.073 A 
ATOM     23  C11 18O d   1      18.212  11.361  50.545  0.00  0.00    -0.050 A 
ATOM     24  H15 18O d   1      18.851  12.254  52.391  0.00  0.00     0.084 H 
ATOM     25  C12 18O d   1      17.471  10.328  49.961  0.00  0.00     0.102 A 
ATOM     26  H16 18O d   1      18.733  12.079  49.922  0.00  0.00     0.087 H 
ATOM     27  C13 18O d   1      16.795   9.405  50.765  0.00  0.00    -0.050 A 
ATOM     28  C14 18O d   1      16.852   9.506  52.153  0.00  0.00    -0.073 A 
ATOM     29  H17 18O d   1      16.224   8.607  50.306  0.00  0.00     0.087 H 
ATOM     30  H18 18O d   1      16.324   8.794  52.777  0.00  0.00     0.084 H 
BRANCH  25  31
ATOM     31  N4  18O d   1      17.378  10.212  48.560  0.00  0.00    -0.116 N 
ATOM     32  O7  18O d   1      17.546  11.188  47.850  0.00  0.00    -0.532 OA
ATOM     33  O8  18O d   1      17.090   9.139  48.051  0.00  0.00    -0.532 OA
ENDBRANCH  25  31
ENDBRANCH  18  21
ENDBRANCH  17  18
ENDBRANCH  14  16
ENDBRANCH  12  14
ENDBRANCH   1  12
BRANCH   2  34
ATOM     34  O2  18O d   1      21.680  14.614  55.858  0.00  0.00    -0.389 OA
ATOM     35  H4  18O d   1      22.485  14.825  55.401  0.00  0.00     0.210 HD
ENDBRANCH   2  34
BRANCH   3  36
ATOM     36  O3  18O d   1      22.258  17.334  55.000  0.00  0.00    -0.390 OA
ATOM     37  H6  18O d   1      22.497  18.236  55.179  0.00  0.00     0.210 HD
ENDBRANCH   3  36
BRANCH   5  38
ATOM     38  C6  18O d   1      17.551  18.447  55.325  0.00  0.00     0.043 C 
ATOM     39  H10 18O d   1      17.576  18.316  54.233  0.00  0.00     0.078 H 
ATOM     40  H11 18O d   1      17.714  19.507  55.571  0.00  0.00     0.078 H 
BRANCH  38  41
ATOM     41  O6  18O d   1      16.289  18.022  55.833  0.00  0.00    -0.398 OA
ATOM     42  H12 18O d   1      16.155  17.106  55.620  0.00  0.00     0.209 HD
ENDBRANCH  38  41
ENDBRANCH   5  38
BRANCH   4  43
ATOM     43  O4  18O d   1      20.259  19.302  55.600  0.00  0.00    -0.390 OA
ATOM     44  H8  18O d   1      21.056  19.555  55.149  0.00  0.00     0.210 HD
ENDBRANCH   4  43
TORSDOF 11
