REMARK  10 active torsions:
REMARK  status: ('A' for Active; 'I' for Inactive)
REMARK    1  A    between atoms: N1_2  and  C1_1 
REMARK    2  A    between atoms: C7_17  and  N1_2 
REMARK    3  A    between atoms: C2_5  and  O2_7 
REMARK    4  A    between atoms: N2_6  and  C7_17 
REMARK    5  A    between atoms: C3_8  and  O6_16 
REMARK    6  A    between atoms: C8_18  and  N3_9 
REMARK    7  A    between atoms: C6_15  and  O3_10 
REMARK    8  A    between atoms: C4_11  and  O4_12 
REMARK    9  A    between atoms: C5_13  and  C6_15 
REMARK   10  A    between atoms: C9_19  and  C8_18 
ROOT
ATOM      1  C1  23V d   1      19.253  15.138  56.045  0.00  0.00     0.133 C 
ATOM      2  C2  23V d   1      20.661  15.490  55.511  0.00  0.00     0.104 C 
ATOM      3  C3  23V d   1      21.001  16.950  55.859  0.00  0.00     0.091 C 
ATOM      4  C4  23V d   1      19.889  17.890  55.377  0.00  0.00     0.089 C 
ATOM      5  C5  23V d   1      18.541  17.432  55.917  0.00  0.00     0.088 C 
ATOM      6  O5  23V d   1      18.302  16.077  55.514  0.00  0.00    -0.354 OA
ATOM      7  H1  23V d   1      19.254  15.156  57.145  0.00  0.00     0.122 H 
ATOM      8  H3  23V d   1      20.645  15.390  54.416  0.00  0.00     0.093 H 
ATOM      9  H5  23V d   1      21.081  17.031  56.953  0.00  0.00     0.091 H 
ATOM     10  H7  23V d   1      19.868  17.884  54.277  0.00  0.00     0.091 H 
ATOM     11  H9  23V d   1      18.561  17.478  57.016  0.00  0.00     0.090 H 
ENDROOT
BRANCH   1  12
ATOM     12  N1  23V d   1      18.821  13.834  55.551  0.00  0.00    -0.336 N 
ATOM     13  H2  23V d   1      18.886  13.661  54.568  0.00  0.00     0.164 HD
BRANCH  12  14
ATOM     14  C7  23V d   1      18.342  12.852  56.333  0.00  0.00     0.216 C 
ATOM     15  S1  23V d   1      18.232  13.011  58.026  0.00  0.00    -0.037 SA
BRANCH  14  16
ATOM     16  N2  23V d   1      17.949  11.703  55.779  0.00  0.00    -0.125 NA
ATOM     17  N3  23V d   1      18.001  11.521  54.546  0.00  0.00    -0.186 NA
BRANCH  17  18
ATOM     18  C8  23V d   1      17.620  10.417  54.082  0.00  0.00     0.058 C 
ATOM     19  H13 23V d   1      16.573  10.298  54.397  0.00  0.00     0.077 H 
ATOM     20  H14 23V d   1      18.239   9.650  54.571  0.00  0.00     0.077 H 
BRANCH  18  21
ATOM     21  C9  23V d   1      17.651  10.109  52.634  0.00  0.00    -0.035 A 
ATOM     22  C10 23V d   1      18.366  10.920  51.772  0.00  0.00    -0.054 A 
ATOM     23  C11 23V d   1      18.377  10.582  50.425  0.00  0.00     0.034 A 
ATOM     24  H15 23V d   1      18.900  11.790  52.136  0.00  0.00     0.086 H 
ATOM     25 CL1  23V d   1      19.283  11.632  49.332  0.00  0.00    -0.084 Cl
ATOM     26  C12 23V d   1      17.706   9.476  49.905  0.00  0.00    -0.062 A 
ATOM     27  C13 23V d   1      16.992   8.665  50.769  0.00  0.00    -0.081 A 
ATOM     28  H16 23V d   1      17.743   9.256  48.844  0.00  0.00     0.086 H 
ATOM     29  C14 23V d   1      16.967   8.993  52.129  0.00  0.00    -0.075 A 
ATOM     30  H17 23V d   1      16.463   7.794  50.400  0.00  0.00     0.083 H 
ATOM     31  H18 23V d   1      16.403   8.367  52.812  0.00  0.00     0.084 H 
ENDBRANCH  18  21
ENDBRANCH  17  18
ENDBRANCH  14  16
ENDBRANCH  12  14
ENDBRANCH   1  12
BRANCH   2  32
ATOM     32  O2  23V d   1      21.671  14.601  56.022  0.00  0.00    -0.389 OA
ATOM     33  H4  23V d   1      22.518  14.851  55.671  0.00  0.00     0.210 HD
ENDBRANCH   2  32
BRANCH   3  34
ATOM     34  O6  23V d   1      22.247  17.365  55.283  0.00  0.00    -0.390 OA
ATOM     35  H12 23V d   1      22.439  18.255  55.555  0.00  0.00     0.210 HD
ENDBRANCH   3  34
BRANCH   5  36
ATOM     36  C6  23V d   1      17.435  18.349  55.409  0.00  0.00     0.043 C 
ATOM     37  H10 23V d   1      17.186  19.093  56.180  0.00  0.00     0.078 H 
ATOM     38  H11 23V d   1      17.770  18.864  54.497  0.00  0.00     0.078 H 
BRANCH  36  39
ATOM     39  O3  23V d   1      16.288  17.556  55.119  0.00  0.00    -0.398 OA
ATOM     40  H6  23V d   1      16.508  16.914  54.455  0.00  0.00     0.209 HD
ENDBRANCH  36  39
ENDBRANCH   5  36
BRANCH   4  41
ATOM     41  O4  23V d   1      20.110  19.222  55.841  0.00  0.00    -0.390 OA
ATOM     42  H8  23V d   1      20.942  19.538  55.509  0.00  0.00     0.210 HD
ENDBRANCH   4  41
TORSDOF 10
