REMARK  10 active torsions:
REMARK  status: ('A' for Active; 'I' for Inactive)
REMARK    1  A    between atoms: C1_1  and  NAL_12 
REMARK    2  A    between atoms: C2_2  and  O2_3 
REMARK    3  A    between atoms: C3_4  and  O3_5 
REMARK    4  A    between atoms: C4_6  and  O4_7 
REMARK    5  A    between atoms: C5_8  and  C6_10 
REMARK    6  A    between atoms: C6_10  and  O6_11 
REMARK    7  A    between atoms: CAM_13  and  NAN_14 
REMARK    8  A    between atoms: NAP_16  and  CAQ_17 
REMARK    9  A    between atoms: CAQ_17  and  CAR_18 
REMARK   10  A    between atoms: CAU_21  and  OAX_24 
ROOT
ATOM      1  C1  25E d   1      33.517  22.836  27.814  0.00  0.00     0.133 C 
ATOM      2  C2  25E d   1      33.863  23.106  26.348  0.00  0.00     0.104 C 
ATOM      3  C3  25E d   1      32.727  22.522  25.491  0.00  0.00     0.091 C 
ATOM      4  C4  25E d   1      32.444  21.048  25.840  0.00  0.00     0.089 C 
ATOM      5  C5  25E d   1      32.313  20.819  27.362  0.00  0.00     0.088 C 
ATOM      6  O5  25E d   1      33.423  21.416  28.035  0.00  0.00    -0.354 OA
ATOM      7  H1  25E d   1      32.573  23.336  28.075  0.00  0.00     0.122 H 
ATOM      8  H2  25E d   1      34.805  22.597  26.096  0.00  0.00     0.093 H 
ATOM      9  H4  25E d   1      31.815  23.098  25.710  0.00  0.00     0.091 H 
ATOM     10  H6  25E d   1      33.273  20.432  25.462  0.00  0.00     0.091 H 
ATOM     11  H8  25E d   1      31.393  21.325  27.690  0.00  0.00     0.090 H 
ENDROOT
BRANCH   1  12
ATOM     12  NAL 25E d   1      34.597  23.293  28.673  0.00  0.00    -0.336 N 
ATOM     13  CAM 25E d   1      34.373  24.001  29.790  0.00  0.00     0.216 C 
ATOM     14  SAO 25E d   1      32.789  24.475  30.248  0.00  0.00    -0.037 SA
ATOM     15  H12 25E d   1      35.539  23.072  28.422  0.00  0.00     0.164 HD
BRANCH  13  16
ATOM     16  NAN 25E d   1      35.452  24.321  30.515  0.00  0.00    -0.125 NA
ATOM     17  NAP 25E d   1      36.577  23.931  30.104  0.00  0.00    -0.186 NA
BRANCH  17  18
ATOM     18  CAQ 25E d   1      37.671  24.159  30.688  0.00  0.00     0.058 C 
ATOM     19  H13 25E d   1      38.291  24.684  29.946  0.00  0.00     0.077 H 
ATOM     20  H14 25E d   1      38.102  23.168  30.891  0.00  0.00     0.077 H 
BRANCH  18  21
ATOM     21  CAR 25E d   1      37.842  24.929  31.958  0.00  0.00    -0.037 A 
ATOM     22  CAS 25E d   1      36.748  25.314  32.746  0.00  0.00    -0.072 A 
ATOM     23  CAT 25E d   1      36.947  26.033  33.926  0.00  0.00    -0.050 A 
ATOM     24  H15 25E d   1      35.742  25.052  32.437  0.00  0.00     0.084 H 
ATOM     25  CAU 25E d   1      38.245  26.365  34.323  0.00  0.00     0.065 A 
ATOM     26  H16 25E d   1      36.099  26.332  34.531  0.00  0.00     0.087 H 
ATOM     27  CAV 25E d   1      39.342  25.986  33.545  0.00  0.00    -0.050 A 
ATOM     28  CAW 25E d   1      39.136  25.265  32.368  0.00  0.00    -0.072 A 
ATOM     29  H17 25E d   1      40.347  26.250  33.854  0.00  0.00     0.087 H 
ATOM     30  H18 25E d   1      39.986  24.963  31.767  0.00  0.00     0.084 H 
BRANCH  25  31
ATOM     31  OAX 25E d   1      38.449  27.062  35.475  0.00  0.00    -0.361 OA
ATOM     32  H19 25E d   1      38.889  27.880  35.275  0.00  0.00     0.217 HD
ENDBRANCH  25  31
ENDBRANCH  18  21
ENDBRANCH  17  18
ENDBRANCH  13  16
ENDBRANCH   1  12
BRANCH   2  33
ATOM     33  O2  25E d   1      34.029  24.519  26.115  0.00  0.00    -0.389 OA
ATOM     34  H3  25E d   1      34.243  24.665  25.201  0.00  0.00     0.210 HD
ENDBRANCH   2  33
BRANCH   3  35
ATOM     35  O3  25E d   1      33.014  22.667  24.090  0.00  0.00    -0.390 OA
ATOM     36  H5  25E d   1      33.111  23.589  23.882  0.00  0.00     0.210 HD
ENDBRANCH   3  35
BRANCH   5  37
ATOM     37  C6  25E d   1      32.208  19.350  27.793  0.00  0.00     0.043 C 
ATOM     38  H9  25E d   1      31.232  18.956  27.473  0.00  0.00     0.078 H 
ATOM     39  H10 25E d   1      32.284  19.296  28.889  0.00  0.00     0.078 H 
BRANCH  37  40
ATOM     40  O6  25E d   1      33.249  18.537  27.215  0.00  0.00    -0.398 OA
ATOM     41  H11 25E d   1      34.096  18.866  27.491  0.00  0.00     0.209 HD
ENDBRANCH  37  40
ENDBRANCH   5  37
BRANCH   4  42
ATOM     42  O4  25E d   1      31.232  20.648  25.204  0.00  0.00    -0.390 OA
ATOM     43  H7  25E d   1      30.519  21.195  25.512  0.00  0.00     0.210 HD
ENDBRANCH   4  42
TORSDOF 10
