REMARK  8 active torsions:
REMARK  status: ('A' for Active; 'I' for Inactive)
REMARK    1  A    between atoms: CP_1  and  P_2 
REMARK    2  A    between atoms: P_2  and  N_5 
REMARK    3  A    between atoms: N_5  and  CA_6 
REMARK    4  A    between atoms: CA_6  and  C_7 
REMARK    5  A    between atoms: CA_6  and  CB_9 
REMARK    6  A    between atoms: CB_9  and  CG_10 
REMARK    7  A    between atoms: CG_10  and  CD_11 
REMARK    8  A    between atoms: CD_11  and  NE_12 
REMARK       I    between atoms: NE_12  and  CZ_13 
REMARK       I    between atoms: CZ_13  and  NH2_14 
ROOT
ATOM      1  CB  M3R d   1      31.273 117.799   8.240  0.00  0.00    -0.035 C 
ATOM      2  H6  M3R d   1      31.803 117.007   7.691  0.00  0.00     0.036 H 
ATOM      3  H7  M3R d   1      31.393 117.639   9.322  0.00  0.00     0.036 H 
ENDROOT
BRANCH   1   4
ATOM      4  CA  M3R d   1      29.776 117.681   7.909  0.00  0.00     0.097 C 
ATOM      5  H5  M3R d   1      29.273 118.539   8.379  0.00  0.00     0.089 H 
BRANCH   4   6
ATOM      6  N   M3R d   1      29.124 116.437   8.456  0.00  0.00    -0.335 N 
ATOM      7  H4  M3R d   1      29.542 115.540   8.313  0.00  0.00     0.164 HD
BRANCH   6   8
ATOM      8  P   M3R d   1      27.732 116.577   9.281  0.00  0.00     0.201 P 
ATOM      9  OPA M3R d   1      28.199 117.188  10.649  0.00  0.00    -0.652 OA
ATOM     10  OPB M3R d   1      26.877 117.600   8.601  0.00  0.00    -0.652 OA
BRANCH   8  11
ATOM     11  CP  M3R d   1      26.833 115.064   9.504  0.00  0.00     0.013 C 
ATOM     12  H1  M3R d   1      27.477 114.326  10.004  0.00  0.00     0.044 H 
ATOM     13  H2  M3R d   1      26.522 114.674   8.524  0.00  0.00     0.044 H 
ATOM     14  H3  M3R d   1      25.943 115.254  10.122  0.00  0.00     0.044 H 
ENDBRANCH   8  11
ENDBRANCH   6   8
ENDBRANCH   4   6
BRANCH   4  15
ATOM     15  C   M3R d   1      29.564 117.786   6.410  0.00  0.00     0.196 C 
ATOM     16  OXT M3R d   1      29.587 116.775   5.716  0.00  0.00    -0.646 OA
ATOM     17  O   M3R d   1      29.334 118.851   5.873  0.00  0.00    -0.646 OA
ENDBRANCH   4  15
ENDBRANCH   1   4
BRANCH   1  18
ATOM     18  CG  M3R d   1      31.931 119.131   7.889  0.00  0.00    -0.047 C 
ATOM     19  H8  M3R d   1      31.817 119.889   8.678  0.00  0.00     0.035 H 
ATOM     20  H9  M3R d   1      31.583 119.544   6.931  0.00  0.00     0.035 H 
BRANCH  18  21
ATOM     21  CD  M3R d   1      33.325 118.561   7.814  0.00  0.00     0.009 C 
ATOM     22  H10 M3R d   1      33.389 117.888   6.946  0.00  0.00     0.064 H 
ATOM     23  H11 M3R d   1      33.528 117.993   8.734  0.00  0.00     0.064 H 
BRANCH  21  24
ATOM     24  NE  M3R d   1      34.338 119.616   7.673  0.00  0.00    -0.227 N 
ATOM     25  CZ  M3R d   1      34.949 120.724   8.087  0.00  0.00     0.665 C 
ATOM     26  NH2 M3R d   1      34.524 121.291   9.201  0.00  0.00    -0.235 N 
ATOM     27  NH1 M3R d   1      35.983 121.250   7.428  0.00  0.00    -0.235 N 
ATOM     28  H13 M3R d   1      34.976 122.149   9.547  0.00  0.00     0.174 HD
ATOM     29  H14 M3R d   1      33.740 120.875   9.724  0.00  0.00     0.174 HD
ATOM     30  H15 M3R d   1      36.317 120.810   6.559  0.00  0.00     0.174 HD
ATOM     31  H16 M3R d   1      36.447 122.096   7.789  0.00  0.00     0.174 HD
ATOM     32  H12 M3R d   1      34.831 119.371   6.802  0.00  0.00     0.177 HD
ENDBRANCH  21  24
ENDBRANCH  18  21
ENDBRANCH   1  18
TORSDOF 8
