REMARK WARNING: 32 MAX_TORS EXCEEDED!!!
REMARK  33 active torsions:
REMARK  status: ('A' for Active; 'I' for Inactive)
REMARK    1  A    between atoms: CA_2  and  N_1 
REMARK    2  A    between atoms: C_3  and  CA_2 
REMARK    3  A    between atoms: CA_2  and  CB_5 
REMARK       I    between atoms: N_6  and  C_3 
REMARK    4  A    between atoms: CA_7  and  N_6 
REMARK    5  A    between atoms: C_8  and  CA_7 
REMARK    6  A    between atoms: CA_7  and  CB_10 
REMARK       I    between atoms: N_14  and  C_8 
REMARK    7  A    between atoms: CB_10  and  OG1_11 
REMARK    8  A    between atoms: CB_10  and  CG2_12 
REMARK    9  A    between atoms: CA_16  and  C_13 
REMARK       I    between atoms: C_13  and  N_26 
REMARK   10  A    between atoms: CA_16  and  N_14 
REMARK   11  A    between atoms: CB_17  and  CA_16 
REMARK   12  A    between atoms: CG_20  and  CB_17 
REMARK   13  A    between atoms: CE_19  and  CD_18 
REMARK   14  A    between atoms: CD_18  and  CG_20 
REMARK   15  A    between atoms: NZ_21  and  CE_19 
REMARK       I    between atoms: CAL_25  and  NZ_21 
REMARK   16  A    between atoms: CAF_24  and  CAA_22 
REMARK   17  A    between atoms: CAF_24  and  CAL_25 
REMARK   18  A    between atoms: N_26  and  CA_27 
REMARK   19  A    between atoms: CA_27  and  C_28 
REMARK   20  A    between atoms: CA_27  and  CB_30 
REMARK       I    between atoms: C_28  and  N_31 
REMARK   21  A    between atoms: N_31  and  CA_32 
REMARK   22  A    between atoms: CA_32  and  C_33 
REMARK   23  A    between atoms: CA_32  and  CB_35 
REMARK       I    between atoms: C_33  and  N_36 
REMARK   24  A    between atoms: N_36  and  CA_37 
REMARK   25  A    between atoms: CA_37  and  C_38 
REMARK   26  A    between atoms: CA_37  and  CB_40 
REMARK       I    between atoms: C_38  and  N_41 
REMARK   27  A    between atoms: N_41  and  CA_42 
REMARK   28  A    between atoms: CA_42  and  C_43 
REMARK   29  A    between atoms: CA_42  and  CB_45 
REMARK   30  A    between atoms: CB_45  and  CG_46 
REMARK   31  A    between atoms: CG_46  and  CD_47 
REMARK   32  A    between atoms: CD_47  and  CE_48 
REMARK   33  A    between atoms: CE_48  and  NZ_49 
ROOT
ATOM      1  N   ALA d   1      -3.956 -10.072  -7.110  0.00  0.00    -0.346 N 
ATOM      2  H   ALA d   1      -2.945  -9.960  -7.031  0.00  0.00     0.163 HD
ATOM      3  C   PRK d   1      -4.693 -10.153  -5.994  0.00  0.00     0.241 C 
ATOM      4  O   PRK d   1      -5.967 -10.280  -5.985  0.00  0.00    -0.271 OA
ENDROOT
BRANCH   3   5
ATOM      5  CA  PRK d   1      -3.944 -10.026  -4.685  0.00  0.00     0.089 C 
ATOM      6  H   PRK d   1      -4.358 -10.738  -3.971  0.00  0.00     0.087 H 
BRANCH   5   7
ATOM      7  N   PRK d   1      -2.523 -10.343  -4.863  0.00  0.00    -0.346 N 
ATOM      8  C   THR d   1      -2.099 -11.601  -4.879  0.00  0.00     0.243 C 
ATOM      9  O   THR d   1      -2.856 -12.592  -4.858  0.00  0.00    -0.271 OA
ATOM     10  H   PRK d   1      -1.850  -9.585  -4.976  0.00  0.00     0.163 HD
BRANCH   8  11
ATOM     11  CA  THR d   1      -0.586 -11.789  -4.973  0.00  0.00     0.113 C 
ATOM     12  H   THR d   1      -0.066 -11.125  -4.282  0.00  0.00     0.091 H 
BRANCH  11  13
ATOM     13  N   THR d   1      -0.254 -13.154  -4.620  0.00  0.00    -0.344 N 
ATOM     14  C   ALA d   1       0.906 -13.410  -4.002  0.00  0.00     0.248 C 
ATOM     15  O   ALA d   1       1.678 -12.543  -3.775  0.00  0.00    -0.271 OA
ATOM     16  H   THR d   1      -0.898 -13.914  -4.840  0.00  0.00     0.163 HD
BRANCH  14  17
ATOM     17  CA  ALA d   1       1.134 -14.787  -3.442  0.00  0.00     0.172 C 
ATOM     18  H   ALA d   1       0.750 -15.533  -4.137  0.00  0.00     0.098 H 
BRANCH  17  19
ATOM     19  N   ALA d   1       2.590 -15.060  -3.266  0.00  0.00    -0.067 N 
ATOM     20  H   ALA d   1       3.060 -14.985  -4.168  0.00  0.00     0.275 HD
ATOM     21  H   ALA d   1       2.986 -14.380  -2.617  0.00  0.00     0.275 HD
ATOM     22  H   ALA d   1       2.716 -16.001  -2.893  0.00  0.00     0.275 HD
ENDBRANCH  17  19
BRANCH  17  23
ATOM     23  CB  ALA d   1       0.390 -14.892  -2.094  0.00  0.00    -0.042 C 
ATOM     24  H   ALA d   1       0.778 -14.140  -1.407  0.00  0.00     0.030 H 
ATOM     25  H   ALA d   1      -0.675 -14.725  -2.254  0.00  0.00     0.030 H 
ATOM     26  H   ALA d   1       0.544 -15.885  -1.672  0.00  0.00     0.030 H 
ENDBRANCH  17  23
ENDBRANCH  14  17
ENDBRANCH  11  13
BRANCH  11  27
ATOM     27  CB  THR d   1      -0.132 -11.449  -6.440  0.00  0.00     0.060 C 
ATOM     28  H   THR d   1      -0.429 -10.419  -6.635  0.00  0.00     0.086 H 
BRANCH  27  29
ATOM     29  OG1 THR d   1      -0.771 -12.353  -7.354  0.00  0.00    -0.393 OA
ATOM     30  H   THR d   1      -1.724 -12.259  -7.281  0.00  0.00     0.210 HD
ENDBRANCH  27  29
BRANCH  27  31
ATOM     31  CG2 THR d   1       1.403 -11.519  -6.637  0.00  0.00    -0.050 C 
ATOM     32  H   THR d   1       1.747 -12.535  -6.445  0.00  0.00     0.031 H 
ATOM     33  H   THR d   1       1.650 -11.238  -7.661  0.00  0.00     0.031 H 
ATOM     34  H   THR d   1       1.889 -10.833  -5.943  0.00  0.00     0.031 H 
ENDBRANCH  27  31
ENDBRANCH  11  27
ENDBRANCH   8  11
ENDBRANCH   5   7
BRANCH   5  35
ATOM     35  CB  PRK d   1      -4.113  -8.598  -4.134  0.00  0.00    -0.038 C 
ATOM     36  H   PRK d   1      -5.180  -8.383  -4.074  0.00  0.00     0.036 H 
ATOM     37  H   PRK d   1      -3.590  -7.914  -4.802  0.00  0.00     0.036 H 
BRANCH  35  38
ATOM     38  CG  PRK d   1      -3.518  -8.441  -2.734  0.00  0.00    -0.061 C 
ATOM     39  H   PRK d   1      -2.445  -8.271  -2.825  0.00  0.00     0.033 H 
ATOM     40  H   PRK d   1      -3.719  -9.347  -2.163  0.00  0.00     0.033 H 
BRANCH  38  41
ATOM     41  CD  PRK d   1      -4.139  -7.264  -2.016  0.00  0.00    -0.050 C 
ATOM     42  H   PRK d   1      -3.885  -6.347  -2.548  0.00  0.00     0.035 H 
ATOM     43  H   PRK d   1      -5.221  -7.394  -1.986  0.00  0.00     0.035 H 
BRANCH  41  44
ATOM     44  CE  PRK d   1      -3.604  -7.177  -0.582  0.00  0.00    -0.005 C 
ATOM     45  H   PRK d   1      -2.534  -6.971  -0.568  0.00  0.00     0.064 H 
ATOM     46  H   PRK d   1      -3.728  -8.122  -0.053  0.00  0.00     0.064 H 
BRANCH  44  47
ATOM     47  NZ  PRK d   1      -4.371  -6.092   0.064  0.00  0.00    -0.361 N 
ATOM     48  CAL PRK d   1      -3.776  -4.952   0.429  0.00  0.00     0.217 C 
ATOM     49  OAD PRK d   1      -2.550  -4.838   0.239  0.00  0.00    -0.274 OA
ATOM     50  H   PRK d   1      -5.369  -6.215   0.234  0.00  0.00     0.162 HD
BRANCH  48  51
ATOM     51  CAF PRK d   1      -4.562  -3.825   1.066  0.00  0.00     0.006 C 
ATOM     52  H   PRK d   1      -4.058  -3.534   1.988  0.00  0.00     0.046 H 
ATOM     53  H   PRK d   1      -4.615  -3.000   0.355  0.00  0.00     0.046 H 
BRANCH  51  54
ATOM     54  CAA PRK d   1      -5.954  -4.242   1.405  0.00  0.00    -0.068 C 
ATOM     55  H   PRK d   1      -6.471  -4.550   0.496  0.00  0.00     0.028 H 
ATOM     56  H   PRK d   1      -5.921  -5.076   2.106  0.00  0.00     0.028 H 
ATOM     57  H   PRK d   1      -6.482  -3.404   1.859  0.00  0.00     0.028 H 
ENDBRANCH  51  54
ENDBRANCH  48  51
ENDBRANCH  44  47
ENDBRANCH  41  44
ENDBRANCH  38  41
ENDBRANCH  35  38
ENDBRANCH   5  35
ENDBRANCH   3   5
BRANCH   1  58
ATOM     58  CA  ALA d   1      -4.568 -10.141  -8.449  0.00  0.00     0.086 C 
ATOM     59  H   ALA d   1      -5.441 -10.791  -8.405  0.00  0.00     0.086 H 
BRANCH  58  60
ATOM     60  C   ALA d   1      -3.581 -10.721  -9.449  0.00  0.00     0.240 C 
ATOM     61  O   ALA d   1      -2.390 -10.839  -9.132  0.00  0.00    -0.271 OA
ATOM     62  N   ALA d   1      -4.063 -11.075 -10.654  0.00  0.00    -0.346 N 
ATOM     63  H   ALA d   1      -5.072 -11.104 -10.797  0.00  0.00     0.163 HD
BRANCH  62  64
ATOM     64  CA  ALA d   1      -3.160 -11.426 -11.784  0.00  0.00     0.086 C 
ATOM     65  H   ALA d   1      -2.561 -12.272 -11.448  0.00  0.00     0.086 H 
BRANCH  64  66
ATOM     66  C   ALA d   1      -2.162 -10.278 -12.141  0.00  0.00     0.240 C 
ATOM     67  O   ALA d   1      -2.462  -9.062 -12.003  0.00  0.00    -0.271 OA
ATOM     68  N   ARG d   1      -0.953 -10.654 -12.555  0.00  0.00    -0.346 N 
ATOM     69  H   ARG d   1      -0.698 -11.642 -12.553  0.00  0.00     0.163 HD
BRANCH  68  70
ATOM     70  CA  ARG d   1       0.008  -9.652 -13.013  0.00  0.00     0.086 C 
ATOM     71  H   ARG d   1       0.180  -8.912 -12.232  0.00  0.00     0.086 H 
BRANCH  70  72
ATOM     72  C   ARG d   1      -0.602  -9.003 -14.273  0.00  0.00     0.240 C 
ATOM     73  O   ARG d   1      -0.990  -9.713 -15.229  0.00  0.00    -0.271 OA
ATOM     74  N   LYS d   1      -0.695  -7.666 -14.243  0.00  0.00    -0.345 N 
ATOM     75  H   LYS d   1      -0.444  -7.180 -13.382  0.00  0.00     0.163 HD
BRANCH  74  76
ATOM     76  CA  LYS d   1      -1.142  -6.867 -15.395  0.00  0.00     0.096 C 
ATOM     77  H   LYS d   1      -1.998  -7.364 -15.852  0.00  0.00     0.089 H 
BRANCH  76  78
ATOM     78  C   LYS d   1      -0.026  -6.756 -16.438  0.00  0.00     0.196 C 
ATOM     79  O   LYS d   1       1.145  -6.508 -16.088  0.00  0.00    -0.646 OA
ATOM     80  O1  LYS d   1      -0.293  -6.917 -17.659  0.00  0.00    -0.646 OA
ENDBRANCH  76  78
BRANCH  76  81
ATOM     81  CB  LYS d   1      -1.553  -5.472 -14.928  0.00  0.00    -0.037 C 
ATOM     82  H   LYS d   1      -1.799  -4.891 -15.817  0.00  0.00     0.036 H 
ATOM     83  H   LYS d   1      -0.722  -5.064 -14.352  0.00  0.00     0.036 H 
BRANCH  81  84
ATOM     84  CG  LYS d   1      -2.774  -5.463 -14.029  0.00  0.00    -0.061 C 
ATOM     85  H   LYS d   1      -2.545  -5.991 -13.104  0.00  0.00     0.033 H 
ATOM     86  H   LYS d   1      -3.602  -5.956 -14.539  0.00  0.00     0.033 H 
BRANCH  84  87
ATOM     87  CD  LYS d   1      -3.166  -4.021 -13.705  0.00  0.00    -0.043 C 
ATOM     88  H   LYS d   1      -3.253  -3.475 -14.645  0.00  0.00     0.035 H 
ATOM     89  H   LYS d   1      -2.401  -3.602 -13.051  0.00  0.00     0.035 H 
BRANCH  87  90
ATOM     90  CE  LYS d   1      -4.495  -3.933 -12.988  0.00  0.00     0.080 C 
ATOM     91  H   LYS d   1      -4.416  -4.459 -12.037  0.00  0.00     0.075 H 
ATOM     92  H   LYS d   1      -5.264  -4.382 -13.617  0.00  0.00     0.075 H 
BRANCH  90  93
ATOM     93  NZ  LYS d   1      -4.865  -2.496 -12.720  0.00  0.00    -0.079 N 
ATOM     94  H   LYS d   1      -5.763  -2.462 -12.237  0.00  0.00     0.274 HD
ATOM     95  H   LYS d   1      -4.147  -2.064 -12.138  0.00  0.00     0.274 HD
ATOM     96  H   LYS d   1      -4.934  -1.993 -13.605  0.00  0.00     0.274 HD
ENDBRANCH  90  93
ENDBRANCH  87  90
ENDBRANCH  84  87
ENDBRANCH  81  84
ENDBRANCH  76  81
ENDBRANCH  74  76
ENDBRANCH  70  72
BRANCH  70  97
ATOM     97  CB  ARG d   1       1.410 -10.265 -13.311  0.00  0.00    -0.049 C 
ATOM     98  H   ARG d   1       1.806 -10.722 -12.404  0.00  0.00     0.030 H 
ATOM     99  H   ARG d   1       1.316 -11.022 -14.089  0.00  0.00     0.030 H 
ATOM    100  H   ARG d   1       2.085  -9.478 -13.648  0.00  0.00     0.030 H 
ENDBRANCH  70  97
ENDBRANCH  68  70
ENDBRANCH  64  66
BRANCH  64 101
ATOM    101  CB  ALA d   1      -3.967 -11.853 -13.028  0.00  0.00    -0.049 C 
ATOM    102  H   ALA d   1      -4.575 -12.724 -12.784  0.00  0.00     0.030 H 
ATOM    103  H   ALA d   1      -4.613 -11.033 -13.339  0.00  0.00     0.030 H 
ATOM    104  H   ALA d   1      -3.280 -12.103 -13.837  0.00  0.00     0.030 H 
ENDBRANCH  64 101
ENDBRANCH  62  64
ENDBRANCH  58  60
BRANCH  58 105
ATOM    105  CB  ALA d   1      -5.000  -8.776  -8.883  0.00  0.00    -0.049 C 
ATOM    106  H   ALA d   1      -5.729  -8.384  -8.174  0.00  0.00     0.030 H 
ATOM    107  H   ALA d   1      -4.133  -8.116  -8.917  0.00  0.00     0.030 H 
ATOM    108  H   ALA d   1      -5.451  -8.837  -9.873  0.00  0.00     0.030 H 
ENDBRANCH  58 105
ENDBRANCH   1  58
TORSDOF 33
