REMARK  3 active torsions:
REMARK  status: ('A' for Active; 'I' for Inactive)
REMARK    1  A    between atoms: C1_1  and  N16_16 
REMARK    2  A    between atoms: N4_4  and  C6_6 
REMARK    3  A    between atoms: C14_14  and  C15_15 
ROOT
ATOM      1  C1  XFE d   1       7.703   2.945  19.080  0.00  0.00     0.117 C 
ATOM      2  C2  XFE d   1       8.350   4.142  18.414  0.00  0.00    -0.022 C 
ATOM      3  C3  XFE d   1       7.177   4.810  17.699  0.00  0.00    -0.002 C 
ATOM      4  N4  XFE d   1       6.372   3.665  17.289  0.00  0.00    -0.363 N 
ATOM      5  C5  XFE d   1       6.644   2.479  18.089  0.00  0.00     0.023 C 
ATOM      6  H1  XFE d   1       8.440   2.154  19.283  0.00  0.00     0.086 H 
ATOM      7  H2  XFE d   1       9.123   3.827  17.697  0.00  0.00     0.038 H 
ATOM      8  H3  XFE d   1       8.795   4.817  19.160  0.00  0.00     0.038 H 
ATOM      9  H4  XFE d   1       7.518   5.389  16.828  0.00  0.00     0.064 H 
ATOM     10  H5  XFE d   1       6.617   5.467  18.380  0.00  0.00     0.064 H 
ATOM     11  H6  XFE d   1       5.737   2.143  18.613  0.00  0.00     0.067 H 
ATOM     12  H7  XFE d   1       7.028   1.662  17.460  0.00  0.00     0.067 H 
ENDROOT
BRANCH   4  13
ATOM     13  C6  XFE d   1       5.095   3.922  16.743  0.00  0.00     0.141 A 
ATOM     14  N7  XFE d   1       4.881   5.246  16.571  0.00  0.00    -0.224 NA
ATOM     15  C8  XFE d   1       3.707   5.708  16.098  0.00  0.00     0.091 A 
ATOM     16  N9  XFE d   1       2.693   4.849  15.739  0.00  0.00    -0.223 NA
ATOM     17  H8  XFE d   1       3.558   6.777  15.998  0.00  0.00     0.146 H 
ATOM     18  C11 XFE d   1       2.829   3.515  15.868  0.00  0.00     0.143 A 
ATOM     19  C10 XFE d   1       4.054   3.000  16.377  0.00  0.00     0.063 A 
ATOM     20  N12 XFE d   1       1.917   2.554  15.579  0.00  0.00    -0.349 N 
ATOM     21  C14 XFE d   1       3.733   1.532  16.317  0.00  0.00    -0.029 A 
ATOM     22  C13 XFE d   1       2.428   1.325  15.846  0.00  0.00    -0.015 A 
ATOM     23  H10 XFE d   1       1.924   0.368  15.720  0.00  0.00     0.112 H 
ATOM     24  H9  XFE d   1       0.972   2.731  15.210  0.00  0.00     0.166 HD
BRANCH  21  25
ATOM     25  C15 XFE d   1       4.577   0.346  16.711  0.00  0.00    -0.049 C 
ATOM     26  H11 XFE d   1       5.562   0.695  17.054  0.00  0.00     0.033 H 
ATOM     27  H12 XFE d   1       4.705  -0.318  15.843  0.00  0.00     0.033 H 
ATOM     28  H13 XFE d   1       4.080  -0.204  17.524  0.00  0.00     0.033 H 
ENDBRANCH  21  25
ENDBRANCH   4  13
BRANCH   1  29
ATOM     29  N16 XFE d   1       7.047   3.357  20.315  0.00  0.00    -0.073 N 
ATOM     30  H14 XFE d   1       7.741   3.667  20.977  0.00  0.00     0.274 HD
ATOM     31  H15 XFE d   1       6.539   2.577  20.702  0.00  0.00     0.274 HD
ATOM     32  H16 XFE d   1       6.408   4.112  20.120  0.00  0.00     0.274 HD
ENDBRANCH   1  29
TORSDOF 3
