REMARK  7 active torsions:
REMARK  status: ('A' for Active; 'I' for Inactive)
REMARK    1  A    between atoms: C1_1  and  C2_2 
REMARK    2  A    between atoms: C2_2  and  C3_3 
REMARK    3  A    between atoms: C10_10  and  N11_11 
REMARK    4  A    between atoms: C14_14  and  N15_15 
REMARK    5  A    between atoms: C14_14  and  C16_16 
REMARK    6  A    between atoms: C16_16  and  N17_17 
REMARK       I    between atoms: N17_17  and  C18_18 
REMARK    7  A    between atoms: C18_18  and  C20_20 
ROOT
ATOM      1  N11 WFE d   1      17.391  -4.422  28.163  0.00  0.00    -0.362 N 
ATOM      2  C12 WFE d   1      18.499  -5.420  28.024  0.00  0.00    -0.001 C 
ATOM      3  C13 WFE d   1      19.503  -4.730  27.068  0.00  0.00    -0.016 C 
ATOM      4  C14 WFE d   1      18.618  -3.768  26.358  0.00  0.00     0.157 C 
ATOM      5  C28 WFE d   1      17.811  -3.199  27.585  0.00  0.00     0.029 C 
ATOM      6  H9  WFE d   1      18.127  -6.360  27.590  0.00  0.00     0.064 H 
ATOM      7  H10 WFE d   1      18.965  -5.626  28.999  0.00  0.00     0.064 H 
ATOM      8  H11 WFE d   1      19.955  -5.451  26.371  0.00  0.00     0.039 H 
ATOM      9  H12 WFE d   1      20.297  -4.211  27.625  0.00  0.00     0.039 H 
ATOM     10  H22 WFE d   1      18.451  -2.620  28.266  0.00  0.00     0.068 H 
ATOM     11  H23 WFE d   1      16.959  -2.580  27.267  0.00  0.00     0.068 H 
ENDROOT
BRANCH   4  12
ATOM     12  N15 WFE d   1      17.977  -4.766  25.501  0.00  0.00    -0.067 N 
ATOM     13  H13 WFE d   1      17.303  -4.313  24.904  0.00  0.00     0.275 HD
ATOM     14  H14 WFE d   1      17.511  -5.452  26.074  0.00  0.00     0.275 HD
ATOM     15  H15 WFE d   1      18.676  -5.221  24.934  0.00  0.00     0.275 HD
ENDBRANCH   4  12
BRANCH   4  16
ATOM     16  C16 WFE d   1      19.229  -2.740  25.398  0.00  0.00     0.028 C 
ATOM     17  H16 WFE d   1      18.461  -2.434  24.672  0.00  0.00     0.068 H 
ATOM     18  H17 WFE d   1      20.070  -3.209  24.866  0.00  0.00     0.068 H 
BRANCH  16  19
ATOM     19  N17 WFE d   1      19.719  -1.548  26.097  0.00  0.00    -0.354 N 
ATOM     20  C18 WFE d   1      20.920  -1.491  26.597  0.00  0.00     0.254 C 
ATOM     21  O19 WFE d   1      21.683  -2.437  26.477  0.00  0.00    -0.268 OA
ATOM     22  H18 WFE d   1      19.114  -0.757  26.192  0.00  0.00     0.162 HD
BRANCH  20  23
ATOM     23  C20 WFE d   1      21.425  -0.289  27.310  0.00  0.00     0.070 A 
ATOM     24  C21 WFE d   1      21.020   1.006  26.973  0.00  0.00    -0.062 A 
ATOM     25  C22 WFE d   1      21.538   2.090  27.685  0.00  0.00    -0.044 A 
ATOM     26  H19 WFE d   1      20.312   1.167  26.168  0.00  0.00     0.085 H 
ATOM     27  C23 WFE d   1      22.444   1.836  28.708  0.00  0.00     0.119 A 
ATOM     28  H20 WFE d   1      21.241   3.105  27.446  0.00  0.00     0.088 H 
ATOM     29  F24 WFE d   1      22.975   2.830  29.404  0.00  0.00    -0.206 F 
ATOM     30  C25 WFE d   1      22.868   0.556  29.021  0.00  0.00    -0.007 A 
ATOM     31  C26 WFE d   1      22.360  -0.510  28.307  0.00  0.00     0.135 A 
ATOM     32  H21 WFE d   1      23.588   0.394  29.815  0.00  0.00     0.093 H 
ATOM     33  F27 WFE d   1      22.736  -1.757  28.628  0.00  0.00    -0.205 F 
ENDBRANCH  20  23
ENDBRANCH  16  19
ENDBRANCH   4  16
BRANCH   1  34
ATOM     34  C10 WFE d   1      16.168  -4.724  28.661  0.00  0.00     0.141 A 
ATOM     35  N9  WFE d   1      16.098  -6.027  29.016  0.00  0.00    -0.224 NA
ATOM     36  C8  WFE d   1      14.994  -6.599  29.552  0.00  0.00     0.091 A 
ATOM     37  N7  WFE d   1      13.894  -5.838  29.723  0.00  0.00    -0.223 NA
ATOM     38  H8  WFE d   1      14.994  -7.645  29.837  0.00  0.00     0.146 H 
ATOM     39  C6  WFE d   1      13.946  -4.506  29.426  0.00  0.00     0.143 A 
ATOM     40  N5  WFE d   1      12.920  -3.638  29.579  0.00  0.00    -0.349 N 
ATOM     41  C29 WFE d   1      15.045  -3.874  28.904  0.00  0.00     0.063 A 
ATOM     42  C4  WFE d   1      13.326  -2.404  29.232  0.00  0.00    -0.014 A 
ATOM     43  H7  WFE d   1      11.976  -3.884  29.909  0.00  0.00     0.166 HD
ATOM     44  C3  WFE d   1      14.632  -2.492  28.778  0.00  0.00    -0.025 A 
ATOM     45  H6  WFE d   1      12.732  -1.494  29.297  0.00  0.00     0.112 H 
BRANCH  44  46
ATOM     46  C2  WFE d   1      15.398  -1.302  28.248  0.00  0.00    -0.042 C 
ATOM     47  H4  WFE d   1      15.990  -1.611  27.374  0.00  0.00     0.039 H 
ATOM     48  H5  WFE d   1      14.688  -0.516  27.951  0.00  0.00     0.039 H 
BRANCH  46  49
ATOM     49  C1  WFE d   1      16.329  -0.758  29.317  0.00  0.00    -0.073 C 
ATOM     50  H1  WFE d   1      16.880   0.107  28.918  0.00  0.00     0.028 H 
ATOM     51  H2  WFE d   1      17.042  -1.541  29.615  0.00  0.00     0.028 H 
ATOM     52  H3  WFE d   1      15.740  -0.446  30.192  0.00  0.00     0.028 H 
ENDBRANCH  46  49
ENDBRANCH  44  46
ENDBRANCH   1  34
TORSDOF 7
