REMARK  3 active torsions:
REMARK  status: ('A' for Active; 'I' for Inactive)
REMARK    1  A    between atoms: C1_1  and  N16_16 
REMARK    2  A    between atoms: N4_4  and  C6_6 
REMARK    3  A    between atoms: C14_14  and  C15_15 
ROOT
ATOM      1  C1  XFE d   1      15.982  14.238  14.373  0.00  0.00     0.117 C 
ATOM      2  C2  XFE d   1      16.672  13.541  15.542  0.00  0.00    -0.022 C 
ATOM      3  C3  XFE d   1      18.166  13.818  15.441  0.00  0.00    -0.002 C 
ATOM      4  N4  XFE d   1      18.276  14.927  14.463  0.00  0.00    -0.363 N 
ATOM      5  C5  XFE d   1      16.963  15.325  13.921  0.00  0.00     0.023 C 
ATOM      6  H1  XFE d   1      15.804  13.523  13.557  0.00  0.00     0.086 H 
ATOM      7  H2  XFE d   1      16.489  12.457  15.491  0.00  0.00     0.038 H 
ATOM      8  H3  XFE d   1      16.283  13.934  16.493  0.00  0.00     0.038 H 
ATOM      9  H4  XFE d   1      18.702  12.928  15.081  0.00  0.00     0.064 H 
ATOM     10  H5  XFE d   1      18.572  14.120  16.418  0.00  0.00     0.064 H 
ATOM     11  H6  XFE d   1      16.663  16.304  14.323  0.00  0.00     0.067 H 
ATOM     12  H7  XFE d   1      17.001  15.375  12.823  0.00  0.00     0.067 H 
ENDROOT
BRANCH   4  13
ATOM     13  C6  XFE d   1      19.308  15.882  14.710  0.00  0.00     0.141 A 
ATOM     14  N7  XFE d   1      20.199  15.592  15.689  0.00  0.00    -0.224 NA
ATOM     15  C8  XFE d   1      21.247  16.389  16.030  0.00  0.00     0.091 A 
ATOM     16  N9  XFE d   1      21.486  17.568  15.441  0.00  0.00    -0.223 NA
ATOM     17  H8  XFE d   1      21.918  16.055  16.813  0.00  0.00     0.146 H 
ATOM     18  C11 XFE d   1      20.643  17.938  14.429  0.00  0.00     0.143 A 
ATOM     19  C10 XFE d   1      19.544  17.107  14.042  0.00  0.00     0.063 A 
ATOM     20  N12 XFE d   1      20.657  19.051  13.662  0.00  0.00    -0.349 N 
ATOM     21  C14 XFE d   1      18.936  17.885  12.964  0.00  0.00    -0.029 A 
ATOM     22  C13 XFE d   1      19.632  19.033  12.763  0.00  0.00    -0.015 A 
ATOM     23  H10 XFE d   1      19.412  19.799  12.020  0.00  0.00     0.112 H 
ATOM     24  H9  XFE d   1      21.348  19.810  13.745  0.00  0.00     0.166 HD
BRANCH  21  25
ATOM     25  C15 XFE d   1      17.739  17.515  12.142  0.00  0.00    -0.049 C 
ATOM     26  H11 XFE d   1      17.343  16.548  12.485  0.00  0.00     0.033 H 
ATOM     27  H12 XFE d   1      18.030  17.437  11.084  0.00  0.00     0.033 H 
ATOM     28  H13 XFE d   1      16.965  18.288  12.253  0.00  0.00     0.033 H 
ENDBRANCH  21  25
ENDBRANCH   4  13
BRANCH   1  29
ATOM     29  N16 XFE d   1      14.700  14.825  14.782  0.00  0.00    -0.073 N 
ATOM     30  H14 XFE d   1      14.073  14.092  15.074  0.00  0.00     0.274 HD
ATOM     31  H15 XFE d   1      14.295  15.323  14.005  0.00  0.00     0.274 HD
ATOM     32  H16 XFE d   1      14.851  15.463  15.548  0.00  0.00     0.274 HD
ENDBRANCH   1  29
TORSDOF 3
