REMARK  10 active torsions:
REMARK  status: ('A' for Active; 'I' for Inactive)
REMARK    1  A    between atoms: C5_5  and  N17_17 
REMARK    2  A    between atoms: C7_7  and  C16_16 
REMARK    3  A    between atoms: C8_8  and  C10_10 
REMARK       I    between atoms: C10_10  and  N12_12 
REMARK    4  A    between atoms: N12_12  and  C13_13 
REMARK    5  A    between atoms: C13_13  and  C14_14 
REMARK    6  A    between atoms: C14_14  and  C15_15 
REMARK    7  A    between atoms: N17_17  and  C18_18 
REMARK    8  A    between atoms: C19_19  and  C30_30 
REMARK    9  A    between atoms: C22_22  and  C24_24 
REMARK       I    between atoms: C24_24  and  N26_26 
REMARK   10  A    between atoms: N26_26  and  C27_27 
ROOT
ATOM      1  N1  38P d   1      -1.775  -1.940  37.331  0.00  0.00    -0.239 N 
ATOM      2  N2  38P d   1      -1.750  -0.689  37.515  0.00  0.00    -0.161 NA
ATOM      3  C3  38P d   1      -2.250   0.180  36.575  0.00  0.00     0.108 A 
ATOM      4  N4  38P d   1      -2.801  -0.278  35.396  0.00  0.00    -0.220 NA
ATOM      5  C5  38P d   1      -2.877  -1.630  35.099  0.00  0.00     0.159 A 
ATOM      6  C6  38P d   1      -2.325  -2.567  36.136  0.00  0.00     0.111 A 
ATOM      7  C7  38P d   1      -2.202  -3.902  36.248  0.00  0.00    -0.012 A 
ATOM      8  C8  38P d   1      -1.545  -4.166  37.571  0.00  0.00     0.057 A 
ATOM      9  C9  38P d   1      -1.299  -2.996  38.200  0.00  0.00     0.020 A 
ATOM     10  H   38P d   1      -2.210   1.253  36.765  0.00  0.00     0.149 H 
ATOM     11  H   38P d   1      -0.831  -2.871  39.176  0.00  0.00     0.116 H 
ENDROOT
BRANCH   5  12
ATOM     12  N17 38P d   1      -3.447  -1.954  33.895  0.00  0.00    -0.339 N 
ATOM     13  H   38P d   1      -3.748  -2.914  33.728  0.00  0.00     0.167 HD
BRANCH  12  14
ATOM     14  C18 38P d   1      -3.621  -1.013  32.909  0.00  0.00     0.040 A 
ATOM     15  C19 38P d   1      -4.918  -0.478  32.595  0.00  0.00    -0.035 A 
ATOM     16  C20 38P d   1      -5.017   0.491  31.561  0.00  0.00    -0.074 A 
ATOM     17  C21 38P d   1      -3.865   0.927  30.847  0.00  0.00    -0.067 A 
ATOM     18  H   38P d   1      -5.992   0.908  31.310  0.00  0.00     0.084 H 
ATOM     19  C22 38P d   1      -2.575   0.400  31.154  0.00  0.00     0.034 A 
ATOM     20  H   38P d   1      -3.970   1.671  30.058  0.00  0.00     0.085 H 
ATOM     21  C23 38P d   1      -2.482  -0.561  32.180  0.00  0.00    -0.041 A 
ATOM     22  H   38P d   1      -1.504  -0.974  32.425  0.00  0.00     0.088 H 
BRANCH  15  23
ATOM     23  C30 38P d   1      -6.157  -0.925  33.337  0.00  0.00    -0.049 C 
ATOM     24  H   38P d   1      -6.291  -1.998  33.204  0.00  0.00     0.033 H 
ATOM     25  H   38P d   1      -6.045  -0.700  34.398  0.00  0.00     0.033 H 
ATOM     26  H   38P d   1      -7.025  -0.397  32.943  0.00  0.00     0.033 H 
ENDBRANCH  15  23
BRANCH  19  27
ATOM     27  C24 38P d   1      -1.306   0.790  30.466  0.00  0.00     0.252 C 
ATOM     28  O25 38P d   1      -0.255   0.186  30.705  0.00  0.00    -0.268 OA
ATOM     29  N26 38P d   1      -1.326   1.830  29.565  0.00  0.00    -0.352 N 
ATOM     30  H   38P d   1      -1.850   2.683  29.761  0.00  0.00     0.163 HD
BRANCH  29  31
ATOM     31  C27 38P d   1      -0.585   1.681  28.336  0.00  0.00     0.012 A 
ATOM     32  C28 38P d   1       0.098   3.022  28.499  0.00  0.00    -0.044 A 
ATOM     33  C29 38P d   1      -0.781   2.704  27.337  0.00  0.00    -0.044 A 
ATOM     34  H   38P d   1       1.080   3.442  28.718  0.00  0.00     0.036 H 
ATOM     35  H   38P d   1       0.251   3.800  29.247  0.00  0.00     0.036 H 
ATOM     36  H   38P d   1      -1.621   3.166  26.819  0.00  0.00     0.036 H 
ATOM     37  H   38P d   1      -0.731   2.782  26.251  0.00  0.00     0.036 H 
ATOM     38  H   38P d   1      -0.460   0.611  28.168  0.00  0.00     0.072 H 
ENDBRANCH  29  31
ENDBRANCH  19  27
ENDBRANCH  12  14
ENDBRANCH   5  12
BRANCH   7  39
ATOM     39  C16 38P d   1      -2.607  -5.005  35.301  0.00  0.00    -0.048 C 
ATOM     40  H   38P d   1      -3.683  -4.961  35.132  0.00  0.00     0.033 H 
ATOM     41  H   38P d   1      -2.084  -4.879  34.353  0.00  0.00     0.033 H 
ATOM     42  H   38P d   1      -2.346  -5.970  35.736  0.00  0.00     0.033 H 
ENDBRANCH   7  39
BRANCH   8  43
ATOM     43  C10 38P d   1      -1.170  -5.488  38.203  0.00  0.00     0.253 C 
ATOM     44  O11 38P d   1      -0.990  -6.492  37.513  0.00  0.00    -0.268 OA
ATOM     45  N12 38P d   1      -1.047  -5.490  39.561  0.00  0.00    -0.357 N 
ATOM     46  H   38P d   1      -1.702  -4.946  40.122  0.00  0.00     0.162 HD
BRANCH  45  47
ATOM     47  C13 38P d   1       0.007  -6.258  40.233  0.00  0.00    -0.005 C 
ATOM     48  H   38P d   1       0.968  -5.774  40.058  0.00  0.00     0.064 H 
ATOM     49  H   38P d   1       0.019  -7.272  39.834  0.00  0.00     0.064 H 
BRANCH  47  50
ATOM     50  C14 38P d   1      -0.260  -6.314  41.739  0.00  0.00    -0.054 C 
ATOM     51  H   38P d   1      -0.498  -5.306  42.078  0.00  0.00     0.034 H 
ATOM     52  H   38P d   1       0.629  -6.715  42.225  0.00  0.00     0.034 H 
BRANCH  50  53
ATOM     53  C15 38P d   1      -1.440  -7.221  42.087  0.00  0.00    -0.075 C 
ATOM     54  H   38P d   1      -2.340  -6.848  41.598  0.00  0.00     0.027 H 
ATOM     55  H   38P d   1      -1.232  -8.234  41.743  0.00  0.00     0.027 H 
ATOM     56  H   38P d   1      -1.587  -7.226  43.167  0.00  0.00     0.027 H 
ENDBRANCH  50  53
ENDBRANCH  47  50
ENDBRANCH  45  47
ENDBRANCH   8  43
TORSDOF 10
