REMARK  10 active torsions:
REMARK  status: ('A' for Active; 'I' for Inactive)
REMARK    1  A    between atoms: C5_5  and  N17_17 
REMARK    2  A    between atoms: C7_7  and  C16_16 
REMARK    3  A    between atoms: C8_8  and  C10_10 
REMARK       I    between atoms: C10_10  and  N12_12 
REMARK    4  A    between atoms: N12_12  and  C13_13 
REMARK    5  A    between atoms: C13_13  and  C14_14 
REMARK    6  A    between atoms: C14_14  and  C15_15 
REMARK    7  A    between atoms: N17_17  and  C18_18 
REMARK    8  A    between atoms: C19_19  and  C32_32 
REMARK    9  A    between atoms: C22_22  and  C24_24 
REMARK       I    between atoms: C24_24  and  N26_26 
REMARK   10  A    between atoms: N26_26  and  C27_27 
ROOT
ATOM      1  N1  39P d   1      -2.340   5.834  36.151  0.00  0.00    -0.239 N 
ATOM      2  N2  39P d   1      -2.286   4.417  35.861  0.00  0.00    -0.161 NA
ATOM      3  C3  39P d   1      -2.588   3.483  36.776  0.00  0.00     0.108 A 
ATOM      4  N4  39P d   1      -2.972   3.885  38.066  0.00  0.00    -0.220 NA
ATOM      5  C5  39P d   1      -3.036   5.187  38.377  0.00  0.00     0.159 A 
ATOM      6  C6  39P d   1      -2.705   6.270  37.381  0.00  0.00     0.111 A 
ATOM      7  C7  39P d   1      -2.679   7.648  37.409  0.00  0.00    -0.012 A 
ATOM      8  C8  39P d   1      -2.261   8.040  36.066  0.00  0.00     0.057 A 
ATOM      9  C9  39P d   1      -2.076   6.898  35.369  0.00  0.00     0.020 A 
ATOM     10  H   39P d   1      -2.536   2.425  36.521  0.00  0.00     0.149 H 
ATOM     11  H   39P d   1      -1.760   6.845  34.327  0.00  0.00     0.116 H 
ENDROOT
BRANCH   5  12
ATOM     12  N17 39P d   1      -3.406   5.517  39.611  0.00  0.00    -0.339 N 
ATOM     13  H   39P d   1      -3.423   6.494  39.903  0.00  0.00     0.167 HD
BRANCH  12  14
ATOM     14  C18 39P d   1      -3.768   4.512  40.493  0.00  0.00     0.040 A 
ATOM     15  C19 39P d   1      -5.157   4.086  40.663  0.00  0.00    -0.035 A 
ATOM     16  C20 39P d   1      -5.434   3.058  41.583  0.00  0.00    -0.074 A 
ATOM     17  C21 39P d   1      -4.380   2.477  42.303  0.00  0.00    -0.067 A 
ATOM     18  H   39P d   1      -6.458   2.716  41.735  0.00  0.00     0.084 H 
ATOM     19  C22 39P d   1      -3.031   2.915  42.114  0.00  0.00     0.034 A 
ATOM     20  H   39P d   1      -4.591   1.681  43.017  0.00  0.00     0.085 H 
ATOM     21  C23 39P d   1      -2.739   3.918  41.223  0.00  0.00    -0.041 A 
ATOM     22  H   39P d   1      -1.709   4.248  41.087  0.00  0.00     0.088 H 
BRANCH  15  23
ATOM     23  C32 39P d   1      -6.320   4.697  39.896  0.00  0.00    -0.049 C 
ATOM     24  H   39P d   1      -6.378   5.763  40.115  0.00  0.00     0.033 H 
ATOM     25  H   39P d   1      -6.164   4.553  38.827  0.00  0.00     0.033 H 
ATOM     26  H   39P d   1      -7.248   4.212  40.198  0.00  0.00     0.033 H 
ENDBRANCH  15  23
BRANCH  19  27
ATOM     27  C24 39P d   1      -1.902   2.342  42.841  0.00  0.00     0.257 C 
ATOM     28  O25 39P d   1      -0.796   2.932  42.728  0.00  0.00    -0.267 OA
ATOM     29  N26 39P d   1      -2.108   1.231  43.581  0.00  0.00    -0.306 N 
ATOM     30  H   39P d   1      -2.980   0.717  43.454  0.00  0.00     0.170 HD
BRANCH  29  31
ATOM     31  C27 39P d   1      -1.210   0.767  44.485  0.00  0.00     0.159 A 
ATOM     32  N28 39P d   1      -0.249   1.448  45.115  0.00  0.00    -0.111 NA
ATOM     33  O29 39P d   1       0.417   0.531  45.950  0.00  0.00    -0.224 OA
ATOM     34  C30 39P d   1      -0.155  -0.693  45.809  0.00  0.00     0.047 A 
ATOM     35  C31 39P d   1      -1.129  -0.617  44.952  0.00  0.00    -0.013 A 
ATOM     36  H   39P d   1       0.154  -1.597  46.333  0.00  0.00     0.127 H 
ATOM     37  H   39P d   1      -1.772  -1.439  44.637  0.00  0.00     0.092 H 
ENDBRANCH  29  31
ENDBRANCH  19  27
ENDBRANCH  12  14
ENDBRANCH   5  12
BRANCH   7  38
ATOM     38  C16 39P d   1      -3.007   8.588  38.558  0.00  0.00    -0.048 C 
ATOM     39  H   39P d   1      -4.039   8.429  38.872  0.00  0.00     0.033 H 
ATOM     40  H   39P d   1      -2.336   8.387  39.393  0.00  0.00     0.033 H 
ATOM     41  H   39P d   1      -2.881   9.620  38.229  0.00  0.00     0.033 H 
ENDBRANCH   7  38
BRANCH   8  42
ATOM     42  C10 39P d   1      -2.068   9.430  35.542  0.00  0.00     0.253 C 
ATOM     43  O11 39P d   1      -2.465  10.404  36.225  0.00  0.00    -0.268 OA
ATOM     44  N12 39P d   1      -1.458   9.522  34.326  0.00  0.00    -0.357 N 
ATOM     45  H   39P d   1      -1.179   8.639  33.898  0.00  0.00     0.162 HD
BRANCH  44  46
ATOM     46  C13 39P d   1      -1.151  10.741  33.553  0.00  0.00    -0.005 C 
ATOM     47  H   39P d   1      -0.258  10.595  32.945  0.00  0.00     0.064 H 
ATOM     48  H   39P d   1      -0.953  11.579  34.221  0.00  0.00     0.064 H 
BRANCH  46  49
ATOM     49  C14 39P d   1      -2.363  11.032  32.668  0.00  0.00    -0.054 C 
ATOM     50  H   39P d   1      -2.368  12.081  32.370  0.00  0.00     0.034 H 
ATOM     51  H   39P d   1      -3.284  10.831  33.215  0.00  0.00     0.034 H 
BRANCH  49  52
ATOM     52  C15 39P d   1      -2.277  10.143  31.446  0.00  0.00    -0.075 C 
ATOM     53  H   39P d   1      -1.356  10.359  30.905  0.00  0.00     0.027 H 
ATOM     54  H   39P d   1      -2.281   9.098  31.757  0.00  0.00     0.027 H 
ATOM     55  H   39P d   1      -3.133  10.334  30.799  0.00  0.00     0.027 H 
ENDBRANCH  49  52
ENDBRANCH  46  49
ENDBRANCH  44  46
ENDBRANCH   8  42
TORSDOF 10
