REMARK  4 active torsions:
REMARK  status: ('A' for Active; 'I' for Inactive)
REMARK    1  A    between atoms: CAD_4  and  CAI_9 
REMARK    2  A    between atoms: CAM_13  and  CBB_28 
REMARK    3  A    between atoms: NAQ_17  and  OBA_27 
REMARK    4  A    between atoms: CAR_18  and  CAS_19 
ROOT
ATOM      1  CAI MIH d   1      20.180  12.158  31.227  0.00  0.00    -0.008 A 
ATOM      2  CAJ MIH d   1      20.903  10.976  31.051  0.00  0.00     0.008 A 
ATOM      3  CAK MIH d   1      22.270  10.971  31.336  0.00  0.00     0.098 A 
ATOM      4  NAL MIH d   1      22.878  12.095  31.789  0.00  0.00    -0.250 NA
ATOM      5  CAM MIH d   1      22.198  13.245  31.996  0.00  0.00     0.040 A 
ATOM      6  CAN MIH d   1      20.832  13.294  31.714  0.00  0.00    -0.047 A 
ATOM      7  CAO MIH d   1      20.331   9.792  30.593  0.00  0.00    -0.052 A 
ATOM      8  CAP MIH d   1      21.124   8.658  30.436  0.00  0.00     0.009 A 
ATOM      9  NAQ MIH d   1      22.430   8.682  30.707  0.00  0.00    -0.233 N 
ATOM     10  CAR MIH d   1      23.027   9.812  31.142  0.00  0.00     0.105 A 
ATOM     11  H   MIH d   1      20.275  14.217  31.873  0.00  0.00     0.088 H 
ATOM     12  H   MIH d   1      19.267   9.753  30.358  0.00  0.00     0.087 H 
ATOM     13  H   MIH d   1      20.668   7.732  30.085  0.00  0.00     0.115 H 
ENDROOT
BRANCH   5  14
ATOM     14  CBB MIH d   1      22.927  14.441  32.469  0.00  0.00    -0.009 C 
ATOM     15  CBC MIH d   1      24.277  14.046  33.075  0.00  0.00    -0.034 C 
ATOM     16  CBD MIH d   1      25.171  15.260  33.322  0.00  0.00     0.082 C 
ATOM     17  H   MIH d   1      24.786  13.386  32.373  0.00  0.00     0.036 H 
ATOM     18  H   MIH d   1      24.091  13.559  34.032  0.00  0.00     0.036 H 
ATOM     19  NBE MIH d   1      25.257  16.094  32.137  0.00  0.00    -0.075 N 
ATOM     20  H   MIH d   1      26.172  14.911  33.577  0.00  0.00     0.075 H 
ATOM     21  H   MIH d   1      24.744  15.849  34.133  0.00  0.00     0.075 H 
ATOM     22  CBF MIH d   1      24.052  16.489  31.434  0.00  0.00     0.082 C 
ATOM     23  H   MIH d   1      25.768  15.524  31.463  0.00  0.00     0.277 HD
ATOM     24  H   MIH d   1      25.654  16.972  32.473  0.00  0.00     0.277 HD
ATOM     25  CBG MIH d   1      23.110  15.311  31.229  0.00  0.00    -0.034 C 
ATOM     26  H   MIH d   1      24.336  16.877  30.456  0.00  0.00     0.075 H 
ATOM     27  H   MIH d   1      23.537  17.242  32.031  0.00  0.00     0.075 H 
ATOM     28  H   MIH d   1      22.132  15.719  30.973  0.00  0.00     0.036 H 
ATOM     29  H   MIH d   1      23.544  14.681  30.453  0.00  0.00     0.036 H 
ATOM     30  H   MIH d   1      22.386  14.970  33.254  0.00  0.00     0.049 H 
ENDBRANCH   5  14
BRANCH   1  31
ATOM     31  CAD MIH d   1      18.723  12.239  30.993  0.00  0.00     0.014 A 
ATOM     32  CAC MIH d   1      18.139  12.989  29.989  0.00  0.00    -0.066 A 
ATOM     33  CAB MIH d   1      16.749  13.001  29.889  0.00  0.00    -0.045 A 
ATOM     34  H   MIH d   1      18.752  13.559  29.291  0.00  0.00     0.085 H 
ATOM     35  CAA MIH d   1      15.966  12.287  30.797  0.00  0.00     0.119 A 
ATOM     36  H   MIH d   1      16.269  13.573  29.095  0.00  0.00     0.088 H 
ATOM     37  CAF MIH d   1      16.556  11.561  31.799  0.00  0.00    -0.008 A 
ATOM     38  FAG MIH d   1      14.632  12.273  30.731  0.00  0.00    -0.206 F 
ATOM     39  CAE MIH d   1      17.926  11.550  31.887  0.00  0.00     0.130 A 
ATOM     40  H   MIH d   1      15.949  11.003  32.512  0.00  0.00     0.093 H 
ATOM     41  FAH MIH d   1      18.477  10.832  32.867  0.00  0.00    -0.205 F 
ENDBRANCH   1  31
BRANCH  10  42
ATOM     42  CAS MIH d   1      24.474   9.839  31.508  0.00  0.00     0.039 A 
ATOM     43  CAT MIH d   1      25.464  10.426  30.756  0.00  0.00     0.048 A 
ATOM     44  CAU MIH d   1      26.781  10.415  31.186  0.00  0.00    -0.061 A 
ATOM     45 CLAZ MIH d   1      25.063  11.193  29.206  0.00  0.00    -0.083 Cl
ATOM     46  CAV MIH d   1      27.114   9.823  32.397  0.00  0.00    -0.080 A 
ATOM     47  H   MIH d   1      27.557  10.872  30.572  0.00  0.00     0.086 H 
ATOM     48  CAW MIH d   1      26.121   9.243  33.168  0.00  0.00    -0.061 A 
ATOM     49  H   MIH d   1      28.149   9.815  32.738  0.00  0.00     0.083 H 
ATOM     50  CAX MIH d   1      24.805   9.259  32.727  0.00  0.00     0.048 A 
ATOM     51  H   MIH d   1      26.372   8.775  34.120  0.00  0.00     0.086 H 
ATOM     52 CLAY MIH d   1      23.527   8.504  33.750  0.00  0.00    -0.083 Cl
ENDBRANCH  10  42
BRANCH   9  53
ATOM     53  OBA MIH d   1      23.169   7.481  30.501  0.00  0.00    -0.283 OA
ATOM     54  H   MIH d   1      23.852   7.635  29.844  0.00  0.00     0.245 HD
ENDBRANCH   9  53
TORSDOF 4
