REMARK  5 active torsions:
REMARK  status: ('A' for Active; 'I' for Inactive)
REMARK    1  A    between atoms: C6_6  and  NAA_7 
REMARK    2  A    between atoms: CAO_23  and  NBB_8 
REMARK    3  A    between atoms: CAN_22  and  CAU_24 
REMARK    4  A    between atoms: CAV_25  and  CAN_22 
REMARK    5  A    between atoms: CAO_23  and  CBA_28 
ROOT
ATOM      1  N1  BK3 d   1      27.502   6.525   6.636  0.00  0.00    -0.224 NA
ATOM      2  C2  BK3 d   1      27.580   5.902   5.453  0.00  0.00     0.091 A 
ATOM      3  N3  BK3 d   1      26.997   6.360   4.370  0.00  0.00    -0.222 NA
ATOM      4  C4  BK3 d   1      26.291   7.513   4.415  0.00  0.00     0.163 A 
ATOM      5  C5  BK3 d   1      26.175   8.218   5.598  0.00  0.00     0.084 A 
ATOM      6  C6  BK3 d   1      26.803   7.677   6.741  0.00  0.00     0.138 A 
ATOM      7  NBB BK3 d   1      25.607   8.189   3.509  0.00  0.00    -0.251 N 
ATOM      8  NAR BK3 d   1      25.083   9.230   3.967  0.00  0.00    -0.174 NA
ATOM      9  CAV BK3 d   1      25.370   9.326   5.267  0.00  0.00     0.077 A 
ATOM     10  H1  BK3 d   1      28.148   4.981   5.387  0.00  0.00     0.146 H 
ENDROOT
BRANCH   7  11
ATOM     11  CAO BK3 d   1      25.505   7.766   2.116  0.00  0.00     0.022 C 
ATOM     12  H23 BK3 d   1      26.447   7.276   1.828  0.00  0.00     0.068 H 
ATOM     13  H24 BK3 d   1      25.348   8.656   1.489  0.00  0.00     0.068 H 
BRANCH  11  14
ATOM     14  CBA BK3 d   1      24.335   6.775   1.873  0.00  0.00    -0.034 C 
ATOM     15  CAL BK3 d   1      24.036   6.649   0.369  0.00  0.00    -0.038 C 
ATOM     16  CAJ BK3 d   1      22.873   5.640   0.173  0.00  0.00     0.082 C 
ATOM     17  H17 BK3 d   1      23.746   7.631  -0.034  0.00  0.00     0.036 H 
ATOM     18  H18 BK3 d   1      24.932   6.287  -0.157  0.00  0.00     0.036 H 
ATOM     19  NAS BK3 d   1      21.676   6.238   0.753  0.00  0.00    -0.075 N 
ATOM     20  H13 BK3 d   1      22.717   5.450  -0.899  0.00  0.00     0.075 H 
ATOM     21  H14 BK3 d   1      23.106   4.694   0.683  0.00  0.00     0.075 H 
ATOM     22  CAK BK3 d   1      21.812   6.406   2.222  0.00  0.00     0.082 C 
ATOM     23  H4  BK3 d   1      20.886   5.641   0.563  0.00  0.00     0.277 HD
ATOM     24  H5  BK3 d   1      21.524   7.141   0.332  0.00  0.00     0.277 HD
ATOM     25  CAM BK3 d   1      23.055   7.252   2.573  0.00  0.00    -0.038 C 
ATOM     26  H15 BK3 d   1      21.909   5.415   2.689  0.00  0.00     0.075 H 
ATOM     27  H16 BK3 d   1      20.914   6.909   2.611  0.00  0.00     0.075 H 
ATOM     28  H19 BK3 d   1      23.214   7.204   3.660  0.00  0.00     0.036 H 
ATOM     29  H20 BK3 d   1      22.863   8.294   2.276  0.00  0.00     0.036 H 
ATOM     30  H25 BK3 d   1      24.619   5.790   2.271  0.00  0.00     0.042 H 
ENDBRANCH  11  14
ENDBRANCH   7  11
BRANCH   9  31
ATOM     31  CAN BK3 d   1      24.857  10.465   6.134  0.00  0.00     0.003 C 
ATOM     32  H21 BK3 d   1      24.028  10.942   5.590  0.00  0.00     0.049 H 
ATOM     33  H22 BK3 d   1      24.477  10.021   7.066  0.00  0.00     0.049 H 
BRANCH  31  34
ATOM     34  CAU BK3 d   1      25.852  11.585   6.531  0.00  0.00    -0.041 A 
ATOM     35  CAE BK3 d   1      27.225  11.338   6.442  0.00  0.00    -0.076 A 
ATOM     36  CAD BK3 d   1      28.160  12.308   6.832  0.00  0.00    -0.082 A 
ATOM     37  H9  BK3 d   1      27.572  10.383   6.066  0.00  0.00     0.084 H 
ATOM     38  CAH BK3 d   1      27.715  13.545   7.296  0.00  0.00    -0.072 A 
ATOM     39  H8  BK3 d   1      29.222  12.097   6.773  0.00  0.00     0.083 H 
ATOM     40  CAW BK3 d   1      26.366  13.819   7.387  0.00  0.00    -0.025 A 
ATOM     41  H11 BK3 d   1      28.436  14.299   7.588  0.00  0.00     0.084 H 
ATOM     42  CAG BK3 d   1      25.929  15.088   7.829  0.00  0.00    -0.072 A 
ATOM     43  CAX BK3 d   1      25.434  12.849   7.002  0.00  0.00    -0.019 A 
ATOM     44  CAB BK3 d   1      24.569  15.397   7.919  0.00  0.00    -0.082 A 
ATOM     45  H10 BK3 d   1      26.663  15.837   8.104  0.00  0.00     0.084 H 
ATOM     46  CAC BK3 d   1      23.632  14.416   7.544  0.00  0.00    -0.082 A 
ATOM     47  H6  BK3 d   1      24.243  16.370   8.270  0.00  0.00     0.083 H 
ATOM     48  CAI BK3 d   1      24.077  13.171   7.096  0.00  0.00    -0.072 A 
ATOM     49  H7  BK3 d   1      22.570  14.626   7.603  0.00  0.00     0.083 H 
ATOM     50  H12 BK3 d   1      23.343  12.426   6.810  0.00  0.00     0.084 H 
ENDBRANCH  31  34
ENDBRANCH   9  31
BRANCH   6  51
ATOM     51  NAA BK3 d   1      26.760   8.254   7.937  0.00  0.00    -0.383 N 
ATOM     52  H2  BK3 d   1      26.240   9.133   8.066  0.00  0.00     0.157 HD
ATOM     53  H3  BK3 d   1      27.247   7.822   8.735  0.00  0.00     0.157 HD
ENDBRANCH   6  51
TORSDOF 5
