REMARK  6 active torsions:
REMARK  status: ('A' for Active; 'I' for Inactive)
REMARK    1  A    between atoms: C1_1  and  C21_21 
REMARK    2  A    between atoms: N7_7  and  C24_24 
REMARK    3  A    between atoms: C8_8  and  C16_16 
REMARK    4  A    between atoms: C9_9  and  C10_10 
REMARK    5  A    between atoms: C24_24  and  C25_25 
REMARK       I    between atoms: C25_25  and  N27_27 
REMARK    6  A    between atoms: C30_30  and  C33_33 
ROOT
ATOM      1  C1  BIW d   1     -24.197 -17.114 -30.702  0.00  0.00     0.043 A 
ATOM      2  C2  BIW d   1     -25.564 -16.682 -30.639  0.00  0.00    -0.040 A 
ATOM      3  C3  BIW d   1     -25.931 -15.556 -29.826  0.00  0.00     0.047 A 
ATOM      4  C4  BIW d   1     -24.930 -14.866 -29.086  0.00  0.00    -0.000 A 
ATOM      5  C5  BIW d   1     -23.560 -15.302 -29.152  0.00  0.00    -0.069 A 
ATOM      6  C6  BIW d   1     -23.199 -16.418 -29.956  0.00  0.00    -0.066 A 
ATOM      7  N7  BIW d   1     -27.165 -14.933 -29.589  0.00  0.00    -0.336 N 
ATOM      8  C8  BIW d   1     -26.968 -13.853 -28.698  0.00  0.00     0.055 A 
ATOM      9  C9  BIW d   1     -25.591 -13.785 -28.372  0.00  0.00    -0.014 A 
ATOM     10  H   BIW d   1     -26.327 -17.210 -31.210  0.00  0.00     0.088 H 
ATOM     11  H   BIW d   1     -22.795 -14.774 -28.583  0.00  0.00     0.085 H 
ATOM     12  H   BIW d   1     -22.159 -16.742 -30.003  0.00  0.00     0.085 H 
ENDROOT
BRANCH   7  13
ATOM     13  C24 BIW d   1     -28.455 -15.363 -30.192  0.00  0.00     0.074 C 
ATOM     14  H   BIW d   1     -29.258 -15.067 -29.517  0.00  0.00     0.079 H 
ATOM     15  H   BIW d   1     -28.414 -16.442 -30.342  0.00  0.00     0.079 H 
BRANCH  13  16
ATOM     16  C25 BIW d   1     -28.716 -14.699 -31.566  0.00  0.00     0.238 C 
ATOM     17  O26 BIW d   1     -27.779 -14.225 -32.229  0.00  0.00    -0.272 OA
ATOM     18  N27 BIW d   1     -30.069 -14.636 -32.050  0.00  0.00    -0.351 N 
ATOM     19  C28 BIW d   1     -31.210 -15.215 -31.275  0.00  0.00    -0.002 C 
ATOM     20  C32 BIW d   1     -30.353 -13.990 -33.357  0.00  0.00    -0.002 C 
ATOM     21  C29 BIW d   1     -32.418 -14.252 -31.193  0.00  0.00    -0.037 C 
ATOM     22  H   BIW d   1     -30.864 -15.408 -30.260  0.00  0.00     0.064 H 
ATOM     23  H   BIW d   1     -31.537 -16.122 -31.783  0.00  0.00     0.064 H 
ATOM     24  C30 BIW d   1     -32.750 -13.582 -32.550  0.00  0.00     0.033 C 
ATOM     25  H   BIW d   1     -32.166 -13.462 -30.485  0.00  0.00     0.036 H 
ATOM     26  H   BIW d   1     -33.287 -14.835 -30.888  0.00  0.00     0.036 H 
ATOM     27  C31 BIW d   1     -31.509 -12.978 -33.236  0.00  0.00    -0.037 C 
ATOM     28  H   BIW d   1     -33.128 -14.378 -33.191  0.00  0.00     0.056 H 
ATOM     29  H   BIW d   1     -31.162 -12.141 -32.630  0.00  0.00     0.036 H 
ATOM     30  H   BIW d   1     -31.796 -12.672 -34.242  0.00  0.00     0.036 H 
ATOM     31  H   BIW d   1     -30.638 -14.761 -34.073  0.00  0.00     0.064 H 
ATOM     32  H   BIW d   1     -29.459 -13.460 -33.686  0.00  0.00     0.064 H 
BRANCH  24  33
ATOM     33  C33 BIW d   1     -33.847 -12.494 -32.393  0.00  0.00     0.177 C 
ATOM     34  O34 BIW d   1     -33.724 -11.630 -31.464  0.00  0.00    -0.648 OA
ATOM     35  O35 BIW d   1     -34.815 -12.509 -33.214  0.00  0.00    -0.648 OA
ENDBRANCH  24  33
ENDBRANCH  13  16
ENDBRANCH   7  13
BRANCH   8  36
ATOM     36  C16 BIW d   1     -27.999 -12.952 -28.197  0.00  0.00     0.015 A 
ATOM     37  C17 BIW d   1     -28.859 -12.130 -28.963  0.00  0.00    -0.048 A 
ATOM     38  C18 BIW d   1     -29.660 -11.459 -28.062  0.00  0.00     0.019 A 
ATOM     39  H   BIW d   1     -28.884 -12.044 -30.049  0.00  0.00     0.087 H 
ATOM     40  O19 BIW d   1     -29.342 -11.821 -26.783  0.00  0.00    -0.334 OA
ATOM     41  H   BIW d   1     -30.436 -10.742 -28.332  0.00  0.00     0.123 H 
ATOM     42  C20 BIW d   1     -28.330 -12.731 -26.873  0.00  0.00     0.030 A 
ATOM     43  H   BIW d   1     -27.851 -13.215 -26.022  0.00  0.00     0.124 H 
ENDBRANCH   8  36
BRANCH   9  44
ATOM     44  C10 BIW d   1     -24.918 -12.752 -27.431  0.00  0.00    -0.025 C 
ATOM     45  C11 BIW d   1     -24.419 -13.396 -26.108  0.00  0.00    -0.058 C 
ATOM     46  C12 BIW d   1     -23.698 -12.382 -25.197  0.00  0.00    -0.064 C 
ATOM     47  H   BIW d   1     -23.711 -14.184 -26.363  0.00  0.00     0.034 H 
ATOM     48  H   BIW d   1     -25.287 -13.776 -25.569  0.00  0.00     0.034 H 
ATOM     49  C13 BIW d   1     -22.545 -11.657 -25.920  0.00  0.00    -0.065 C 
ATOM     50  H   BIW d   1     -23.276 -12.928 -24.353  0.00  0.00     0.033 H 
ATOM     51  H   BIW d   1     -24.425 -11.632 -24.886  0.00  0.00     0.033 H 
ATOM     52  C14 BIW d   1     -22.988 -11.019 -27.247  0.00  0.00    -0.064 C 
ATOM     53  H   BIW d   1     -21.773 -12.393 -26.143  0.00  0.00     0.033 H 
ATOM     54  H   BIW d   1     -22.188 -10.860 -25.267  0.00  0.00     0.033 H 
ATOM     55  C15 BIW d   1     -23.754 -11.999 -28.158  0.00  0.00    -0.058 C 
ATOM     56  H   BIW d   1     -22.091 -10.701 -27.779  0.00  0.00     0.033 H 
ATOM     57  H   BIW d   1     -23.657 -10.191 -27.011  0.00  0.00     0.033 H 
ATOM     58  H   BIW d   1     -24.196 -11.416 -28.966  0.00  0.00     0.034 H 
ATOM     59  H   BIW d   1     -23.043 -12.751 -28.500  0.00  0.00     0.034 H 
ATOM     60  H   BIW d   1     -25.684 -12.024 -27.164  0.00  0.00     0.047 H 
ENDBRANCH   9  44
BRANCH   1  61
ATOM     61  C21 BIW d   1     -23.807 -18.303 -31.562  0.00  0.00     0.209 C 
ATOM     62  O22 BIW d   1     -22.583 -18.648 -31.590  0.00  0.00    -0.644 OA
ATOM     63  O23 BIW d   1     -24.722 -18.900 -32.215  0.00  0.00    -0.644 OA
ENDBRANCH   1  61
TORSDOF 6
