REMARK  27 active torsions:
REMARK  status: ('A' for Active; 'I' for Inactive)
REMARK    1  A    between atoms: N_1  and  CA_2 
REMARK    2  A    between atoms: CA_2  and  C_3 
REMARK       I    between atoms: C_3  and  N_5 
REMARK    3  A    between atoms: N_5  and  CA_6 
REMARK    4  A    between atoms: CA_6  and  C_7 
REMARK    5  A    between atoms: CA_6  and  CB_9 
REMARK       I    between atoms: C_7  and  N_21 
REMARK    6  A    between atoms: CB_9  and  CG_10 
REMARK    7  A    between atoms: CZ_15  and  OH_16 
REMARK    8  A    between atoms: OH_16  and  P_17 
REMARK    9  A    between atoms: N_21  and  CA_22 
REMARK   10  A    between atoms: CA_22  and  C_23 
REMARK   11  A    between atoms: CA_22  and  CB_25 
REMARK       I    between atoms: C_23  and  N_30 
REMARK   12  A    between atoms: CB_25  and  CG_26 
REMARK   13  A    between atoms: CG_26  and  CD_27 
REMARK   14  A    between atoms: N_30  and  CA_31 
REMARK   15  A    between atoms: CA_31  and  C_32 
REMARK   16  A    between atoms: CA_31  and  CB_34 
REMARK       I    between atoms: C_32  and  N_38 
REMARK   17  A    between atoms: CB_34  and  CG_35 
REMARK       I    between atoms: CG_35  and  ND2_37 
REMARK   18  A    between atoms: CA_39  and  C_40 
REMARK       I    between atoms: C_40  and  N_45 
REMARK   19  A    between atoms: N_45  and  CA_46 
REMARK   20  A    between atoms: CA_46  and  C_47 
REMARK   21  A    between atoms: CA_46  and  CB_49 
REMARK       I    between atoms: C_47  and  N_52 
REMARK   22  A    between atoms: CB_49  and  OG1_50 
REMARK   23  A    between atoms: CB_49  and  CG2_51 
REMARK   24  A    between atoms: N_52  and  CA_53 
REMARK   25  A    between atoms: CA_53  and  C_54 
REMARK   26  A    between atoms: CA_53  and  CB_56 
REMARK   27  A    between atoms: CB_56  and  CG_57 
ROOT
ATOM      1  CA  ASN d   1       1.871  39.623  47.333  0.00  0.00     0.097 C 
ATOM      2  H   ASN d   1       1.414  39.474  48.311  0.00  0.00     0.088 H 
ENDROOT
BRANCH   1   3
ATOM      3  N   ASN d   1       2.848  40.693  47.442  0.00  0.00    -0.346 N 
ATOM      4  C   GLU d   1       3.335  41.046  48.624  0.00  0.00     0.241 C 
ATOM      5  O   GLU d   1       2.986  40.506  49.674  0.00  0.00    -0.271 OA
ATOM      6  H   ASN d   1       3.162  41.177  46.601  0.00  0.00     0.163 HD
BRANCH   4   7
ATOM      7  CA  GLU d   1       4.342  42.187  48.631  0.00  0.00     0.090 C 
ATOM      8  H   GLU d   1       5.031  42.037  49.462  0.00  0.00     0.087 H 
BRANCH   7   9
ATOM      9  N   GLU d   1       5.176  42.220  47.427  0.00  0.00    -0.346 N 
ATOM     10  C   PTR d   1       6.067  41.268  47.157  0.00  0.00     0.241 C 
ATOM     11  O   PTR d   1       6.262  40.308  47.906  0.00  0.00    -0.271 OA
ATOM     12  H   GLU d   1       5.071  42.997  46.775  0.00  0.00     0.163 HD
BRANCH  10  13
ATOM     13  CA  PTR d   1       6.881  41.438  45.861  0.00  0.00     0.093 C 
ATOM     14  H   PTR d   1       7.132  42.493  45.756  0.00  0.00     0.088 H 
BRANCH  13  15
ATOM     15  N   PTR d   1       8.164  40.761  45.891  0.00  0.00    -0.346 N 
ATOM     16  C   GLY d   1       9.292  41.451  45.798  0.00  0.00     0.243 C 
ATOM     17  O   GLY d   1       9.316  42.682  45.739  0.00  0.00    -0.272 OA
ATOM     18  H   PTR d   1       8.198  39.746  45.984  0.00  0.00     0.163 HD
BRANCH  16  19
ATOM     19  CA  GLY d   1      10.570  40.637  45.802  0.00  0.00     0.152 C 
ATOM     20  H   GLY d   1      10.573  40.029  46.707  0.00  0.00     0.090 H 
ATOM     21  H   GLY d   1      10.588  40.043  44.888  0.00  0.00     0.090 H 
BRANCH  19  22
ATOM     22  N   GLY d   1      11.766  41.457  45.818  0.00  0.00    -0.071 N 
ATOM     23  H   GLY d   1      12.589  40.855  45.820  0.00  0.00     0.274 HD
ATOM     24  H   GLY d   1      11.780  42.052  44.989  0.00  0.00     0.274 HD
ATOM     25  H   GLY d   1      11.767  42.039  46.656  0.00  0.00     0.274 HD
ENDBRANCH  19  22
ENDBRANCH  16  19
ENDBRANCH  13  15
BRANCH  13  26
ATOM     26  CB  PTR d   1       6.049  41.012  44.710  0.00  0.00    -0.014 C 
ATOM     27  H   PTR d   1       5.118  41.578  44.739  0.00  0.00     0.043 H 
ATOM     28  H   PTR d   1       5.885  39.938  44.792  0.00  0.00     0.043 H 
BRANCH  26  29
ATOM     29  CG  PTR d   1       6.726  41.286  43.371  0.00  0.00    -0.056 A 
ATOM     30  CD1 PTR d   1       7.580  40.351  42.814  0.00  0.00    -0.074 A 
ATOM     31  CE1 PTR d   1       8.203  40.586  41.583  0.00  0.00    -0.050 A 
ATOM     32  H   PTR d   1       7.771  39.417  43.342  0.00  0.00     0.084 H 
ATOM     33  CZ  PTR d   1       7.963  41.759  40.889  0.00  0.00     0.082 A 
ATOM     34  H   PTR d   1       8.882  39.840  41.168  0.00  0.00     0.087 H 
ATOM     35  CE2 PTR d   1       7.103  42.715  41.428  0.00  0.00    -0.050 A 
ATOM     36  CD2 PTR d   1       6.475  42.442  42.649  0.00  0.00    -0.074 A 
ATOM     37  H   PTR d   1       6.923  43.656  40.909  0.00  0.00     0.087 H 
ATOM     38  H   PTR d   1       5.763  43.165  43.046  0.00  0.00     0.084 H 
BRANCH  33  39
ATOM     39  OH  PTR d   1       8.493  41.993  39.726  0.00  0.00    -0.240 OA
BRANCH  39  40
ATOM     40  P   PTR d   1       9.888  42.779  39.509  0.00  0.00     0.427 P 
ATOM     41  O1P PTR d   1      10.950  41.780  39.366  0.00  0.00    -0.617 OA
ATOM     42  O2P PTR d   1      10.084  43.703  40.695  0.00  0.00    -0.617 OA
ATOM     43  O3P PTR d   1       9.610  43.549  38.250  0.00  0.00    -0.617 OA
ENDBRANCH  39  40
ENDBRANCH  33  39
ENDBRANCH  26  29
ENDBRANCH  13  26
ENDBRANCH  10  13
ENDBRANCH   7   9
BRANCH   7  44
ATOM     44  CB  GLU d   1       3.571  43.500  48.795  0.00  0.00    -0.029 C 
ATOM     45  H   GLU d   1       2.954  43.391  49.687  0.00  0.00     0.037 H 
ATOM     46  H   GLU d   1       3.022  43.658  47.867  0.00  0.00     0.037 H 
BRANCH  44  47
ATOM     47  CG  GLU d   1       4.426  44.728  49.007  0.00  0.00     0.018 C 
ATOM     48  H   GLU d   1       3.762  45.587  49.101  0.00  0.00     0.049 H 
ATOM     49  H   GLU d   1       5.105  44.815  48.159  0.00  0.00     0.049 H 
BRANCH  47  50
ATOM     50  CD  GLU d   1       5.261  44.645  50.265  0.00  0.00     0.172 C 
ATOM     51  OE1 GLU d   1       4.692  44.409  51.351  0.00  0.00    -0.648 OA
ATOM     52  OE2 GLU d   1       6.491  44.822  50.173  0.00  0.00    -0.648 OA
ENDBRANCH  47  50
ENDBRANCH  44  47
ENDBRANCH   7  44
ENDBRANCH   4   7
ENDBRANCH   1   3
BRANCH   1  53
ATOM     53  C   ASN d   1       2.538  38.321  46.919  0.00  0.00     0.243 C 
ATOM     54  O   ASN d   1       3.318  38.285  45.967  0.00  0.00    -0.271 OA
ATOM     55  N   PRO d   1       2.245  37.168  47.810  0.00  0.00    -0.337 N 
ATOM     56  CA  PRO d   1       2.846  35.860  47.529  0.00  0.00     0.091 C 
ATOM     57  CD  PRO d   1       1.172  37.063  48.811  0.00  0.00    -0.001 C 
ATOM     58  CB  PRO d   1       2.080  34.923  48.473  0.00  0.00    -0.036 C 
ATOM     59  H   PRO d   1       3.917  35.748  47.699  0.00  0.00     0.087 H 
ATOM     60  CG  PRO d   1       0.760  35.630  48.678  0.00  0.00    -0.048 C 
ATOM     61  H   PRO d   1       2.610  34.749  49.409  0.00  0.00     0.036 H 
ATOM     62  H   PRO d   1       1.958  33.922  48.059  0.00  0.00     0.036 H 
ATOM     63  H   PRO d   1       0.211  35.263  49.545  0.00  0.00     0.035 H 
ATOM     64  H   PRO d   1       0.057  35.464  47.862  0.00  0.00     0.035 H 
ATOM     65  H   PRO d   1       0.355  37.764  48.642  0.00  0.00     0.064 H 
ATOM     66  H   PRO d   1       1.494  37.327  49.818  0.00  0.00     0.064 H 
BRANCH  56  67
ATOM     67  C   PRO d   1       2.619  35.596  46.026  0.00  0.00     0.241 C 
ATOM     68  O   PRO d   1       1.528  35.848  45.520  0.00  0.00    -0.271 OA
ATOM     69  N   THR d   1       3.608  35.178  45.101  0.00  0.00    -0.344 N 
ATOM     70  H   THR d   1       4.525  34.964  45.492  0.00  0.00     0.163 HD
BRANCH  69  71
ATOM     71  CA  THR d   1       3.469  35.013  43.620  0.00  0.00     0.113 C 
ATOM     72  H   THR d   1       2.522  35.503  43.395  0.00  0.00     0.091 H 
BRANCH  71  73
ATOM     73  C   THR d   1       3.205  33.592  43.003  0.00  0.00     0.243 C 
ATOM     74  O   THR d   1       3.129  33.431  41.773  0.00  0.00    -0.271 OA
ATOM     75  N   TYR d   1       3.083  32.646  43.905  0.00  0.00    -0.345 N 
ATOM     76  H   TYR d   1       3.206  32.915  44.881  0.00  0.00     0.163 HD
BRANCH  75  77
ATOM     77  CA  TYR d   1       2.792  31.268  43.639  0.00  0.00     0.096 C 
ATOM     78  H   TYR d   1       2.680  31.114  42.566  0.00  0.00     0.089 H 
BRANCH  77  79
ATOM     79  C   TYR d   1       1.531  30.926  44.381  0.00  0.00     0.196 C 
ATOM     80  O   TYR d   1       1.290  31.429  45.478  0.00  0.00    -0.646 OA
ATOM     81  OXT TYR d   1       0.610  30.409  43.749  0.00  0.00    -0.646 OA
ENDBRANCH  77  79
BRANCH  77  82
ATOM     82  CB  TYR d   1       3.921  30.368  44.129  0.00  0.00    -0.040 C 
ATOM     83  H   TYR d   1       4.851  30.686  43.658  0.00  0.00     0.036 H 
ATOM     84  H   TYR d   1       3.684  29.337  43.869  0.00  0.00     0.036 H 
BRANCH  82  85
ATOM     85  CG  TYR d   1       4.069  30.459  45.532  0.00  0.00    -0.074 A 
ATOM     86  H   TYR d   1       4.298  31.489  45.806  0.00  0.00     0.027 H 
ATOM     87  H   TYR d   1       3.141  30.151  46.015  0.00  0.00     0.027 H 
ATOM     88  H   TYR d   1       4.881  29.807  45.853  0.00  0.00     0.027 H 
ENDBRANCH  82  85
ENDBRANCH  77  82
ENDBRANCH  75  77
ENDBRANCH  71  73
BRANCH  71  89
ATOM     89  CB  THR d   1       4.706  35.654  42.968  0.00  0.00     0.060 C 
ATOM     90  H   THR d   1       4.607  35.615  41.883  0.00  0.00     0.086 H 
BRANCH  89  91
ATOM     91  OG1 THR d   1       5.865  34.921  43.391  0.00  0.00    -0.393 OA
ATOM     92  H   THR d   1       6.649  35.307  42.993  0.00  0.00     0.210 HD
ENDBRANCH  89  91
BRANCH  89  93
ATOM     93  CG2 THR d   1       4.836  37.120  43.362  0.00  0.00    -0.050 C 
ATOM     94  H   THR d   1       3.949  37.663  43.036  0.00  0.00     0.031 H 
ATOM     95  H   THR d   1       4.933  37.197  44.445  0.00  0.00     0.031 H 
ATOM     96  H   THR d   1       5.719  37.546  42.886  0.00  0.00     0.031 H 
ENDBRANCH  89  93
ENDBRANCH  71  89
ENDBRANCH  69  71
ENDBRANCH  56  67
ENDBRANCH   1  53
BRANCH   1  97
ATOM     97  CB  ASN d   1       0.777  40.007  46.325  0.00  0.00     0.036 C 
ATOM     98  H   ASN d   1       0.278  40.901  46.697  0.00  0.00     0.051 H 
ATOM     99  H   ASN d   1       0.100  39.158  46.226  0.00  0.00     0.051 H 
BRANCH  97 100
ATOM    100  CG  ASN d   1       1.333  40.322  44.951  0.00  0.00     0.217 C 
ATOM    101  OD1 ASN d   1       2.396  40.928  44.828  0.00  0.00    -0.274 OA
ATOM    102  ND2 ASN d   1       0.607  39.926  43.909  0.00  0.00    -0.370 N 
ATOM    103  H   ASN d   1       0.927  40.123  42.961  0.00  0.00     0.159 HD
ATOM    104  H   ASN d   1      -0.269  39.426  44.059  0.00  0.00     0.159 HD
ENDBRANCH  97 100
ENDBRANCH   1  97
TORSDOF 27
