REMARK  11 active torsions:
REMARK  status: ('A' for Active; 'I' for Inactive)
REMARK    1  A    between atoms: CAV_22  and  CAA_1 
REMARK    2  A    between atoms: CAX_24  and  CAB_2 
REMARK    3  A    between atoms: CAY_25  and  CAC_3 
REMARK    4  A    between atoms: CBE_31  and  CAD_4 
REMARK    5  A    between atoms: CBE_31  and  CAE_5 
REMARK    6  A    between atoms: CBE_31  and  CAF_6 
REMARK    7  A    between atoms: CAM_13  and  CAS_19 
REMARK    8  A    between atoms: CBC_29  and  CAM_13 
REMARK    9  A    between atoms: CAS_19  and  OAQ_17 
REMARK   10  A    between atoms: OAQ_17  and  CBE_31 
REMARK   11  A    between atoms: CAT_20  and  CAW_23 
ROOT
ATOM      1  NAN JQ1 d   1      29.662  16.042  -2.828  0.00  0.00    -0.275 NA
ATOM      2  NAO JQ1 d   1      31.817  18.128   0.283  0.00  0.00    -0.135 NA
ATOM      3  NAP JQ1 d   1      32.044  17.250  -0.625  0.00  0.00    -0.132 NA
ATOM      4  SAR JQ1 d   1      27.810  16.331   1.456  0.00  0.00    -0.075 SA
ATOM      5  CAT JQ1 d   1      28.375  16.220  -2.489  0.00  0.00     0.075 C 
ATOM      6  CAV JQ1 d   1      30.534  18.050   0.671  0.00  0.00     0.131 A 
ATOM      7  CAX JQ1 d   1      26.460  15.625   0.646  0.00  0.00    -0.012 A 
ATOM      8  CAY JQ1 d   1      26.696  15.557  -0.722  0.00  0.00    -0.034 A 
ATOM      9  CAZ JQ1 d   1      30.894  16.581  -0.833  0.00  0.00     0.161 A 
ATOM     10  CBA JQ1 d   1      27.931  16.125  -1.137  0.00  0.00     0.035 A 
ATOM     11  CBB JQ1 d   1      28.660  16.602  -0.030  0.00  0.00     0.097 A 
ATOM     12  CBC JQ1 d   1      30.646  15.463  -1.866  0.00  0.00     0.101 C 
ATOM     13  NBD JQ1 d   1      29.932  17.088  -0.061  0.00  0.00    -0.275 N 
ATOM     14  H   JQ1 d   1      30.277  14.569  -1.364  0.00  0.00     0.089 H 
ENDROOT
BRANCH  12  15
ATOM     15  CAM JQ1 d   1      31.898  14.964  -2.576  0.00  0.00     0.043 C 
ATOM     16  H   JQ1 d   1      32.432  15.803  -3.023  0.00  0.00     0.051 H 
ATOM     17  H   JQ1 d   1      32.561  14.474  -1.863  0.00  0.00     0.051 H 
BRANCH  15  18
ATOM     18  CAS JQ1 d   1      31.475  13.972  -3.665  0.00  0.00     0.262 C 
ATOM     19  OAG JQ1 d   1      32.109  13.864  -4.714  0.00  0.00    -0.265 OA
BRANCH  18  20
ATOM     20  OAQ JQ1 d   1      30.400  13.247  -3.384  0.00  0.00    -0.311 OA
BRANCH  20  21
ATOM     21  CBE JQ1 d   1      29.731  12.302  -4.299  0.00  0.00     0.060 C 
BRANCH  21  22
ATOM     22  CAD JQ1 d   1      29.233  13.118  -5.465  0.00  0.00    -0.048 C 
ATOM     23  H   JQ1 d   1      28.535  13.874  -5.106  0.00  0.00     0.031 H 
ATOM     24  H   JQ1 d   1      30.078  13.604  -5.954  0.00  0.00     0.031 H 
ATOM     25  H   JQ1 d   1      28.728  12.464  -6.175  0.00  0.00     0.031 H 
ENDBRANCH  21  22
BRANCH  21  26
ATOM     26  CAE JQ1 d   1      30.649  11.124  -4.687  0.00  0.00    -0.048 C 
ATOM     27  H   JQ1 d   1      31.540  11.508  -5.185  0.00  0.00     0.031 H 
ATOM     28  H   JQ1 d   1      30.939  10.580  -3.788  0.00  0.00     0.031 H 
ATOM     29  H   JQ1 d   1      30.114  10.455  -5.361  0.00  0.00     0.031 H 
ENDBRANCH  21  26
BRANCH  21  30
ATOM     30  CAF JQ1 d   1      28.543  11.742  -3.510  0.00  0.00    -0.048 C 
ATOM     31  H   JQ1 d   1      28.908  11.239  -2.614  0.00  0.00     0.031 H 
ATOM     32  H   JQ1 d   1      27.880  12.559  -3.225  0.00  0.00     0.031 H 
ATOM     33  H   JQ1 d   1      27.999  11.030  -4.131  0.00  0.00     0.031 H 
ENDBRANCH  21  30
ENDBRANCH  20  21
ENDBRANCH  18  20
ENDBRANCH  15  18
ENDBRANCH  12  15
BRANCH   5  34
ATOM     34  CAW JQ1 d   1      27.522  16.765  -3.512  0.00  0.00    -0.007 A 
ATOM     35  CAK JQ1 d   1      26.351  17.447  -3.210  0.00  0.00    -0.069 A 
ATOM     36  CAI JQ1 d   1      25.532  17.964  -4.219  0.00  0.00    -0.061 A 
ATOM     37  H   JQ1 d   1      26.065  17.582  -2.167  0.00  0.00     0.085 H 
ATOM     38  CAU JQ1 d   1      25.880  17.822  -5.542  0.00  0.00     0.034 A 
ATOM     39  H   JQ1 d   1      24.611  18.483  -3.955  0.00  0.00     0.086 H 
ATOM     40 CLAH JQ1 d   1      24.824  18.476  -6.770  0.00  0.00    -0.084 Cl
ATOM     41  CAJ JQ1 d   1      27.032  17.110  -5.868  0.00  0.00    -0.061 A 
ATOM     42  CAL JQ1 d   1      27.857  16.609  -4.867  0.00  0.00    -0.069 A 
ATOM     43  H   JQ1 d   1      27.288  16.945  -6.914  0.00  0.00     0.086 H 
ATOM     44  H   JQ1 d   1      28.776  16.088  -5.138  0.00  0.00     0.085 H 
ENDBRANCH   5  34
BRANCH   6  45
ATOM     45  CAA JQ1 d   1      29.899  18.962   1.724  0.00  0.00    -0.019 C 
ATOM     46  H   JQ1 d   1      30.426  18.843   2.671  0.00  0.00     0.037 H 
ATOM     47  H   JQ1 d   1      29.970  19.999   1.395  0.00  0.00     0.037 H 
ATOM     48  H   JQ1 d   1      28.851  18.691   1.853  0.00  0.00     0.037 H 
ENDBRANCH   6  45
BRANCH   8  49
ATOM     49  CAC JQ1 d   1      25.682  14.930  -1.694  0.00  0.00    -0.049 C 
ATOM     50  H   JQ1 d   1      25.517  13.887  -1.423  0.00  0.00     0.033 H 
ATOM     51  H   JQ1 d   1      24.740  15.475  -1.636  0.00  0.00     0.033 H 
ATOM     52  H   JQ1 d   1      26.073  14.985  -2.710  0.00  0.00     0.033 H 
ENDBRANCH   8  49
BRANCH   7  53
ATOM     53  CAB JQ1 d   1      25.204  15.116   1.393  0.00  0.00    -0.045 C 
ATOM     54  H   JQ1 d   1      24.323  15.635   1.016  0.00  0.00     0.034 H 
ATOM     55  H   JQ1 d   1      25.094  14.044   1.228  0.00  0.00     0.034 H 
ATOM     56  H   JQ1 d   1      25.313  15.311   2.460  0.00  0.00     0.034 H 
ENDBRANCH   7  53
TORSDOF 11
