REMARK  12 active torsions:
REMARK  status: ('A' for Active; 'I' for Inactive)
REMARK    1  A    between atoms: CA_4  and  C_1 
REMARK       I    between atoms: C_1  and  NAS_22 
REMARK    2  A    between atoms: N_2  and  CA_4 
REMARK       I    between atoms: CAV_23  and  N_2 
REMARK    3  A    between atoms: CA_4  and  CB_5 
REMARK    4  A    between atoms: CB_5  and  CAN_18 
REMARK    5  A    between atoms: CAM_17  and  CAA_6 
REMARK    6  A    between atoms: CAY_27  and  OAF_10 
REMARK    7  A    between atoms: BAY_26  and  OAG_11 
REMARK    8  A    between atoms: BAY_26  and  OAH_12 
REMARK    9  A    between atoms: NBC_29  and  CAM_17 
REMARK   10  A    between atoms: CAN_18  and  CAZ_28 
REMARK   11  A    between atoms: NAS_22  and  CAP_19 
REMARK   12  A    between atoms: CAP_19  and  BAY_26 
REMARK       I    between atoms: NBD_30  and  CAV_23 
ROOT
ATOM      1  CA  CZ8 d   1      31.961  66.555   4.424  0.00  0.00     0.091 C 
ATOM      2  H   CZ8 d   1      32.662  66.535   5.258  0.00  0.00     0.087 H 
ENDROOT
BRANCH   1   3
ATOM      3  C   CZ8 d   1      31.349  65.188   4.215  0.00  0.00     0.239 C 
ATOM      4  O   CZ8 d   1      30.293  65.044   3.591  0.00  0.00    -0.271 OA
ATOM      5  NAS CZ8 d   1      31.979  64.137   4.721  0.00  0.00    -0.363 N 
ATOM      6  H   CZ8 d   1      32.848  64.320   5.222  0.00  0.00     0.161 HD
BRANCH   5   7
ATOM      7  CAP CZ8 d   1      31.554  62.746   4.633  0.00  0.00     0.030 C 
ATOM      8  H   CZ8 d   1      31.942  62.298   3.718  0.00  0.00     0.057 H 
ATOM      9  H   CZ8 d   1      30.465  62.693   4.615  0.00  0.00     0.057 H 
BRANCH   7  10
ATOM     10  BAY CZ8 d   1      32.116  61.953   5.908  0.00  0.00     0.510 B 
BRANCH  10  11
ATOM     11  OAG CZ8 d   1      33.568  62.308   6.229  0.00  0.00    -0.436 OA
ATOM     12  H   CZ8 d   1      33.625  63.237   6.463  0.00  0.00     0.184 HD
ENDBRANCH  10  11
BRANCH  10  13
ATOM     13  OAH CZ8 d   1      31.264  62.236   7.153  0.00  0.00    -0.436 OA
ATOM     14  H   CZ8 d   1      30.348  62.018   6.968  0.00  0.00     0.184 HD
ENDBRANCH  10  13
ENDBRANCH   7  10
ENDBRANCH   5   7
ENDBRANCH   1   3
BRANCH   1  15
ATOM     15  N   CZ8 d   1      30.865  67.484   4.665  0.00  0.00    -0.329 N 
ATOM     16  CAV CZ8 d   1      31.049  68.503   5.524  0.00  0.00     0.326 C 
ATOM     17  OAC CZ8 d   1      32.117  68.676   6.115  0.00  0.00    -0.247 OA
ATOM     18  NBD CZ8 d   1      30.011  69.333   5.752  0.00  0.00    -0.261 N 
ATOM     19  CAR CZ8 d   1      29.896  70.027   7.024  0.00  0.00     0.019 C 
ATOM     20  CAX CZ8 d   1      28.943  69.560   4.782  0.00  0.00     0.314 C 
ATOM     21  CAQ CZ8 d   1      28.546  70.652   7.353  0.00  0.00     0.002 C 
ATOM     22  H   CZ8 d   1      30.069  69.272   7.791  0.00  0.00     0.067 H 
ATOM     23  H   CZ8 d   1      30.603  70.855   6.976  0.00  0.00     0.067 H 
ATOM     24  NBC CZ8 d   1      27.613  71.019   6.286  0.00  0.00    -0.244 NA
ATOM     25  H   CZ8 d   1      28.799  71.602   7.825  0.00  0.00     0.059 H 
ATOM     26  H   CZ8 d   1      28.022  69.876   7.911  0.00  0.00     0.059 H 
ATOM     27  CAW CZ8 d   1      27.920  70.583   5.047  0.00  0.00     0.291 C 
ATOM     28  OAD CZ8 d   1      27.322  71.059   4.087  0.00  0.00    -0.269 OA
ATOM     29  OAE CZ8 d   1      28.874  68.913   3.746  0.00  0.00    -0.262 OA
ATOM     30  H   CZ8 d   1      29.971  67.364   4.189  0.00  0.00     0.165 HD
BRANCH  24  31
ATOM     31  CAM CZ8 d   1      26.272  70.590   6.675  0.00  0.00    -0.017 C 
ATOM     32  H   CZ8 d   1      25.885  69.916   5.911  0.00  0.00     0.056 H 
ATOM     33  H   CZ8 d   1      26.331  70.091   7.643  0.00  0.00     0.056 H 
BRANCH  31  34
ATOM     34  CAA CZ8 d   1      25.336  71.775   6.796  0.00  0.00    -0.065 C 
ATOM     35  H   CZ8 d   1      25.717  72.462   7.552  0.00  0.00     0.029 H 
ATOM     36  H   CZ8 d   1      25.275  72.287   5.836  0.00  0.00     0.029 H 
ATOM     37  H   CZ8 d   1      24.345  71.426   7.087  0.00  0.00     0.029 H 
ENDBRANCH  31  34
ENDBRANCH  24  31
ENDBRANCH   1  15
BRANCH   1  38
ATOM     38  CB  CZ8 d   1      32.699  66.989   3.165  0.00  0.00    -0.034 C 
ATOM     39  H   CZ8 d   1      32.864  68.066   3.210  0.00  0.00     0.037 H 
ATOM     40  H   CZ8 d   1      32.096  66.722   2.297  0.00  0.00     0.037 H 
BRANCH  38  41
ATOM     41  CAN CZ8 d   1      34.048  66.293   3.055  0.00  0.00    -0.039 C 
ATOM     42  H   CZ8 d   1      33.894  65.221   2.934  0.00  0.00     0.040 H 
ATOM     43  H   CZ8 d   1      34.627  66.480   3.960  0.00  0.00     0.040 H 
BRANCH  41  44
ATOM     44  CAZ CZ8 d   1      34.800  66.830   1.858  0.00  0.00    -0.058 A 
ATOM     45  CAK CZ8 d   1      34.347  66.568   0.564  0.00  0.00    -0.074 A 
ATOM     46  CAI CZ8 d   1      35.050  67.065  -0.530  0.00  0.00    -0.051 A 
ATOM     47  H   CZ8 d   1      33.445  65.976   0.410  0.00  0.00     0.084 H 
ATOM     48  CAY CZ8 d   1      36.205  67.816  -0.328  0.00  0.00     0.065 A 
ATOM     49  H   CZ8 d   1      34.697  66.867  -1.542  0.00  0.00     0.087 H 
ATOM     50  CAJ CZ8 d   1      36.658  68.077   0.964  0.00  0.00    -0.051 A 
ATOM     51  CAL CZ8 d   1      35.953  67.582   2.061  0.00  0.00    -0.074 A 
ATOM     52  H   CZ8 d   1      37.562  68.667   1.117  0.00  0.00     0.087 H 
ATOM     53  H   CZ8 d   1      36.304  67.783   3.073  0.00  0.00     0.084 H 
BRANCH  48  54
ATOM     54  OAF CZ8 d   1      36.896  68.296  -1.400  0.00  0.00    -0.361 OA
ATOM     55  H   CZ8 d   1      37.660  68.788  -1.092  0.00  0.00     0.217 HD
ENDBRANCH  48  54
ENDBRANCH  41  44
ENDBRANCH  38  41
ENDBRANCH   1  38
TORSDOF 12
