REMARK  11 active torsions:
REMARK  status: ('A' for Active; 'I' for Inactive)
REMARK    1  A    between atoms: CA_4  and  C_1 
REMARK       I    between atoms: C_1  and  NAR_19 
REMARK    2  A    between atoms: CA_4  and  N_2 
REMARK       I    between atoms: N_2  and  CAU_20 
REMARK    3  A    between atoms: CB_5  and  CA_4 
REMARK    4  A    between atoms: CG_6  and  CB_5 
REMARK    5  A    between atoms: CZ_8  and  OH_7 
REMARK    6  A    between atoms: CAM_15  and  CAA_9 
REMARK    7  A    between atoms: BAY_23  and  OAG_13 
REMARK    8  A    between atoms: BAY_23  and  OAH_14 
REMARK    9  A    between atoms: NBB_24  and  CAM_15 
REMARK   10  A    between atoms: NAR_19  and  CAN_16 
REMARK   11  A    between atoms: CAN_16  and  BAY_23 
REMARK       I    between atoms: CAU_20  and  NBC_25 
ROOT
ATOM      1  CA  CZ9 d   1      32.054  66.409   4.398  0.00  0.00     0.094 C 
ATOM      2  H   CZ9 d   1      32.597  66.522   5.337  0.00  0.00     0.088 H 
ENDROOT
BRANCH   1   3
ATOM      3  C   CZ9 d   1      31.528  65.012   4.197  0.00  0.00     0.240 C 
ATOM      4  O   CZ9 d   1      30.526  64.824   3.516  0.00  0.00    -0.271 OA
ATOM      5  NAR CZ9 d   1      32.184  64.026   4.817  0.00  0.00    -0.363 N 
ATOM      6  H   CZ9 d   1      33.008  64.224   5.384  0.00  0.00     0.161 HD
BRANCH   5   7
ATOM      7  CAN CZ9 d   1      31.693  62.657   4.664  0.00  0.00     0.030 C 
ATOM      8  H   CZ9 d   1      32.027  62.203   3.731  0.00  0.00     0.057 H 
ATOM      9  H   CZ9 d   1      30.605  62.615   4.610  0.00  0.00     0.057 H 
BRANCH   7  10
ATOM     10  BAY CZ9 d   1      32.270  61.875   5.964  0.00  0.00     0.510 B 
BRANCH  10  11
ATOM     11  OAG CZ9 d   1      31.352  62.029   7.190  0.00  0.00    -0.436 OA
ATOM     12  H   CZ9 d   1      30.453  61.796   6.947  0.00  0.00     0.184 HD
ENDBRANCH  10  11
BRANCH  10  13
ATOM     13  OAH CZ9 d   1      33.749  62.219   6.218  0.00  0.00    -0.436 OA
ATOM     14  H   CZ9 d   1      33.819  63.133   6.504  0.00  0.00     0.184 HD
ENDBRANCH  10  13
ENDBRANCH   7  10
ENDBRANCH   5   7
ENDBRANCH   1   3
BRANCH   1  15
ATOM     15  N   CZ9 d   1      30.885  67.307   4.409  0.00  0.00    -0.334 N 
ATOM     16  CAU CZ9 d   1      30.934  68.372   5.232  0.00  0.00     0.304 C 
ATOM     17  OAC CZ9 d   1      31.797  68.467   6.099  0.00  0.00    -0.253 OA
ATOM     18  NBC CZ9 d   1      29.969  69.473   5.091  0.00  0.00    -0.161 NA
ATOM     19  CAP CZ9 d   1      29.419  69.882   6.392  0.00  0.00     0.007 C 
ATOM     20  CAW CZ9 d   1      28.972  69.373   4.014  0.00  0.00     0.293 C 
ATOM     21  CAO CZ9 d   1      28.016  70.506   6.351  0.00  0.00    -0.002 C 
ATOM     22  H   CZ9 d   1      29.338  68.976   6.993  0.00  0.00     0.059 H 
ATOM     23  H   CZ9 d   1      30.088  70.648   6.784  0.00  0.00     0.059 H 
ATOM     24  NBB CZ9 d   1      27.760  71.283   5.139  0.00  0.00    -0.245 NA
ATOM     25  H   CZ9 d   1      27.934  71.185   7.200  0.00  0.00     0.058 H 
ATOM     26  H   CZ9 d   1      27.293  69.691   6.377  0.00  0.00     0.058 H 
ATOM     27  CAV CZ9 d   1      27.881  70.399   3.983  0.00  0.00     0.286 C 
ATOM     28  OAD CZ9 d   1      27.137  70.475   3.016  0.00  0.00    -0.269 OA
ATOM     29  OAE CZ9 d   1      28.990  68.516   3.143  0.00  0.00    -0.269 OA
ATOM     30  H   CZ9 d   1      30.073  67.129   3.818  0.00  0.00     0.164 HD
BRANCH  24  31
ATOM     31  CAM CZ9 d   1      26.425  71.873   5.224  0.00  0.00    -0.017 C 
ATOM     32  H   CZ9 d   1      25.742  71.302   4.595  0.00  0.00     0.056 H 
ATOM     33  H   CZ9 d   1      26.091  71.851   6.261  0.00  0.00     0.056 H 
BRANCH  31  34
ATOM     34  CAA CZ9 d   1      26.455  73.310   4.744  0.00  0.00    -0.065 C 
ATOM     35  H   CZ9 d   1      27.140  73.885   5.367  0.00  0.00     0.029 H 
ATOM     36  H   CZ9 d   1      26.793  73.339   3.708  0.00  0.00     0.029 H 
ATOM     37  H   CZ9 d   1      25.454  73.736   4.813  0.00  0.00     0.029 H 
ENDBRANCH  31  34
ENDBRANCH  24  31
ENDBRANCH   1  15
BRANCH   1  38
ATOM     38  CB  CZ9 d   1      33.040  66.737   3.279  0.00  0.00    -0.014 C 
ATOM     39  H   CZ9 d   1      32.568  66.598   2.307  0.00  0.00     0.043 H 
ATOM     40  H   CZ9 d   1      33.903  66.073   3.330  0.00  0.00     0.043 H 
BRANCH  38  41
ATOM     41  CG  CZ9 d   1      33.474  68.176   3.450  0.00  0.00    -0.056 A 
ATOM     42  CD1 CZ9 d   1      34.549  68.490   4.295  0.00  0.00    -0.074 A 
ATOM     43  CE1 CZ9 d   1      34.937  69.824   4.464  0.00  0.00    -0.051 A 
ATOM     44  H   CZ9 d   1      35.081  67.696   4.819  0.00  0.00     0.084 H 
ATOM     45  CZ  CZ9 d   1      34.232  70.832   3.802  0.00  0.00     0.065 A 
ATOM     46  H   CZ9 d   1      35.782  70.074   5.106  0.00  0.00     0.087 H 
ATOM     47  CE2 CZ9 d   1      33.156  70.521   2.965  0.00  0.00    -0.051 A 
ATOM     48  CD2 CZ9 d   1      32.774  69.191   2.783  0.00  0.00    -0.074 A 
ATOM     49  H   CZ9 d   1      32.615  71.318   2.454  0.00  0.00     0.087 H 
ATOM     50  H   CZ9 d   1      31.939  68.944   2.128  0.00  0.00     0.084 H 
BRANCH  45  51
ATOM     51  OH  CZ9 d   1      34.598  72.134   3.960  0.00  0.00    -0.361 OA
ATOM     52  H   CZ9 d   1      35.504  72.249   3.663  0.00  0.00     0.217 HD
ENDBRANCH  45  51
ENDBRANCH  38  41
ENDBRANCH   1  38
TORSDOF 11
