REMARK  28 active torsions:
REMARK  status: ('A' for Active; 'I' for Inactive)
REMARK    1  A    between atoms: N_1  and  CA_2 
REMARK    2  A    between atoms: CA_2  and  C_3 
REMARK       I    between atoms: C_3  and  N_5 
REMARK    3  A    between atoms: N_5  and  CA_6 
REMARK    4  A    between atoms: CA_6  and  C_7 
REMARK    5  A    between atoms: CA_6  and  CB_9 
REMARK       I    between atoms: C_7  and  N_21 
REMARK    6  A    between atoms: CB_9  and  CG_10 
REMARK    7  A    between atoms: CZ_15  and  OH_16 
REMARK    8  A    between atoms: OH_16  and  P_17 
REMARK    9  A    between atoms: N_21  and  CA_22 
REMARK   10  A    between atoms: CA_22  and  C_23 
REMARK   11  A    between atoms: CA_22  and  CB_25 
REMARK       I    between atoms: C_23  and  N_28 
REMARK   12  A    between atoms: CB_25  and  CG1_26 
REMARK   13  A    between atoms: CB_25  and  CG2_27 
REMARK   14  A    between atoms: N_28  and  CA_29 
REMARK   15  A    between atoms: CA_29  and  C_30 
REMARK   16  A    between atoms: CA_29  and  CB_32 
REMARK       I    between atoms: C_30  and  N_36 
REMARK   17  A    between atoms: CB_32  and  CG_33 
REMARK       I    between atoms: CG_33  and  ND2_35 
REMARK   18  A    between atoms: CA_37  and  C_38 
REMARK       I    between atoms: C_38  and  N_43 
REMARK   19  A    between atoms: N_43  and  CA_44 
REMARK   20  A    between atoms: CA_44  and  C_45 
REMARK   21  A    between atoms: CA_44  and  CB_47 
REMARK       I    between atoms: C_45  and  N_50 
REMARK   22  A    between atoms: CB_47  and  OG1_48 
REMARK   23  A    between atoms: CB_47  and  CG2_49 
REMARK   24  A    between atoms: N_50  and  CA_51 
REMARK   25  A    between atoms: CA_51  and  C_52 
REMARK   26  A    between atoms: CA_51  and  CB_54 
REMARK   27  A    between atoms: CB_54  and  CG_55 
REMARK   28  A    between atoms: CZ_60  and  OH_61 
ROOT
ATOM      1  CA  ASN d   1      32.103  11.838  11.180  0.00  0.00     0.097 C 
ATOM      2  H   ASN d   1      31.723  11.995  10.171  0.00  0.00     0.088 H 
ENDROOT
BRANCH   1   3
ATOM      3  N   ASN d   1      33.065  10.751  11.130  0.00  0.00    -0.346 N 
ATOM      4  C   VAL d   1      33.714  10.446  10.014  0.00  0.00     0.241 C 
ATOM      5  O   VAL d   1      33.555  11.060   8.963  0.00  0.00    -0.271 OA
ATOM      6  H   ASN d   1      33.246  10.208  11.975  0.00  0.00     0.163 HD
BRANCH   4   7
ATOM      7  CA  VAL d   1      34.691   9.281  10.088  0.00  0.00     0.092 C 
ATOM      8  H   VAL d   1      35.428   9.415   9.296  0.00  0.00     0.088 H 
BRANCH   7   9
ATOM      9  N   VAL d   1      35.476   9.244  11.322  0.00  0.00    -0.346 N 
ATOM     10  C   PTR d   1      36.285  10.246  11.656  0.00  0.00     0.241 C 
ATOM     11  O   PTR d   1      36.410  11.251  10.958  0.00  0.00    -0.271 OA
ATOM     12  H   VAL d   1      35.402   8.434  11.938  0.00  0.00     0.163 HD
BRANCH  10  13
ATOM     13  CA  PTR d   1      37.084  10.099  12.958  0.00  0.00     0.093 C 
ATOM     14  H   PTR d   1      37.277   9.037  13.106  0.00  0.00     0.088 H 
BRANCH  13  15
ATOM     15  N   PTR d   1      38.349  10.817  12.858  0.00  0.00    -0.346 N 
ATOM     16  C   GLY d   1      39.502  10.227  13.152  0.00  0.00     0.243 C 
ATOM     17  O   GLY d   1      39.573   9.054  13.517  0.00  0.00    -0.272 OA
ATOM     18  H   PTR d   1      38.349  11.791  12.556  0.00  0.00     0.163 HD
BRANCH  16  19
ATOM     19  CA  GLY d   1      40.754  11.068  13.018  0.00  0.00     0.152 C 
ATOM     20  H   GLY d   1      40.942  11.243  11.959  0.00  0.00     0.090 H 
ATOM     21  H   GLY d   1      40.601  12.004  13.555  0.00  0.00     0.090 H 
BRANCH  19  22
ATOM     22  N   GLY d   1      41.910  10.392  13.587  0.00  0.00    -0.071 N 
ATOM     23  H   GLY d   1      42.734  10.983  13.481  0.00  0.00     0.274 HD
ATOM     24  H   GLY d   1      41.744  10.213  14.577  0.00  0.00     0.274 HD
ATOM     25  H   GLY d   1      42.059   9.508  13.100  0.00  0.00     0.274 HD
ENDBRANCH  19  22
ENDBRANCH  16  19
ENDBRANCH  13  15
BRANCH  13  26
ATOM     26  CB  PTR d   1      36.289  10.618  14.174  0.00  0.00    -0.014 C 
ATOM     27  H   PTR d   1      35.325  10.110  14.169  0.00  0.00     0.043 H 
ATOM     28  H   PTR d   1      36.222  11.702  14.077  0.00  0.00     0.043 H 
BRANCH  26  29
ATOM     29  CG  PTR d   1      36.948  10.325  15.521  0.00  0.00    -0.056 A 
ATOM     30  CD1 PTR d   1      37.865  11.216  16.099  0.00  0.00    -0.074 A 
ATOM     31  CE1 PTR d   1      38.526  10.903  17.312  0.00  0.00    -0.050 A 
ATOM     32  H   PTR d   1      38.072  12.166  15.606  0.00  0.00     0.084 H 
ATOM     33  CZ  PTR d   1      38.271   9.684  17.951  0.00  0.00     0.082 A 
ATOM     34  H   PTR d   1      39.232  11.610  17.747  0.00  0.00     0.087 H 
ATOM     35  CE2 PTR d   1      37.349   8.800  17.390  0.00  0.00    -0.050 A 
ATOM     36  CD2 PTR d   1      36.699   9.122  16.189  0.00  0.00    -0.074 A 
ATOM     37  H   PTR d   1      37.133   7.854  17.887  0.00  0.00     0.087 H 
ATOM     38  H   PTR d   1      35.983   8.417  15.767  0.00  0.00     0.084 H 
BRANCH  33  39
ATOM     39  OH  PTR d   1      38.992   9.288  19.087  0.00  0.00    -0.240 OA
BRANCH  39  40
ATOM     40  P   PTR d   1      40.281   8.422  19.340  0.00  0.00     0.427 P 
ATOM     41  O1P PTR d   1      41.499   9.239  19.323  0.00  0.00    -0.617 OA
ATOM     42  O2P PTR d   1      40.232   7.389  18.233  0.00  0.00    -0.617 OA
ATOM     43  O3P PTR d   1      39.985   7.812  20.678  0.00  0.00    -0.617 OA
ENDBRANCH  39  40
ENDBRANCH  33  39
ENDBRANCH  26  29
ENDBRANCH  13  26
ENDBRANCH  10  13
ENDBRANCH   7   9
BRANCH   7  44
ATOM     44  CB  VAL d   1      33.909   7.966   9.875  0.00  0.00    -0.033 C 
ATOM     45  H   VAL d   1      33.352   7.737  10.784  0.00  0.00     0.042 H 
BRANCH  44  46
ATOM     46  CG1 VAL d   1      32.925   8.117   8.716  0.00  0.00    -0.071 C 
ATOM     47  H   VAL d   1      32.221   8.918   8.941  0.00  0.00     0.028 H 
ATOM     48  H   VAL d   1      33.473   8.358   7.805  0.00  0.00     0.028 H 
ATOM     49  H   VAL d   1      32.382   7.182   8.578  0.00  0.00     0.028 H 
ENDBRANCH  44  46
BRANCH  44  50
ATOM     50  CG2 VAL d   1      34.883   6.832   9.574  0.00  0.00    -0.071 C 
ATOM     51  H   VAL d   1      35.446   7.069   8.671  0.00  0.00     0.028 H 
ATOM     52  H   VAL d   1      35.570   6.713  10.412  0.00  0.00     0.028 H 
ATOM     53  H   VAL d   1      34.326   5.907   9.425  0.00  0.00     0.028 H 
ENDBRANCH  44  50
ENDBRANCH   7  44
ENDBRANCH   4   7
ENDBRANCH   1   3
BRANCH   1  54
ATOM     54  C   ASN d   1      32.739  13.159  11.623  0.00  0.00     0.243 C 
ATOM     55  O   ASN d   1      33.640  13.176  12.460  0.00  0.00    -0.271 OA
ATOM     56  N   PRO d   1      32.297  14.285  11.035  0.00  0.00    -0.337 N 
ATOM     57  CA  PRO d   1      32.850  15.588  11.412  0.00  0.00     0.091 C 
ATOM     58  CD  PRO d   1      31.300  14.426   9.959  0.00  0.00    -0.001 C 
ATOM     59  CB  PRO d   1      32.130  16.558  10.471  0.00  0.00    -0.036 C 
ATOM     60  H   PRO d   1      33.932  15.673  11.312  0.00  0.00     0.087 H 
ATOM     61  CG  PRO d   1      30.854  15.845  10.133  0.00  0.00    -0.048 C 
ATOM     62  H   PRO d   1      32.721  16.794   9.586  0.00  0.00     0.036 H 
ATOM     63  H   PRO d   1      31.954  17.530  10.932  0.00  0.00     0.036 H 
ATOM     64  H   PRO d   1      30.367  16.247   9.245  0.00  0.00     0.035 H 
ATOM     65  H   PRO d   1      30.090  15.957  10.902  0.00  0.00     0.035 H 
ATOM     66  H   PRO d   1      30.485  13.706  10.028  0.00  0.00     0.064 H 
ATOM     67  H   PRO d   1      31.702  14.218   8.967  0.00  0.00     0.064 H 
BRANCH  57  68
ATOM     68  C   PRO d   1      32.570  15.856  12.895  0.00  0.00     0.241 C 
ATOM     69  O   PRO d   1      31.459  15.627  13.370  0.00  0.00    -0.271 OA
ATOM     70  N   THR d   1      33.582  16.337  13.615  0.00  0.00    -0.344 N 
ATOM     71  H   THR d   1      34.468  16.539  13.151  0.00  0.00     0.163 HD
BRANCH  70  72
ATOM     72  CA  THR d   1      33.461  16.583  15.049  0.00  0.00     0.113 C 
ATOM     73  H   THR d   1      32.647  15.928  15.359  0.00  0.00     0.091 H 
BRANCH  72  74
ATOM     74  C   THR d   1      33.010  17.985  15.465  0.00  0.00     0.243 C 
ATOM     75  O   THR d   1      32.836  18.253  16.657  0.00  0.00    -0.271 OA
ATOM     76  N   TYR d   1      32.848  18.877  14.490  0.00  0.00    -0.344 N 
ATOM     77  H   TYR d   1      33.078  18.603  13.535  0.00  0.00     0.163 HD
BRANCH  76  78
ATOM     78  CA  TYR d   1      32.353  20.237  14.730  0.00  0.00     0.100 C 
ATOM     79  H   TYR d   1      31.567  20.158  15.480  0.00  0.00     0.090 H 
BRANCH  78  80
ATOM     80  C   TYR d   1      31.840  20.809  13.417  0.00  0.00     0.197 C 
ATOM     81  O   TYR d   1      32.578  21.481  12.697  0.00  0.00    -0.646 OA
ATOM     82  OXT TYR d   1      30.663  20.532  13.104  0.00  0.00    -0.646 OA
ENDBRANCH  78  80
BRANCH  78  83
ATOM     83  CB  TYR d   1      33.421  21.192  15.290  0.00  0.00    -0.013 C 
ATOM     84  H   TYR d   1      34.136  21.408  14.496  0.00  0.00     0.043 H 
ATOM     85  H   TYR d   1      33.895  20.710  16.145  0.00  0.00     0.043 H 
BRANCH  83  86
ATOM     86  CG  TYR d   1      32.815  22.515  15.761  0.00  0.00    -0.056 A 
ATOM     87  CD1 TYR d   1      31.966  22.553  16.871  0.00  0.00    -0.074 A 
ATOM     88  CE1 TYR d   1      31.347  23.741  17.276  0.00  0.00    -0.051 A 
ATOM     89  H   TYR d   1      31.782  21.637  17.433  0.00  0.00     0.084 H 
ATOM     90  CZ  TYR d   1      31.573  24.911  16.571  0.00  0.00     0.065 A 
ATOM     91  H   TYR d   1      30.688  23.745  18.145  0.00  0.00     0.087 H 
ATOM     92  CE2 TYR d   1      32.418  24.909  15.467  0.00  0.00    -0.051 A 
ATOM     93  CD2 TYR d   1      33.036  23.711  15.066  0.00  0.00    -0.074 A 
ATOM     94  H   TYR d   1      32.601  25.831  14.915  0.00  0.00     0.087 H 
ATOM     95  H   TYR d   1      33.698  23.713  14.200  0.00  0.00     0.084 H 
BRANCH  90  96
ATOM     96  OH  TYR d   1      30.940  26.073  16.967  0.00  0.00    -0.361 OA
ATOM     97  H   TYR d   1      30.399  25.894  17.740  0.00  0.00     0.217 HD
ENDBRANCH  90  96
ENDBRANCH  83  86
ENDBRANCH  78  83
ENDBRANCH  76  78
ENDBRANCH  72  74
BRANCH  72  98
ATOM     98  CB  THR d   1      34.783  16.227  15.769  0.00  0.00     0.060 C 
ATOM     99  H   THR d   1      34.620  16.285  16.845  0.00  0.00     0.086 H 
BRANCH  98 100
ATOM    100  OG1 THR d   1      35.810  17.148  15.380  0.00  0.00    -0.393 OA
ATOM    101  H   THR d   1      35.547  18.039  15.620  0.00  0.00     0.210 HD
ENDBRANCH  98 100
BRANCH  98 102
ATOM    102  CG2 THR d   1      35.223  14.808  15.393  0.00  0.00    -0.050 C 
ATOM    103  H   THR d   1      34.451  14.099  15.691  0.00  0.00     0.031 H 
ATOM    104  H   THR d   1      35.375  14.750  14.315  0.00  0.00     0.031 H 
ATOM    105  H   THR d   1      36.155  14.570  15.906  0.00  0.00     0.031 H 
ENDBRANCH  98 102
ENDBRANCH  72  98
ENDBRANCH  70  72
ENDBRANCH  57  68
ENDBRANCH   1  54
BRANCH   1 106
ATOM    106  CB  ASN d   1      30.951  11.457  12.117  0.00  0.00     0.036 C 
ATOM    107  H   ASN d   1      30.485  10.554  11.721  0.00  0.00     0.051 H 
ATOM    108  H   ASN d   1      30.266  12.304  12.163  0.00  0.00     0.051 H 
BRANCH 106 109
ATOM    109  CG  ASN d   1      31.414  11.156  13.538  0.00  0.00     0.217 C 
ATOM    110  OD1 ASN d   1      32.446  10.525  13.754  0.00  0.00    -0.274 OA
ATOM    111  ND2 ASN d   1      30.632  11.591  14.514  0.00  0.00    -0.370 N 
ATOM    112  H   ASN d   1      30.879  11.405  15.486  0.00  0.00     0.159 HD
ATOM    113  H   ASN d   1      29.783  12.112  14.294  0.00  0.00     0.159 HD
ENDBRANCH 106 109
ENDBRANCH   1 106
TORSDOF 28
