REMARK  5 active torsions:
REMARK  status: ('A' for Active; 'I' for Inactive)
REMARK    1  A    between atoms: N1_11  and  C1'_12 
REMARK    2  A    between atoms: C4'_14  and  C5'_15 
REMARK    3  A    between atoms: C5'_15  and  O5'_16 
REMARK    4  A    between atoms: C3'_17  and  O3'_18 
REMARK    5  A    between atoms: C2'_19  and  O2'_20 
ROOT
ATOM      1  C1' RFZ d   1      -3.947  21.511 -22.216  0.00  0.00     0.138 C 
ATOM      2  O4' RFZ d   1      -3.893  20.121 -22.440  0.00  0.00    -0.353 OA
ATOM      3  C4' RFZ d   1      -3.359  19.478 -21.240  0.00  0.00     0.088 C 
ATOM      4  C3' RFZ d   1      -3.261  20.578 -20.176  0.00  0.00     0.091 C 
ATOM      5  C2' RFZ d   1      -4.203  21.647 -20.721  0.00  0.00     0.105 C 
ATOM      6  H4  RFZ d   1      -2.982  21.977 -22.466  0.00  0.00     0.122 H 
ATOM      7  H5  RFZ d   1      -2.347  19.098 -21.444  0.00  0.00     0.090 H 
ATOM      8  H9  RFZ d   1      -3.567  20.223 -19.181  0.00  0.00     0.091 H 
ATOM      9  H11 RFZ d   1      -5.246  21.395 -20.479  0.00  0.00     0.093 H 
ENDROOT
BRANCH   1  10
ATOM     10  N1  RFZ d   1      -5.005  22.121 -23.082  0.00  0.00    -0.309 N 
ATOM     11  C6  RFZ d   1      -6.329  21.907 -23.076  0.00  0.00     0.068 A 
ATOM     12  C5  RFZ d   1      -7.123  21.049 -22.334  0.00  0.00    -0.032 A 
ATOM     13  C7  RFZ d   1      -6.903  22.750 -24.035  0.00  0.00     0.086 A 
ATOM     14  C4  RFZ d   1      -8.489  21.050 -22.567  0.00  0.00     0.058 A 
ATOM     15  H1  RFZ d   1      -6.687  20.393 -21.589  0.00  0.00     0.089 H 
ATOM     16 CL2  RFZ d   1      -9.541  19.953 -21.627  0.00  0.00    -0.082 Cl
ATOM     17  C3  RFZ d   1      -9.058  21.886 -23.518  0.00  0.00     0.058 A 
ATOM     18 CL1  RFZ d   1     -10.836  21.840 -23.746  0.00  0.00    -0.082 Cl
ATOM     19  C2  RFZ d   1      -8.275  22.750 -24.271  0.00  0.00    -0.030 A 
ATOM     20  H2  RFZ d   1      -8.716  23.402 -25.017  0.00  0.00     0.089 H 
ATOM     21  N2  RFZ d   1      -5.900  23.462 -24.589  0.00  0.00    -0.242 NA
ATOM     22  C1  RFZ d   1      -4.752  23.073 -23.997  0.00  0.00     0.069 A 
ATOM     23  H3  RFZ d   1      -3.765  23.472 -24.227  0.00  0.00     0.143 H 
ENDBRANCH   1  10
BRANCH   5  24
ATOM     24  O2' RFZ d   1      -3.950  22.954 -20.253  0.00  0.00    -0.388 OA
ATOM     25  H12 RFZ d   1      -3.070  23.213 -20.500  0.00  0.00     0.210 HD
ENDBRANCH   5  24
BRANCH   3  26
ATOM     26  C5' RFZ d   1      -4.228  18.303 -20.866  0.00  0.00     0.043 C 
ATOM     27  H6  RFZ d   1      -4.559  17.797 -21.785  0.00  0.00     0.078 H 
ATOM     28  H7  RFZ d   1      -5.105  18.670 -20.313  0.00  0.00     0.078 H 
BRANCH  26  29
ATOM     29  O5' RFZ d   1      -3.525  17.368 -20.051  0.00  0.00    -0.398 OA
ATOM     30  H8  RFZ d   1      -4.100  16.643 -19.835  0.00  0.00     0.209 HD
ENDBRANCH  26  29
ENDBRANCH   3  26
BRANCH   4  31
ATOM     31  O3' RFZ d   1      -1.930  21.089 -20.144  0.00  0.00    -0.390 OA
ATOM     32  H10 RFZ d   1      -1.869  21.770 -19.485  0.00  0.00     0.210 HD
ENDBRANCH   4  31
TORSDOF 5
