REMARK  9 active torsions:
REMARK  status: ('A' for Active; 'I' for Inactive)
REMARK    1  A    between atoms: C3_3  and  N4_4 
REMARK    2  A    between atoms: C8_8  and  C9_9 
REMARK    3  A    between atoms: C9_9  and  C10_10 
REMARK    4  A    between atoms: C12_12  and  O13_13 
REMARK    5  A    between atoms: O13_13  and  C14_14 
REMARK    6  A    between atoms: C15_15  and  O16_16 
REMARK    7  A    between atoms: O16_16  and  C17_17 
REMARK    8  A    between atoms: C18_18  and  O19_19 
REMARK    9  A    between atoms: O19_19  and  C20_20 
ROOT
ATOM      1  C10 TOP d   1      -2.239 -16.028  -0.215  0.00  0.00    -0.048 A 
ATOM      2  C11 TOP d   1      -1.711 -16.425  -1.456  0.00  0.00    -0.042 A 
ATOM      3  C12 TOP d   1      -0.555 -15.856  -1.999  0.00  0.00     0.104 A 
ATOM      4  C15 TOP d   1       0.165 -14.836  -1.238  0.00  0.00     0.135 A 
ATOM      5  C18 TOP d   1      -0.376 -14.419   0.062  0.00  0.00     0.104 A 
ATOM      6  C21 TOP d   1      -1.560 -15.043   0.556  0.00  0.00    -0.042 A 
ATOM      7  H8  TOP d   1      -2.220 -17.203  -2.014  0.00  0.00     0.088 H 
ATOM      8  H18 TOP d   1      -1.947 -14.764   1.529  0.00  0.00     0.088 H 
ENDROOT
BRANCH   1   9
ATOM      9  C9  TOP d   1      -3.532 -16.725   0.265  0.00  0.00    -0.012 C 
ATOM     10  H6  TOP d   1      -4.308 -15.965   0.438  0.00  0.00     0.047 H 
ATOM     11  H7  TOP d   1      -3.873 -17.426  -0.511  0.00  0.00     0.047 H 
BRANCH   9  12
ATOM     12  C8  TOP d   1      -3.287 -17.493   1.560  0.00  0.00     0.010 A 
ATOM     13  C1  TOP d   1      -3.472 -16.849   2.754  0.00  0.00     0.031 A 
ATOM     14  N2  TOP d   1      -3.287 -17.476   3.908  0.00  0.00    -0.075 NA
ATOM     15  H1  TOP d   1      -3.775 -15.808   2.756  0.00  0.00     0.116 H 
ATOM     16  C3  TOP d   1      -2.888 -18.756   3.957  0.00  0.00     0.721 A 
ATOM     17  N5  TOP d   1      -2.707 -19.468   2.834  0.00  0.00    -0.045 NA
ATOM     18  C6  TOP d   1      -2.884 -18.908   1.627  0.00  0.00     0.148 A 
ATOM     19  N7  TOP d   1      -2.667 -19.617   0.502  0.00  0.00    -0.383 N 
ATOM     20  H4  TOP d   1      -2.806 -19.177  -0.419  0.00  0.00     0.157 HD
ATOM     21  H5  TOP d   1      -2.362 -20.599   0.563  0.00  0.00     0.157 HD
BRANCH  16  22
ATOM     22  N4  TOP d   1      -2.672 -19.300   5.186  0.00  0.00    -0.231 N 
ATOM     23  H2  TOP d   1      -2.818 -18.733   6.033  0.00  0.00     0.174 HD
ATOM     24  H3  TOP d   1      -2.363 -20.279   5.269  0.00  0.00     0.174 HD
ENDBRANCH  16  22
ENDBRANCH   9  12
ENDBRANCH   1   9
BRANCH   3  25
ATOM     25  O13 TOP d   1       0.014 -16.237  -3.193  0.00  0.00    -0.353 OA
BRANCH  25  26
ATOM     26  C14 TOP d   1      -0.582 -17.317  -3.908  0.00  0.00     0.010 C 
ATOM     27  H9  TOP d   1      -0.017 -17.500  -4.834  0.00  0.00     0.066 H 
ATOM     28  H10 TOP d   1      -1.622 -17.062  -4.158  0.00  0.00     0.066 H 
ATOM     29  H11 TOP d   1      -0.566 -18.223  -3.284  0.00  0.00     0.066 H 
ENDBRANCH  25  26
ENDBRANCH   3  25
BRANCH   5  30
ATOM     30  O19 TOP d   1       0.295 -13.415   0.724  0.00  0.00    -0.353 OA
BRANCH  30  31
ATOM     31  C20 TOP d   1      -0.335 -13.038   1.959  0.00  0.00     0.010 C 
ATOM     32  H15 TOP d   1       0.246 -12.236   2.437  0.00  0.00     0.066 H 
ATOM     33  H16 TOP d   1      -0.378 -13.909   2.629  0.00  0.00     0.066 H 
ATOM     34  H17 TOP d   1      -1.355 -12.680   1.756  0.00  0.00     0.066 H 
ENDBRANCH  30  31
ENDBRANCH   5  30
BRANCH   4  35
ATOM     35  O16 TOP d   1       1.266 -14.252  -1.763  0.00  0.00    -0.351 OA
BRANCH  35  36
ATOM     36  C17 TOP d   1       1.044 -13.181  -2.695  0.00  0.00     0.011 C 
ATOM     37  H12 TOP d   1       2.012 -12.794  -3.046  0.00  0.00     0.067 H 
ATOM     38  H13 TOP d   1       0.484 -12.374  -2.200  0.00  0.00     0.067 H 
ATOM     39  H14 TOP d   1       0.466 -13.555  -3.553  0.00  0.00     0.067 H 
ENDBRANCH  35  36
ENDBRANCH   4  35
TORSDOF 9
