REMARK  3 active torsions:
REMARK  status: ('A' for Active; 'I' for Inactive)
REMARK    1  A    between atoms: C8_7  and  C14_10 
REMARK    2  A    between atoms: C9_8  and  C10_9 
REMARK    3  A    between atoms: C14_10  and  C17_11 
ROOT
ATOM      1 CL1  3N1 d   1      -0.165  77.923  28.912  0.00  0.00    -0.084 Cl
ATOM      2  C2  3N1 d   1       1.504  78.089  28.596  0.00  0.00     0.035 A 
ATOM      3  C3  3N1 d   1       2.346  76.962  28.693  0.00  0.00    -0.050 A 
ATOM      4  C5  3N1 d   1       3.695  77.181  28.445  0.00  0.00    -0.011 A 
ATOM      5  C6  3N1 d   1       4.181  78.437  28.112  0.00  0.00     0.016 A 
ATOM      6  S7  3N1 d   1       5.920  78.542  27.805  0.00  0.00    -0.093 SA
ATOM      7  C8  3N1 d   1       5.975  76.762  28.152  0.00  0.00    -0.000 A 
ATOM      8  C9  3N1 d   1       4.801  76.182  28.474  0.00  0.00    -0.037 A 
ATOM      9  C21 3N1 d   1       3.337  79.554  28.013  0.00  0.00    -0.064 A 
ATOM     10  C23 3N1 d   1       1.981  79.366  28.263  0.00  0.00    -0.061 A 
ATOM     11  H1  3N1 d   1       1.962  75.981  28.947  0.00  0.00     0.087 H 
ATOM     12  H7  3N1 d   1       3.728  80.530  27.751  0.00  0.00     0.085 H 
ATOM     13  H8  3N1 d   1       1.295  80.203  28.201  0.00  0.00     0.086 H 
ENDROOT
BRANCH   7  14
ATOM     14  C14 3N1 d   1       7.246  75.987  28.077  0.00  0.00     0.046 C 
ATOM     15  H5  3N1 d   1       7.146  75.053  28.649  0.00  0.00     0.057 H 
ATOM     16  H6  3N1 d   1       8.070  76.585  28.492  0.00  0.00     0.057 H 
BRANCH  14  17
ATOM     17  C17 3N1 d   1       7.528  75.668  26.624  0.00  0.00     0.177 C 
ATOM     18  O18 3N1 d   1       8.658  75.744  26.173  0.00  0.00    -0.648 OA
ATOM     19  O19 3N1 d   1       6.484  75.304  25.864  0.00  0.00    -0.648 OA
ENDBRANCH  14  17
ENDBRANCH   7  14
BRANCH   8  20
ATOM     20  C10 3N1 d   1       4.589  74.715  28.821  0.00  0.00    -0.049 C 
ATOM     21  H2  3N1 d   1       3.525  74.540  29.038  0.00  0.00     0.033 H 
ATOM     22  H3  3N1 d   1       5.191  74.456  29.704  0.00  0.00     0.033 H 
ATOM     23  H4  3N1 d   1       4.897  74.089  27.971  0.00  0.00     0.033 H 
ENDBRANCH   8  20
TORSDOF 3
