REMARK  2 active torsions:
REMARK  status: ('A' for Active; 'I' for Inactive)
REMARK    1  A    between atoms: C10_8  and  C11_9 
REMARK    2  A    between atoms: C11_9  and  C14_10 
ROOT
ATOM      1 CL1  3N2 d   1       1.819  73.673  28.382  0.00  0.00    -0.084 Cl
ATOM      2  C2  3N2 d   1       2.199  75.358  28.291  0.00  0.00     0.035 A 
ATOM      3  C3  3N2 d   1       3.541  75.769  28.423  0.00  0.00    -0.050 A 
ATOM      4  C5  3N2 d   1       3.795  77.135  28.303  0.00  0.00    -0.010 A 
ATOM      5  C6  3N2 d   1       2.784  78.060  28.079  0.00  0.00     0.015 A 
ATOM      6  S7  3N2 d   1       3.265  79.671  27.970  0.00  0.00    -0.101 SA
ATOM      7  C8  3N2 d   1       4.979  79.128  28.197  0.00  0.00    -0.037 A 
ATOM      8  C10 3N2 d   1       5.124  77.805  28.350  0.00  0.00    -0.030 A 
ATOM      9  C18 3N2 d   1       1.444  77.678  27.943  0.00  0.00    -0.064 A 
ATOM     10  C20 3N2 d   1       1.161  76.301  28.050  0.00  0.00    -0.061 A 
ATOM     11  H   3N2 d   1       4.342  75.053  28.610  0.00  0.00     0.087 H 
ATOM     12  H   3N2 d   1       5.821  79.820  28.208  0.00  0.00     0.095 H 
ATOM     13  H   3N2 d   1       0.657  78.410  27.763  0.00  0.00     0.085 H 
ATOM     14  H   3N2 d   1       0.133  75.954  27.947  0.00  0.00     0.086 H 
ENDROOT
BRANCH   8  15
ATOM     15  C11 3N2 d   1       6.440  77.047  28.489  0.00  0.00     0.041 C 
ATOM     16  H   3N2 d   1       6.364  76.414  29.373  0.00  0.00     0.056 H 
ATOM     17  H   3N2 d   1       7.240  77.784  28.554  0.00  0.00     0.056 H 
BRANCH  15  18
ATOM     18  C14 3N2 d   1       6.750  76.120  27.270  0.00  0.00     0.177 C 
ATOM     19  O15 3N2 d   1       5.915  75.791  26.437  0.00  0.00    -0.648 OA
ATOM     20  O16 3N2 d   1       8.007  75.645  27.161  0.00  0.00    -0.648 OA
ENDBRANCH  15  18
ENDBRANCH   8  15
TORSDOF 2
