REMARK  14 active torsions:
REMARK  status: ('A' for Active; 'I' for Inactive)
REMARK    1  A    between atoms: C1_1  and  O1_30 
REMARK    2  A    between atoms: O3_31  and  C3_3 
REMARK    3  A    between atoms: C5_5  and  O5_32 
REMARK    4  A    between atoms: C10_10  and  C19_19 
REMARK    5  A    between atoms: C11_11  and  O11_33 
REMARK    6  A    between atoms: C13_13  and  C18_18 
REMARK    7  A    between atoms: C14_14  and  O14_34 
REMARK    8  A    between atoms: C17_17  and  C20_20 
REMARK    9  A    between atoms: C19_19  and  O19_35 
REMARK   10  A    between atoms: C1'_24  and  O3_31 
REMARK   11  A    between atoms: C2'_25  and  O2'_38 
REMARK   12  A    between atoms: C3'_26  and  O3'_39 
REMARK   13  A    between atoms: C4'_27  and  O4'_40 
REMARK   14  A    between atoms: C5'_28  and  C6'_29 
ROOT
ATOM      1  C1  OBN d   1     -26.396 -19.099  74.669  0.00  0.00     0.050 C 
ATOM      2  C2  OBN d   1     -27.905 -19.342  74.715  0.00  0.00    -0.016 C 
ATOM      3  C3  OBN d   1     -28.210 -20.312  75.842  0.00  0.00     0.046 C 
ATOM      4  C4  OBN d   1     -27.462 -21.610  75.574  0.00  0.00    -0.011 C 
ATOM      5  C5  OBN d   1     -25.951 -21.411  75.425  0.00  0.00     0.073 C 
ATOM      6  C6  OBN d   1     -25.269 -22.747  75.173  0.00  0.00    -0.035 C 
ATOM      7  C7  OBN d   1     -25.668 -23.293  73.815  0.00  0.00    -0.056 C 
ATOM      8  C8  OBN d   1     -25.331 -22.278  72.722  0.00  0.00    -0.017 C 
ATOM      9  C9  OBN d   1     -25.998 -20.916  72.938  0.00  0.00    -0.008 C 
ATOM     10  C10 OBN d   1     -25.629 -20.377  74.327  0.00  0.00     0.044 C 
ATOM     11  C11 OBN d   1     -25.557 -20.046  71.754  0.00  0.00     0.041 C 
ATOM     12  C12 OBN d   1     -26.262 -20.563  70.508  0.00  0.00    -0.031 C 
ATOM     13  C13 OBN d   1     -25.826 -21.977  70.140  0.00  0.00    -0.003 C 
ATOM     14  C14 OBN d   1     -25.550 -22.907  71.343  0.00  0.00     0.070 C 
ATOM     15  C15 OBN d   1     -26.665 -23.943  71.435  0.00  0.00    -0.035 C 
ATOM     16  C16 OBN d   1     -27.494 -23.850  70.176  0.00  0.00    -0.055 C 
ATOM     17  C17 OBN d   1     -27.015 -22.626  69.423  0.00  0.00    -0.020 C 
ATOM     18  H   OBN d   1     -26.200 -18.365  73.887  0.00  0.00     0.084 H 
ATOM     19  H   OBN d   1     -28.241 -19.761  73.766  0.00  0.00     0.040 H 
ATOM     20  H   OBN d   1     -28.426 -18.400  74.887  0.00  0.00     0.040 H 
ATOM     21  H   OBN d   1     -29.277 -20.518  75.932  0.00  0.00     0.083 H 
ATOM     22  H   OBN d   1     -27.837 -22.021  74.637  0.00  0.00     0.041 H 
ATOM     23  H   OBN d   1     -27.627 -22.270  76.425  0.00  0.00     0.041 H 
ATOM     24  H   OBN d   1     -25.574 -23.454  75.945  0.00  0.00     0.037 H 
ATOM     25  H   OBN d   1     -24.189 -22.605  75.196  0.00  0.00     0.037 H 
ATOM     26  H   OBN d   1     -26.741 -23.485  73.807  0.00  0.00     0.033 H 
ATOM     27  H   OBN d   1     -25.122 -24.217  73.626  0.00  0.00     0.033 H 
ATOM     28  H   OBN d   1     -24.271 -22.032  72.781  0.00  0.00     0.045 H 
ATOM     29  H   OBN d   1     -27.087 -20.949  72.947  0.00  0.00     0.046 H 
ATOM     30  H   OBN d   1     -24.472 -20.133  71.693  0.00  0.00     0.083 H 
ATOM     31  H   OBN d   1     -26.007 -19.904  69.678  0.00  0.00     0.038 H 
ATOM     32  H   OBN d   1     -27.333 -20.581  70.709  0.00  0.00     0.038 H 
ATOM     33  H   OBN d   1     -27.286 -23.751  72.310  0.00  0.00     0.037 H 
ATOM     34  H   OBN d   1     -26.243 -24.943  71.535  0.00  0.00     0.037 H 
ATOM     35  H   OBN d   1     -28.554 -23.766  70.416  0.00  0.00     0.034 H 
ATOM     36  H   OBN d   1     -27.377 -24.748  69.569  0.00  0.00     0.034 H 
ATOM     37  H   OBN d   1     -27.746 -21.819  69.373  0.00  0.00     0.048 H 
ENDROOT
BRANCH   3  38
ATOM     38  O3  OBN d   1     -27.683 -19.716  77.021  0.00  0.00    -0.353 OA
BRANCH  38  39
ATOM     39  C1' OBN d   1     -28.298 -20.019  78.267  0.00  0.00     0.159 C 
ATOM     40  C2' OBN d   1     -27.566 -19.145  79.269  0.00  0.00     0.110 C 
ATOM     41  C3' OBN d   1     -27.765 -17.672  78.901  0.00  0.00     0.092 C 
ATOM     42  H   OBN d   1     -26.495 -19.346  79.253  0.00  0.00     0.094 H 
ATOM     43  C4' OBN d   1     -29.246 -17.319  78.739  0.00  0.00     0.087 C 
ATOM     44  H   OBN d   1     -27.279 -17.504  77.940  0.00  0.00     0.091 H 
ATOM     45  C5' OBN d   1     -29.945 -18.332  77.833  0.00  0.00     0.065 C 
ATOM     46  H   OBN d   1     -29.722 -17.344  79.719  0.00  0.00     0.091 H 
ATOM     47  O5' OBN d   1     -29.688 -19.674  78.267  0.00  0.00    -0.351 OA
ATOM     48  H   OBN d   1     -29.540 -18.175  76.833  0.00  0.00     0.086 H 
ATOM     49  H   OBN d   1     -28.240 -21.084  78.490  0.00  0.00     0.133 H 
BRANCH  40  50
ATOM     50  O2' OBN d   1     -28.064 -19.439  80.576  0.00  0.00    -0.388 OA
ATOM     51  H   OBN d   1     -29.003 -19.244  80.611  0.00  0.00     0.210 HD
ENDBRANCH  40  50
BRANCH  41  52
ATOM     52  O3' OBN d   1     -27.166 -16.833  79.891  0.00  0.00    -0.390 OA
ATOM     53  H   OBN d   1     -27.614 -16.960  80.730  0.00  0.00     0.210 HD
ENDBRANCH  41  52
BRANCH  43  54
ATOM     54  O4' OBN d   1     -29.365 -16.006  78.177  0.00  0.00    -0.390 OA
ATOM     55  H   OBN d   1     -28.925 -15.373  78.749  0.00  0.00     0.210 HD
ENDBRANCH  43  54
BRANCH  45  56
ATOM     56  C6' OBN d   1     -31.449 -18.125  77.801  0.00  0.00    -0.050 C 
ATOM     57  H   OBN d   1     -31.851 -18.234  78.808  0.00  0.00     0.031 H 
ATOM     58  H   OBN d   1     -31.669 -17.125  77.427  0.00  0.00     0.031 H 
ATOM     59  H   OBN d   1     -31.903 -18.867  77.145  0.00  0.00     0.031 H 
ENDBRANCH  45  56
ENDBRANCH  38  39
ENDBRANCH   3  38
BRANCH   1  60
ATOM     60  O1  OBN d   1     -25.948 -18.602  75.940  0.00  0.00    -0.395 OA
ATOM     61  H   OBN d   1     -26.109 -19.264  76.616  0.00  0.00     0.210 HD
ENDBRANCH   1  60
BRANCH   5  62
ATOM     62  O5  OBN d   1     -25.427 -20.929  76.663  0.00  0.00    -0.389 OA
ATOM     63  H   OBN d   1     -25.828 -20.082  76.871  0.00  0.00     0.210 HD
ENDBRANCH   5  62
BRANCH  10  64
ATOM     64  C19 OBN d   1     -24.116 -20.160  74.211  0.00  0.00     0.029 C 
ATOM     65  H   OBN d   1     -23.770 -20.750  73.362  0.00  0.00     0.075 H 
ATOM     66  H   OBN d   1     -23.675 -20.450  75.165  0.00  0.00     0.075 H 
BRANCH  64  67
ATOM     67  O19 OBN d   1     -23.736 -18.800  73.965  0.00  0.00    -0.400 OA
ATOM     68  H   OBN d   1     -24.128 -18.503  73.140  0.00  0.00     0.209 HD
ENDBRANCH  64  67
ENDBRANCH  10  64
BRANCH  11  69
ATOM     69  O11 OBN d   1     -25.802 -18.636  71.896  0.00  0.00    -0.395 OA
ATOM     70  H   OBN d   1     -25.356 -18.312  72.682  0.00  0.00     0.210 HD
ENDBRANCH  11  69
BRANCH  14  71
ATOM     71  O14 OBN d   1     -24.351 -23.621  71.063  0.00  0.00    -0.389 OA
ATOM     72  H   OBN d   1     -24.152 -24.210  71.795  0.00  0.00     0.210 HD
ENDBRANCH  14  71
BRANCH  13  73
ATOM     73  C18 OBN d   1     -24.591 -21.805  69.253  0.00  0.00    -0.066 C 
ATOM     74  H   OBN d   1     -24.858 -21.227  68.368  0.00  0.00     0.028 H 
ATOM     75  H   OBN d   1     -23.815 -21.281  69.811  0.00  0.00     0.028 H 
ATOM     76  H   OBN d   1     -24.223 -22.785  68.950  0.00  0.00     0.028 H 
ENDBRANCH  13  73
BRANCH  17  77
ATOM     77  C20 OBN d   1     -26.724 -23.130  68.057  0.00  0.00    -0.045 C 
ATOM     78  C21 OBN d   1     -25.738 -24.239  67.712  0.00  0.00     0.050 C 
ATOM     79  O21 OBN d   1     -26.067 -24.507  66.352  0.00  0.00    -0.314 OA
ATOM     80  H   OBN d   1     -25.823 -25.112  68.359  0.00  0.00     0.082 H 
ATOM     81  H   OBN d   1     -24.696 -23.954  67.859  0.00  0.00     0.082 H 
ATOM     82  C23 OBN d   1     -26.957 -23.464  65.901  0.00  0.00     0.283 C 
ATOM     83  C22 OBN d   1     -27.402 -22.655  67.026  0.00  0.00    -0.006 C 
ATOM     84  O23 OBN d   1     -27.279 -23.300  64.748  0.00  0.00    -0.260 OA
ATOM     85  H   OBN d   1     -28.129 -21.843  67.020  0.00  0.00     0.093 H 
ENDBRANCH  17  77
TORSDOF 14
