REMARK  4 active torsions:
REMARK  status: ('A' for Active; 'I' for Inactive)
REMARK    1  A    between atoms: C4_4  and  C7_6 
REMARK    2  A    between atoms: C7_6  and  C10_7 
REMARK    3  A    between atoms: C18_12  and  O21_14 
REMARK    4  A    between atoms: O21_14  and  C22_15 
ROOT
ATOM      1  O1  MS0 d   1       2.100  74.945  27.266  0.00  0.00    -0.321 OA
ATOM      2  C2  MS0 d   1       2.593  76.270  27.244  0.00  0.00     0.088 A 
ATOM      3  C3  MS0 d   1       3.944  76.406  27.127  0.00  0.00     0.006 A 
ATOM      4  C4  MS0 d   1       4.398  74.992  27.033  0.00  0.00    -0.013 A 
ATOM      5  C5  MS0 d   1       3.280  74.247  27.107  0.00  0.00     0.027 A 
ATOM      6  C14 MS0 d   1       4.590  77.645  27.114  0.00  0.00    -0.067 A 
ATOM      7  C16 MS0 d   1       3.778  78.800  27.232  0.00  0.00    -0.050 A 
ATOM      8  C18 MS0 d   1       2.367  78.676  27.330  0.00  0.00     0.070 A 
ATOM      9  C19 MS0 d   1       1.784  77.395  27.344  0.00  0.00    -0.017 A 
ATOM     10  H   MS0 d   1       3.305  73.159  27.045  0.00  0.00     0.124 H 
ATOM     11  H   MS0 d   1       5.673  77.720  27.017  0.00  0.00     0.085 H 
ATOM     12  H   MS0 d   1       4.238  79.788  27.248  0.00  0.00     0.087 H 
ATOM     13  H   MS0 d   1       0.703  77.286  27.433  0.00  0.00     0.092 H 
ENDROOT
BRANCH   4  14
ATOM     14  C7  MS0 d   1       5.810  74.519  26.874  0.00  0.00     0.042 C 
ATOM     15  H   MS0 d   1       5.855  73.437  26.998  0.00  0.00     0.056 H 
ATOM     16  H   MS0 d   1       6.444  74.982  27.630  0.00  0.00     0.056 H 
BRANCH  14  17
ATOM     17  C10 MS0 d   1       6.294  74.901  25.490  0.00  0.00     0.177 C 
ATOM     18  O11 MS0 d   1       7.241  75.663  25.339  0.00  0.00    -0.648 OA
ATOM     19  O12 MS0 d   1       5.626  74.354  24.424  0.00  0.00    -0.648 OA
ENDBRANCH  14  17
ENDBRANCH   4  14
BRANCH   8  20
ATOM     20  O21 MS0 d   1       1.523  79.802  27.387  0.00  0.00    -0.356 OA
BRANCH  20  21
ATOM     21  C22 MS0 d   1       2.118  81.093  27.417  0.00  0.00     0.010 C 
ATOM     22  H   MS0 d   1       2.756  81.177  28.297  0.00  0.00     0.066 H 
ATOM     23  H   MS0 d   1       2.716  81.237  26.517  0.00  0.00     0.066 H 
ATOM     24  H   MS0 d   1       1.336  81.851  27.460  0.00  0.00     0.066 H 
ENDBRANCH  20  21
ENDBRANCH   8  20
TORSDOF 4
