REMARK  4 active torsions:
REMARK  status: ('A' for Active; 'I' for Inactive)
REMARK       I    between atoms: N1_1  and  C21_13 
REMARK    1  A    between atoms: C2_2  and  C17_10 
REMARK    2  A    between atoms: C21_13  and  O23_15 
REMARK    3  A    between atoms: O23_15  and  C24_16 
REMARK    4  A    between atoms: C24_16  and  C27_17 
ROOT
ATOM      1  N1  3N3 d   1       4.546  73.296  23.511  0.00  0.00    -0.278 N 
ATOM      2  C2  3N3 d   1       5.747  73.019  22.698  0.00  0.00     0.109 C 
ATOM      3  C4  3N3 d   1       6.598  72.037  23.642  0.00  0.00    -0.010 C 
ATOM      4  C7  3N3 d   1       5.634  71.701  24.787  0.00  0.00    -0.029 A 
ATOM      5  C8  3N3 d   1       4.512  72.460  24.638  0.00  0.00     0.046 A 
ATOM      6  C9  3N3 d   1       3.440  72.384  25.550  0.00  0.00    -0.056 A 
ATOM      7  C11 3N3 d   1       3.573  71.469  26.616  0.00  0.00    -0.081 A 
ATOM      8  C13 3N3 d   1       4.736  70.677  26.756  0.00  0.00    -0.082 A 
ATOM      9  C15 3N3 d   1       5.799  70.793  25.840  0.00  0.00    -0.075 A 
ATOM     10  C21 3N3 d   1       3.626  74.252  23.156  0.00  0.00     0.368 C 
ATOM     11  O22 3N3 d   1       3.716  74.930  22.132  0.00  0.00    -0.238 OA
ATOM     12  H1  3N3 d   1       6.284  73.922  22.373  0.00  0.00     0.091 H 
ATOM     13  H2  3N3 d   1       7.498  72.543  24.023  0.00  0.00     0.044 H 
ATOM     14  H3  3N3 d   1       6.891  71.127  23.098  0.00  0.00     0.044 H 
ATOM     15  H4  3N3 d   1       2.555  73.000  25.438  0.00  0.00     0.086 H 
ATOM     16  H5  3N3 d   1       2.771  71.372  27.339  0.00  0.00     0.083 H 
ATOM     17  H6  3N3 d   1       4.810  69.973  27.577  0.00  0.00     0.083 H 
ATOM     18  H7  3N3 d   1       6.704  70.206  25.945  0.00  0.00     0.084 H 
ENDROOT
BRANCH   2  19
ATOM     19  C17 3N3 d   1       5.313  72.128  21.563  0.00  0.00     0.197 C 
ATOM     20  O18 3N3 d   1       5.732  72.287  20.432  0.00  0.00    -0.646 OA
ATOM     21  O19 3N3 d   1       4.445  71.159  21.867  0.00  0.00    -0.646 OA
ENDBRANCH   2  19
BRANCH  10  22
ATOM     22  O23 3N3 d   1       2.605  74.398  24.031  0.00  0.00    -0.299 OA
BRANCH  22  23
ATOM     23  C24 3N3 d   1       1.667  75.468  23.704  0.00  0.00     0.054 C 
ATOM     24  H8  3N3 d   1       0.761  75.327  24.312  0.00  0.00     0.082 H 
ATOM     25  H9  3N3 d   1       1.410  75.384  22.638  0.00  0.00     0.082 H 
BRANCH  23  26
ATOM     26  C27 3N3 d   1       2.199  76.894  23.959  0.00  0.00    -0.034 A 
ATOM     27  C28 3N3 d   1       1.322  77.989  23.811  0.00  0.00    -0.075 A 
ATOM     28  C30 3N3 d   1       1.766  79.297  24.052  0.00  0.00    -0.082 A 
ATOM     29  H10 3N3 d   1       0.295  77.818  23.508  0.00  0.00     0.084 H 
ATOM     30  C32 3N3 d   1       3.100  79.513  24.436  0.00  0.00    -0.083 A 
ATOM     31  H11 3N3 d   1       1.086  80.134  23.943  0.00  0.00     0.083 H 
ATOM     32  C34 3N3 d   1       3.982  78.429  24.574  0.00  0.00    -0.082 A 
ATOM     33  H12 3N3 d   1       3.450  80.521  24.627  0.00  0.00     0.083 H 
ATOM     34  C36 3N3 d   1       3.535  77.119  24.337  0.00  0.00    -0.075 A 
ATOM     35  H13 3N3 d   1       5.012  78.604  24.864  0.00  0.00     0.083 H 
ATOM     36  H14 3N3 d   1       4.218  76.284  24.445  0.00  0.00     0.084 H 
ENDBRANCH  23  26
ENDBRANCH  22  23
ENDBRANCH  10  22
TORSDOF 4
