REMARK  4 active torsions:
REMARK  status: ('A' for Active; 'I' for Inactive)
REMARK       I    between atoms: N1_1  and  C21_13 
REMARK    1  A    between atoms: C2_2  and  C17_10 
REMARK    2  A    between atoms: C21_13  and  O23_15 
REMARK    3  A    between atoms: O23_15  and  C24_16 
REMARK    4  A    between atoms: C24_16  and  C27_17 
ROOT
ATOM      1  N1  3N5 d   1       3.083  75.743  25.572  0.00  0.00    -0.278 N 
ATOM      2  C2  3N5 d   1       4.517  75.963  25.570  0.00  0.00     0.109 A 
ATOM      3  C4  3N5 d   1       4.672  77.546  25.614  0.00  0.00    -0.010 A 
ATOM      4  C7  3N5 d   1       3.244  78.022  25.493  0.00  0.00    -0.029 A 
ATOM      5  C8  3N5 d   1       2.409  76.937  25.488  0.00  0.00     0.046 A 
ATOM      6  C9  3N5 d   1       1.011  77.057  25.408  0.00  0.00    -0.056 A 
ATOM      7  C11 3N5 d   1       0.483  78.359  25.306  0.00  0.00    -0.081 A 
ATOM      8  C13 3N5 d   1       1.345  79.482  25.284  0.00  0.00    -0.082 A 
ATOM      9  C15 3N5 d   1       2.750  79.325  25.397  0.00  0.00    -0.075 A 
ATOM     10  C21 3N5 d   1       2.511  74.491  25.633  0.00  0.00     0.368 C 
ATOM     11  O22 3N5 d   1       1.304  74.276  25.561  0.00  0.00    -0.238 OA
ATOM     12  H1  3N5 d   1       5.007  75.495  26.436  0.00  0.00     0.091 H 
ATOM     13  H2  3N5 d   1       5.284  77.908  24.774  0.00  0.00     0.044 H 
ATOM     14  H3  3N5 d   1       5.121  77.875  26.563  0.00  0.00     0.044 H 
ATOM     15  H4  3N5 d   1       0.367  76.185  25.424  0.00  0.00     0.086 H 
ATOM     16  H5  3N5 d   1      -0.590  78.502  25.244  0.00  0.00     0.083 H 
ATOM     17  H6  3N5 d   1       0.925  80.476  25.179  0.00  0.00     0.083 H 
ATOM     18  H7  3N5 d   1       3.414  80.182  25.408  0.00  0.00     0.084 H 
ENDROOT
BRANCH   2  19
ATOM     19  C17 3N5 d   1       5.059  75.370  24.260  0.00  0.00     0.197 C 
ATOM     20  O18 3N5 d   1       4.356  75.227  23.264  0.00  0.00    -0.646 OA
ATOM     21  O19 3N5 d   1       6.339  74.998  24.268  0.00  0.00    -0.646 OA
ENDBRANCH   2  19
BRANCH  10  22
ATOM     22  O23 3N5 d   1       3.447  73.498  25.787  0.00  0.00    -0.299 OA
BRANCH  22  23
ATOM     23  C24 3N5 d   1       2.888  72.179  25.982  0.00  0.00     0.054 C 
ATOM     24  H8  3N5 d   1       2.123  71.981  25.216  0.00  0.00     0.082 H 
ATOM     25  H9  3N5 d   1       2.433  72.110  26.981  0.00  0.00     0.082 H 
BRANCH  23  26
ATOM     26  C27 3N5 d   1       4.020  71.164  25.858  0.00  0.00    -0.034 A 
ATOM     27  C28 3N5 d   1       5.175  71.279  26.653  0.00  0.00    -0.075 A 
ATOM     28  C30 3N5 d   1       6.226  70.356  26.516  0.00  0.00    -0.082 A 
ATOM     29  H10 3N5 d   1       5.255  72.084  27.375  0.00  0.00     0.084 H 
ATOM     30  C32 3N5 d   1       6.112  69.298  25.585  0.00  0.00    -0.083 A 
ATOM     31  H11 3N5 d   1       7.120  70.455  27.121  0.00  0.00     0.083 H 
ATOM     32  C34 3N5 d   1       4.943  69.165  24.794  0.00  0.00    -0.082 A 
ATOM     33  H12 3N5 d   1       6.922  68.586  25.476  0.00  0.00     0.083 H 
ATOM     34  C36 3N5 d   1       3.900  70.109  24.931  0.00  0.00    -0.075 A 
ATOM     35  H13 3N5 d   1       4.850  68.346  24.090  0.00  0.00     0.083 H 
ATOM     36  H14 3N5 d   1       3.007  70.022  24.323  0.00  0.00     0.084 H 
ENDBRANCH  23  26
ENDBRANCH  22  23
ENDBRANCH  10  22
TORSDOF 4
