REMARK  2 active torsions:
REMARK  status: ('A' for Active; 'I' for Inactive)
REMARK    1  A    between atoms: C18_12  and  C21_14 
REMARK    2  A    between atoms: C21_14  and  C24_15 
ROOT
ATOM      1  S1  3N4 d   1       1.128  73.423  27.961  0.00  0.00    -0.101 SA
ATOM      2  C2  3N4 d   1       1.606  75.105  28.187  0.00  0.00     0.016 A 
ATOM      3  C3  3N4 d   1       2.948  75.329  28.501  0.00  0.00    -0.001 A 
ATOM      4  C4  3N4 d   1       3.458  76.633  28.634  0.00  0.00    -0.014 A 
ATOM      5  C5  3N4 d   1       2.574  77.733  28.476  0.00  0.00    -0.025 A 
ATOM      6  C6  3N4 d   1       1.203  77.497  28.186  0.00  0.00    -0.071 A 
ATOM      7  C8  3N4 d   1       0.709  76.171  28.049  0.00  0.00    -0.065 A 
ATOM      8  C10 3N4 d   1       3.027  79.054  28.589  0.00  0.00    -0.072 A 
ATOM      9  C12 3N4 d   1       4.398  79.285  28.813  0.00  0.00    -0.082 A 
ATOM     10  C14 3N4 d   1       5.294  78.197  28.966  0.00  0.00    -0.082 A 
ATOM     11  C16 3N4 d   1       4.828  76.885  28.917  0.00  0.00    -0.071 A 
ATOM     12  C18 3N4 d   1       3.633  73.992  28.639  0.00  0.00    -0.029 A 
ATOM     13  C19 3N4 d   1       2.802  72.954  28.452  0.00  0.00    -0.037 A 
ATOM     14  H1  3N4 d   1       0.527  78.336  28.068  0.00  0.00     0.084 H 
ATOM     15  H2  3N4 d   1      -0.340  75.989  27.842  0.00  0.00     0.085 H 
ATOM     16  H3  3N4 d   1       2.334  79.884  28.506  0.00  0.00     0.084 H 
ATOM     17  H4  3N4 d   1       4.771  80.301  28.869  0.00  0.00     0.083 H 
ATOM     18  H5  3N4 d   1       6.350  78.387  29.122  0.00  0.00     0.083 H 
ATOM     19  H6  3N4 d   1       5.508  76.059  29.094  0.00  0.00     0.084 H 
ATOM     20  H7  3N4 d   1       3.111  71.918  28.585  0.00  0.00     0.095 H 
ENDROOT
BRANCH  12  21
ATOM     21  C21 3N4 d   1       5.124  73.853  28.936  0.00  0.00     0.041 C 
ATOM     22  H8  3N4 d   1       5.312  72.934  29.510  0.00  0.00     0.056 H 
ATOM     23  H9  3N4 d   1       5.479  74.722  29.509  0.00  0.00     0.056 H 
BRANCH  21  24
ATOM     24  C24 3N4 d   1       5.875  73.782  27.508  0.00  0.00     0.177 C 
ATOM     25  O25 3N4 d   1       6.330  72.743  27.083  0.00  0.00    -0.648 OA
ATOM     26  O26 3N4 d   1       6.031  74.859  26.733  0.00  0.00    -0.648 OA
ENDBRANCH  21  24
ENDBRANCH  12  21
TORSDOF 2
