REMARK  10 active torsions:
REMARK  status: ('A' for Active; 'I' for Inactive)
REMARK    1  A    between atoms: N3_3  and  C16_16 
REMARK    2  A    between atoms: C6_6  and  C22_22 
REMARK    3  A    between atoms: O17_17  and  C7_7 
REMARK    4  A    between atoms: C10_10  and  C12_12 
REMARK    5  A    between atoms: C14_14  and  C26_26 
REMARK    6  A    between atoms: C18_18  and  O17_17 
REMARK    7  A    between atoms: C19_19  and  C18_18 
REMARK    8  A    between atoms: C20_20  and  C19_19 
REMARK    9  A    between atoms: N21_21  and  C20_20 
REMARK   10  A    between atoms: N29_29  and  C33_33 
ROOT
ATOM      1  C6  EF3 d   1      14.151   8.827  20.533  0.00  0.00     0.082 A 
ATOM      2  C7  EF3 d   1      13.291   9.825  21.008  0.00  0.00     0.083 A 
ATOM      3  C8  EF3 d   1      12.479   9.559  22.113  0.00  0.00    -0.049 A 
ATOM      4  C9  EF3 d   1      12.520   8.309  22.744  0.00  0.00    -0.068 A 
ATOM      5  C10 EF3 d   1      13.369   7.287  22.293  0.00  0.00    -0.006 A 
ATOM      6  C11 EF3 d   1      14.179   7.573  21.180  0.00  0.00    -0.053 A 
ATOM      7  H   EF3 d   1      11.807  10.331  22.488  0.00  0.00     0.087 H 
ATOM      8  H   EF3 d   1      11.877   8.126  23.605  0.00  0.00     0.085 H 
ATOM      9  H   EF3 d   1      14.851   6.801  20.805  0.00  0.00     0.086 H 
ENDROOT
BRANCH   2  10
ATOM     10  O17 EF3 d   1      13.318  11.012  20.331  0.00  0.00    -0.350 OA
BRANCH  10  11
ATOM     11  C18 EF3 d   1      12.768  12.163  20.972  0.00  0.00     0.028 C 
ATOM     12  H   EF3 d   1      13.507  12.614  21.634  0.00  0.00     0.075 H 
ATOM     13  H   EF3 d   1      11.903  11.882  21.573  0.00  0.00     0.075 H 
BRANCH  11  14
ATOM     14  C19 EF3 d   1      12.356  13.157  19.888  0.00  0.00    -0.020 C 
ATOM     15  H   EF3 d   1      11.817  13.981  20.355  0.00  0.00     0.038 H 
ATOM     16  H   EF3 d   1      11.727  12.643  19.162  0.00  0.00     0.038 H 
BRANCH  14  17
ATOM     17  C20 EF3 d   1      13.584  13.718  19.166  0.00  0.00     0.115 C 
ATOM     18  H   EF3 d   1      13.231  14.260  18.289  0.00  0.00     0.080 H 
ATOM     19  H   EF3 d   1      14.234  12.878  18.921  0.00  0.00     0.080 H 
BRANCH  17  20
ATOM     20  N21 EF3 d   1      14.362  14.658  19.987  0.00  0.00     0.091 N 
ATOM     21  C31 EF3 d   1      13.655  15.954  20.083  0.00  0.00     0.138 C 
ATOM     22  C30 EF3 d   1      14.446  17.007  20.891  0.00  0.00     0.138 C 
ATOM     23  H   EF3 d   1      12.708  15.781  20.595  0.00  0.00     0.082 H 
ATOM     24  H   EF3 d   1      13.523  16.339  19.072  0.00  0.00     0.082 H 
ATOM     25  N29 EF3 d   1      15.787  17.242  20.325  0.00  0.00     0.087 N 
ATOM     26  H   EF3 d   1      13.893  17.946  20.861  0.00  0.00     0.082 H 
ATOM     27  H   EF3 d   1      14.565  16.637  21.909  0.00  0.00     0.082 H 
ATOM     28  C28 EF3 d   1      16.506  15.957  20.243  0.00  0.00     0.138 C 
ATOM     29  C32 EF3 d   1      15.718  14.894  19.442  0.00  0.00     0.138 C 
ATOM     30  H   EF3 d   1      16.645  15.582  21.257  0.00  0.00     0.082 H 
ATOM     31  H   EF3 d   1      17.453  16.131  19.733  0.00  0.00     0.082 H 
ATOM     32  H   EF3 d   1      15.610  15.257  18.420  0.00  0.00     0.082 H 
ATOM     33  H   EF3 d   1      16.270  13.956  19.498  0.00  0.00     0.082 H 
BRANCH  25  34
ATOM     34  C33 EF3 d   1      16.531  18.200  21.138  0.00  0.00     0.095 C 
ATOM     35  H   EF3 d   1      16.655  17.801  22.145  0.00  0.00     0.071 H 
ATOM     36  H   EF3 d   1      17.510  18.372  20.690  0.00  0.00     0.071 H 
ATOM     37  H   EF3 d   1      15.981  19.140  21.184  0.00  0.00     0.071 H 
ENDBRANCH  25  34
ENDBRANCH  17  20
ENDBRANCH  14  17
ENDBRANCH  11  14
ENDBRANCH  10  11
ENDBRANCH   2  10
BRANCH   1  38
ATOM     38  C22 EF3 d   1      15.040   9.083  19.341  0.00  0.00     0.420 C 
ATOM     39  F23 EF3 d   1      15.963  10.062  19.558  0.00  0.00    -0.166 F 
ATOM     40  F24 EF3 d   1      14.350   9.448  18.224  0.00  0.00    -0.166 F 
ATOM     41  F25 EF3 d   1      15.765   7.987  18.969  0.00  0.00    -0.166 F 
ENDBRANCH   1  38
BRANCH   5  42
ATOM     42  C12 EF3 d   1      13.424   5.962  22.948  0.00  0.00     0.070 A 
ATOM     43  C13 EF3 d   1      12.671   5.660  24.083  0.00  0.00    -0.026 A 
ATOM     44  C2  EF3 d   1      12.821   4.370  24.596  0.00  0.00     0.068 A 
ATOM     45  H   EF3 d   1      12.004   6.389  24.543  0.00  0.00     0.090 H 
ATOM     46  C1  EF3 d   1      13.673   3.424  24.018  0.00  0.00     0.115 A 
ATOM     47  N3  EF3 d   1      12.261   3.723  25.671  0.00  0.00    -0.344 N 
ATOM     48  N5  EF3 d   1      13.614   2.247  24.739  0.00  0.00    -0.239 NA
ATOM     49  C14 EF3 d   1      14.394   3.808  22.881  0.00  0.00     0.105 A 
ATOM     50  C4  EF3 d   1      12.765   2.459  25.716  0.00  0.00     0.067 A 
ATOM     51  H   EF3 d   1      12.497   1.717  26.468  0.00  0.00     0.143 H 
ATOM     52  N15 EF3 d   1      14.260   5.067  22.363  0.00  0.00    -0.244 NA
BRANCH  49  53
ATOM     53  C26 EF3 d   1      15.330   2.948  22.148  0.00  0.00     0.024 C 
ATOM     54  N27 EF3 d   1      15.468   1.671  22.309  0.00  0.00    -0.310 NA
ATOM     55  H   EF3 d   1      14.896   1.179  22.995  0.00  0.00     0.186 HD
ATOM     56  H   EF3 d   1      15.965   3.426  21.402  0.00  0.00     0.117 H 
ENDBRANCH  49  53
BRANCH  47  57
ATOM     57  C16 EF3 d   1      11.306   4.276  26.598  0.00  0.00    -0.013 C 
ATOM     58  H   EF3 d   1      10.390   3.685  26.570  0.00  0.00     0.057 H 
ATOM     59  H   EF3 d   1      11.724   4.254  27.605  0.00  0.00     0.057 H 
ATOM     60  H   EF3 d   1      11.084   5.306  26.318  0.00  0.00     0.057 H 
ENDBRANCH  47  57
ENDBRANCH   5  42
TORSDOF 10
