REMARK  11 active torsions:
REMARK  status: ('A' for Active; 'I' for Inactive)
REMARK    1  A    between atoms: C1_1  and  C2_2 
REMARK       I    between atoms: C2_2  and  N3_3 
REMARK    2  A    between atoms: N3_3  and  C4_4 
REMARK    3  A    between atoms: C4_4  and  C5_5 
REMARK    4  A    between atoms: C4_4  and  C26_26 
REMARK    5  A    between atoms: C5_5  and  C6_6 
REMARK    6  A    between atoms: C5_5  and  O35_35 
REMARK    7  A    between atoms: C6_6  and  N7_7 
REMARK    8  A    between atoms: N7_7  and  C8_8 
REMARK    9  A    between atoms: C8_8  and  C14_14 
REMARK   10  A    between atoms: C16_16  and  N20_20 
REMARK   11  A    between atoms: C26_26  and  C27_27 
ROOT
ATOM      1  C8  842 d   1      30.573   1.957  12.201  0.00  0.00     0.153 C 
ATOM      2  C9  842 d   1      31.282   0.648  11.923  0.00  0.00    -0.030 C 
ATOM      3  C10 842 d   1      30.449  -0.238  11.016  0.00  0.00    -0.062 C 
ATOM      4  C11 842 d   1      29.132  -0.570  11.706  0.00  0.00    -0.065 C 
ATOM      5  C12 842 d   1      28.351   0.685  11.990  0.00  0.00    -0.062 C 
ATOM      6  C13 842 d   1      29.180   1.657  12.807  0.00  0.00    -0.030 C 
ATOM      7  H   842 d   1      31.443   0.129  12.868  0.00  0.00     0.037 H 
ATOM      8  H   842 d   1      32.230   0.861  11.430  0.00  0.00     0.037 H 
ATOM      9  H   842 d   1      30.993  -1.159  10.806  0.00  0.00     0.033 H 
ATOM     10  H   842 d   1      30.249   0.284  10.080  0.00  0.00     0.033 H 
ATOM     11  H   842 d   1      29.345  -1.074  12.649  0.00  0.00     0.033 H 
ATOM     12  H   842 d   1      28.543  -1.212  11.051  0.00  0.00     0.033 H 
ATOM     13  H   842 d   1      27.456   0.423  12.554  0.00  0.00     0.033 H 
ATOM     14  H   842 d   1      28.085   1.157  11.044  0.00  0.00     0.033 H 
ATOM     15  H   842 d   1      28.633   2.599  12.844  0.00  0.00     0.037 H 
ATOM     16  H   842 d   1      29.343   1.203  13.784  0.00  0.00     0.037 H 
ENDROOT
BRANCH   1  17
ATOM     17  N7  842 d   1      31.377   2.745  13.182  0.00  0.00    -0.060 N 
ATOM     18  H   842 d   1      31.296   2.215  14.049  0.00  0.00     0.278 HD
ATOM     19  H   842 d   1      32.278   2.866  12.720  0.00  0.00     0.278 HD
BRANCH  17  20
ATOM     20  C6  842 d   1      30.987   4.110  13.563  0.00  0.00     0.108 C 
ATOM     21  H   842 d   1      30.733   4.647  12.649  0.00  0.00     0.079 H 
ATOM     22  H   842 d   1      30.155   4.032  14.262  0.00  0.00     0.079 H 
BRANCH  20  23
ATOM     23  C5  842 d   1      32.100   4.881  14.256  0.00  0.00     0.078 C 
ATOM     24  H   842 d   1      32.350   4.438  15.220  0.00  0.00     0.088 H 
BRANCH  23  25
ATOM     25  C4  842 d   1      31.667   6.325  14.586  0.00  0.00     0.042 C 
ATOM     26  H   842 d   1      31.384   6.709  13.606  0.00  0.00     0.077 H 
BRANCH  25  27
ATOM     27  N3  842 d   1      30.542   6.380  15.519  0.00  0.00    -0.354 N 
ATOM     28  C2  842 d   1      29.289   6.757  15.197  0.00  0.00     0.214 C 
ATOM     29  O25 842 d   1      28.932   7.036  14.054  0.00  0.00    -0.274 OA
ATOM     30  H   842 d   1      30.719   6.113  16.487  0.00  0.00     0.162 HD
BRANCH  28  31
ATOM     31  C1  842 d   1      28.298   6.802  16.323  0.00  0.00    -0.003 C 
ATOM     32  H   842 d   1      27.895   7.811  16.410  0.00  0.00     0.040 H 
ATOM     33  H   842 d   1      27.488   6.102  16.120  0.00  0.00     0.040 H 
ATOM     34  H   842 d   1      28.794   6.526  17.253  0.00  0.00     0.040 H 
ENDBRANCH  28  31
ENDBRANCH  25  27
BRANCH  25  35
ATOM     35  C26 842 d   1      32.771   7.223  15.161  0.00  0.00    -0.020 C 
ATOM     36  H   842 d   1      33.558   7.386  14.424  0.00  0.00     0.043 H 
ATOM     37  H   842 d   1      33.236   6.754  16.028  0.00  0.00     0.043 H 
BRANCH  35  38
ATOM     38  C27 842 d   1      32.116   8.544  15.550  0.00  0.00    -0.050 A 
ATOM     39  C28 842 d   1      31.962   8.892  16.894  0.00  0.00    -0.039 A 
ATOM     40  C29 842 d   1      31.338  10.096  17.227  0.00  0.00     0.119 A 
ATOM     41  H   842 d   1      32.327   8.228  17.678  0.00  0.00     0.089 H 
ATOM     42  C30 842 d   1      30.841  10.963  16.260  0.00  0.00    -0.009 A 
ATOM     43  F33 842 d   1      31.188  10.450  18.498  0.00  0.00    -0.206 F 
ATOM     44  C31 842 d   1      30.993  10.604  14.945  0.00  0.00     0.119 A 
ATOM     45  H   842 d   1      30.348  11.895  16.537  0.00  0.00     0.092 H 
ATOM     46  C32 842 d   1      31.613   9.417  14.569  0.00  0.00    -0.039 A 
ATOM     47  F34 842 d   1      30.518  11.430  14.053  0.00  0.00    -0.206 F 
ATOM     48  H   842 d   1      31.709   9.163  13.513  0.00  0.00     0.089 H 
ENDBRANCH  35  38
ENDBRANCH  25  35
ENDBRANCH  23  25
BRANCH  23  49
ATOM     49  O35 842 d   1      33.234   4.828  13.382  0.00  0.00    -0.392 OA
ATOM     50  H   842 d   1      33.966   5.305  13.780  0.00  0.00     0.210 HD
ENDBRANCH  23  49
ENDBRANCH  20  23
ENDBRANCH  17  20
ENDBRANCH   1  17
BRANCH   1  51
ATOM     51  C14 842 d   1      30.581   2.820  10.930  0.00  0.00    -0.020 A 
ATOM     52  C15 842 d   1      31.780   2.985  10.196  0.00  0.00    -0.047 A 
ATOM     53  C16 842 d   1      31.921   3.793   9.049  0.00  0.00     0.058 A 
ATOM     54  H   842 d   1      32.661   2.446  10.544  0.00  0.00     0.088 H 
ATOM     55  C17 842 d   1      30.787   4.512   8.679  0.00  0.00    -0.055 A 
ATOM     56  C18 842 d   1      29.587   4.401   9.397  0.00  0.00    -0.080 A 
ATOM     57  H   842 d   1      30.833   5.174   7.814  0.00  0.00     0.087 H 
ATOM     58  C19 842 d   1      29.466   3.565  10.518  0.00  0.00    -0.074 A 
ATOM     59  H   842 d   1      28.723   4.981   9.075  0.00  0.00     0.083 H 
ATOM     60  H   842 d   1      28.522   3.496  11.059  0.00  0.00     0.084 H 
BRANCH  53  61
ATOM     61  N20 842 d   1      33.095   3.899   8.439  0.00  0.00    -0.245 N 
ATOM     62  N21 842 d   1      33.865   2.810   8.037  0.00  0.00    -0.180 NA
ATOM     63  C22 842 d   1      34.995   3.372   7.557  0.00  0.00     0.023 A 
ATOM     64  C23 842 d   1      34.915   4.752   7.707  0.00  0.00    -0.048 A 
ATOM     65  H   842 d   1      35.835   2.831   7.122  0.00  0.00     0.117 H 
ATOM     66  C24 842 d   1      33.703   5.077   8.282  0.00  0.00     0.006 A 
ATOM     67  H   842 d   1      35.687   5.464   7.417  0.00  0.00     0.087 H 
ATOM     68  H   842 d   1      33.329   6.066   8.546  0.00  0.00     0.114 H 
ENDBRANCH  53  61
ENDBRANCH   1  51
TORSDOF 11
