REMARK  5 active torsions:
REMARK  status: ('A' for Active; 'I' for Inactive)
REMARK    1  A    between atoms: C6_6  and  NAA_7 
REMARK    2  A    between atoms: CAO_23  and  NBB_8 
REMARK    3  A    between atoms: CAN_22  and  CAU_24 
REMARK    4  A    between atoms: CAV_25  and  CAN_22 
REMARK    5  A    between atoms: CAO_23  and  CBA_28 
ROOT
ATOM      1  N1  BK3 d   1      21.694  12.440  63.667  0.00  0.00    -0.224 NA
ATOM      2  C2  BK3 d   1      22.859  13.100  63.633  0.00  0.00     0.091 A 
ATOM      3  N3  BK3 d   1      22.925  14.429  63.639  0.00  0.00    -0.222 NA
ATOM      4  C4  BK3 d   1      21.803  15.168  63.619  0.00  0.00     0.163 A 
ATOM      5  C5  BK3 d   1      20.576  14.530  63.646  0.00  0.00     0.084 A 
ATOM      6  C6  BK3 d   1      20.540  13.122  63.692  0.00  0.00     0.138 A 
ATOM      7  NBB BK3 d   1      21.543  16.488  63.589  0.00  0.00    -0.251 N 
ATOM      8  NAR BK3 d   1      20.336  16.730  63.623  0.00  0.00    -0.174 NA
ATOM      9  CAV BK3 d   1      19.651  15.589  63.657  0.00  0.00     0.077 A 
ATOM     10  H1  BK3 d   1      23.781  12.531  63.599  0.00  0.00     0.146 H 
ENDROOT
BRANCH   7  11
ATOM     11  CAO BK3 d   1      22.529  17.557  63.552  0.00  0.00     0.022 C 
ATOM     12  H23 BK3 d   1      23.373  17.284  64.203  0.00  0.00     0.068 H 
ATOM     13  H24 BK3 d   1      22.064  18.482  63.923  0.00  0.00     0.068 H 
BRANCH  11  14
ATOM     14  CBA BK3 d   1      23.065  17.808  62.116  0.00  0.00    -0.034 C 
ATOM     15  CAL BK3 d   1      24.171  18.886  62.132  0.00  0.00    -0.038 C 
ATOM     16  CAJ BK3 d   1      24.650  19.185  60.690  0.00  0.00     0.082 C 
ATOM     17  H17 BK3 d   1      23.773  19.808  62.581  0.00  0.00     0.036 H 
ATOM     18  H18 BK3 d   1      25.021  18.525  62.729  0.00  0.00     0.036 H 
ATOM     19  NAS BK3 d   1      23.493  19.711  59.936  0.00  0.00    -0.075 N 
ATOM     20  H13 BK3 d   1      25.456  19.933  60.710  0.00  0.00     0.075 H 
ATOM     21  H14 BK3 d   1      25.017  18.262  60.218  0.00  0.00     0.075 H 
ATOM     22  CAK BK3 d   1      22.472  18.646  59.776  0.00  0.00     0.082 C 
ATOM     23  H4  BK3 d   1      23.799  20.021  59.027  0.00  0.00     0.277 HD
ATOM     24  H5  BK3 d   1      23.091  20.487  60.438  0.00  0.00     0.277 HD
ATOM     25  CAM BK3 d   1      21.929  18.268  61.166  0.00  0.00    -0.038 C 
ATOM     26  H15 BK3 d   1      22.929  17.763  59.305  0.00  0.00     0.075 H 
ATOM     27  H16 BK3 d   1      21.649  19.014  59.145  0.00  0.00     0.075 H 
ATOM     28  H19 BK3 d   1      21.203  17.449  61.055  0.00  0.00     0.036 H 
ATOM     29  H20 BK3 d   1      21.430  19.144  61.605  0.00  0.00     0.036 H 
ATOM     30  H25 BK3 d   1      23.488  16.868  61.733  0.00  0.00     0.042 H 
ENDBRANCH  11  14
ENDBRANCH   7  11
BRANCH   9  31
ATOM     31  CAN BK3 d   1      18.138  15.561  63.677  0.00  0.00     0.003 C 
ATOM     32  H21 BK3 d   1      17.784  16.565  63.401  0.00  0.00     0.049 H 
ATOM     33  H22 BK3 d   1      17.810  14.835  62.919  0.00  0.00     0.049 H 
BRANCH  31  34
ATOM     34  CAU BK3 d   1      17.469  15.184  64.995  0.00  0.00    -0.041 A 
ATOM     35  CAE BK3 d   1      18.249  14.737  66.056  0.00  0.00    -0.076 A 
ATOM     36  CAD BK3 d   1      17.642  14.382  67.267  0.00  0.00    -0.082 A 
ATOM     37  H9  BK3 d   1      19.325  14.664  65.946  0.00  0.00     0.084 H 
ATOM     38  CAH BK3 d   1      16.274  14.472  67.406  0.00  0.00    -0.072 A 
ATOM     39  H8  BK3 d   1      18.249  14.036  68.096  0.00  0.00     0.083 H 
ATOM     40  CAW BK3 d   1      15.488  14.928  66.360  0.00  0.00    -0.025 A 
ATOM     41  H11 BK3 d   1      15.809  14.184  68.342  0.00  0.00     0.084 H 
ATOM     42  CAG BK3 d   1      14.100  15.015  66.518  0.00  0.00    -0.072 A 
ATOM     43  CAX BK3 d   1      16.082  15.284  65.165  0.00  0.00    -0.019 A 
ATOM     44  CAB BK3 d   1      13.299  15.472  65.477  0.00  0.00    -0.082 A 
ATOM     45  H10 BK3 d   1      13.646  14.724  67.459  0.00  0.00     0.084 H 
ATOM     46  CAC BK3 d   1      13.889  15.841  64.266  0.00  0.00    -0.082 A 
ATOM     47  H6  BK3 d   1      12.225  15.541  65.605  0.00  0.00     0.083 H 
ATOM     48  CAI BK3 d   1      15.274  15.745  64.123  0.00  0.00    -0.072 A 
ATOM     49  H7  BK3 d   1      13.277  16.198  63.446  0.00  0.00     0.083 H 
ATOM     50  H12 BK3 d   1      15.732  16.034  63.184  0.00  0.00     0.084 H 
ENDBRANCH  31  34
ENDBRANCH   9  31
BRANCH   6  51
ATOM     51  NAA BK3 d   1      19.410  12.435  63.732  0.00  0.00    -0.383 N 
ATOM     52  H2  BK3 d   1      18.507  12.930  63.752  0.00  0.00     0.157 HD
ATOM     53  H3  BK3 d   1      19.433  11.405  63.743  0.00  0.00     0.157 HD
ENDBRANCH   6  51
TORSDOF 5
