REMARK WARNING: 32 MAX_TORS EXCEEDED!!!
REMARK  41 active torsions:
REMARK  status: ('A' for Active; 'I' for Inactive)
REMARK    1  A    between atoms: N_1  and  CA_2 
REMARK    2  A    between atoms: CA_2  and  C_3 
REMARK    3  A    between atoms: CA_2  and  CB_5 
REMARK       I    between atoms: C_3  and  N_9 
REMARK    4  A    between atoms: CB_5  and  CG_6 
REMARK    5  A    between atoms: CG_6  and  CD1_7 
REMARK    6  A    between atoms: CG_6  and  CD2_8 
REMARK    7  A    between atoms: N_9  and  CA_10 
REMARK    8  A    between atoms: CA_10  and  C_11 
REMARK    9  A    between atoms: CA_10  and  CB_13 
REMARK       I    between atoms: C_11  and  N_15 
REMARK   10  A    between atoms: CB_13  and  OG_14 
REMARK   11  A    between atoms: N_15  and  CA_16 
REMARK   12  A    between atoms: CA_16  and  C_17 
REMARK   13  A    between atoms: CA_16  and  CB_19 
REMARK       I    between atoms: C_17  and  N_21 
REMARK   14  A    between atoms: CB_19  and  SG_20 
REMARK   15  A    between atoms: N_21  and  CA_22 
REMARK   16  A    between atoms: CA_22  and  C_23 
REMARK   17  A    between atoms: CA_22  and  CB_25 
REMARK       I    between atoms: C_23  and  N_30 
REMARK   18  A    between atoms: CB_25  and  CG_26 
REMARK   19  A    between atoms: CG_26  and  CD_27 
REMARK       I    between atoms: CD_27  and  NE2_29 
REMARK   20  A    between atoms: N_30  and  CA_31 
REMARK   21  A    between atoms: CA_31  and  C_32 
REMARK   22  A    between atoms: CA_31  and  CB_34 
REMARK       I    between atoms: C_32  and  N_38 
REMARK   23  A    between atoms: CB_34  and  CG_35 
REMARK   24  A    between atoms: CG_35  and  CD1_36 
REMARK   25  A    between atoms: CG_35  and  CD2_37 
REMARK   26  A    between atoms: N_38  and  CA_39 
REMARK   27  A    between atoms: CA_39  and  C_40 
REMARK   28  A    between atoms: CA_39  and  CB_42 
REMARK       I    between atoms: C_40  and  N_50 
REMARK   29  A    between atoms: CB_42  and  CG_43 
REMARK   30  A    between atoms: CZ_48  and  OH_49 
REMARK   31  A    between atoms: N_50  and  CA_51 
REMARK   32  A    between atoms: CA_51  and  C_52 
REMARK   33  A    between atoms: CA_51  and  CB_54 
REMARK       I    between atoms: C_52  and  N_59 
REMARK   34  A    between atoms: CB_54  and  CG_55 
REMARK   35  A    between atoms: CG_55  and  CD_56 
REMARK       I    between atoms: CD_56  and  NE2_58 
REMARK   36  A    between atoms: N_59  and  CA_60 
REMARK   37  A    between atoms: CA_60  and  C_61 
REMARK   38  A    between atoms: CA_60  and  CB_63 
REMARK   39  A    between atoms: CB_63  and  CG_64 
REMARK   40  A    between atoms: CG_64  and  CD_65 
REMARK   41  A    between atoms: CD_65  and  NE_66 
REMARK       I    between atoms: NE_66  and  CZ_67 
REMARK       I    between atoms: CZ_67  and  NH1_68 
ROOT
ATOM      1  CA  LEU d   1     -32.148  -2.062  12.568  0.00  0.00     0.089 C 
ATOM      2  H33 LEU d   1     -32.223  -2.456  13.592  0.00  0.00     0.087 H 
ENDROOT
BRANCH   1   3
ATOM      3  N   LEU d   1     -33.537  -1.624  12.304  0.00  0.00    -0.346 N 
ATOM      4  C   GLN d   1     -34.002  -0.373  12.343  0.00  0.00     0.241 C 
ATOM      5  O   GLN d   1     -33.301   0.633  12.258  0.00  0.00    -0.271 OA
ATOM      6  H32 LEU d   1     -34.196  -2.340  12.072  0.00  0.00     0.163 HD
BRANCH   4   7
ATOM      7  CA  GLN d   1     -35.534  -0.265  12.419  0.00  0.00     0.090 C 
ATOM      8  H25 GLN d   1     -35.850  -1.317  12.467  0.00  0.00     0.087 H 
BRANCH   7   9
ATOM      9  N   GLN d   1     -36.217   0.321  13.590  0.00  0.00    -0.346 N 
ATOM     10  C   CYS d   1     -36.416   1.615  13.855  0.00  0.00     0.241 C 
ATOM     11  O   CYS d   1     -35.940   2.553  13.197  0.00  0.00    -0.271 OA
ATOM     12  H24 GLN d   1     -36.572  -0.327  14.264  0.00  0.00     0.163 HD
BRANCH  10  13
ATOM     13  CA  CYS d   1     -37.283   1.838  15.119  0.00  0.00     0.097 C 
ATOM     14  H20 CYS d   1     -36.948   1.009  15.760  0.00  0.00     0.088 H 
BRANCH  13  15
ATOM     15  N   CYS d   1     -37.106   2.991  16.042  0.00  0.00    -0.345 N 
ATOM     16  C   SER d   1     -38.101   3.543  16.764  0.00  0.00     0.243 C 
ATOM     17  O   SER d   1     -39.285   3.551  16.428  0.00  0.00    -0.271 OA
ATOM     18  H19 CYS d   1     -36.190   3.382  16.133  0.00  0.00     0.163 HD
BRANCH  16  19
ATOM     19  CA  SER d   1     -37.682   4.183  18.089  0.00  0.00     0.109 C 
ATOM     20  H15 SER d   1     -36.883   4.905  17.868  0.00  0.00     0.090 H 
BRANCH  19  21
ATOM     21  N   SER d   1     -38.722   4.901  18.859  0.00  0.00    -0.344 N 
ATOM     22  C   LEU d   1     -38.450   5.984  19.598  0.00  0.00     0.249 C 
ATOM     23  O   LEU d   1     -37.522   6.747  19.352  0.00  0.00    -0.271 OA
ATOM     24  H14 SER d   1     -39.663   4.565  18.826  0.00  0.00     0.163 HD
BRANCH  22  25
ATOM     25  CA  LEU d   1     -39.389   6.254  20.779  0.00  0.00     0.176 C 
ATOM     26  H4  LEU d   1     -40.426   6.289  20.413  0.00  0.00     0.099 H 
BRANCH  25  27
ATOM     27  N   LEU d   1     -39.226   5.112  21.725  0.00  0.00    -0.066 N 
ATOM     28  H1  LEU d   1     -39.828   5.247  22.522  0.00  0.00     0.275 HD
ATOM     29  H2  LEU d   1     -38.267   5.065  22.032  0.00  0.00     0.275 HD
ATOM     30  H3  LEU d   1     -39.473   4.253  21.260  0.00  0.00     0.275 HD
ENDBRANCH  25  27
BRANCH  25  31
ATOM     31  CB  LEU d   1     -39.082   7.583  21.510  0.00  0.00    -0.028 C 
ATOM     32  H5  LEU d   1     -38.300   7.331  22.241  0.00  0.00     0.037 H 
ATOM     33  H6  LEU d   1     -40.012   7.837  22.040  0.00  0.00     0.037 H 
BRANCH  31  34
ATOM     34  CG  LEU d   1     -38.617   8.900  20.869  0.00  0.00    -0.059 C 
ATOM     35  H7  LEU d   1     -38.234   8.676  19.862  0.00  0.00     0.038 H 
BRANCH  34  36
ATOM     36  CD1 LEU d   1     -39.737   9.908  20.744  0.00  0.00    -0.073 C 
ATOM     37  H8  LEU d   1     -39.352  10.829  20.281  0.00  0.00     0.028 H 
ATOM     38  H9  LEU d   1     -40.136  10.139  21.743  0.00  0.00     0.028 H 
ATOM     39  H10 LEU d   1     -40.538   9.490  20.117  0.00  0.00     0.028 H 
ENDBRANCH  34  36
BRANCH  34  40
ATOM     40  CD2 LEU d   1     -37.498   9.520  21.700  0.00  0.00    -0.073 C 
ATOM     41  H11 LEU d   1     -36.674   8.799  21.801  0.00  0.00     0.028 H 
ATOM     42  H12 LEU d   1     -37.883   9.779  22.697  0.00  0.00     0.028 H 
ATOM     43  H13 LEU d   1     -37.131  10.429  21.201  0.00  0.00     0.028 H 
ENDBRANCH  34  40
ENDBRANCH  31  34
ENDBRANCH  25  31
ENDBRANCH  22  25
ENDBRANCH  19  21
BRANCH  19  44
ATOM     44  CB  SER d   1     -37.122   3.059  18.976  0.00  0.00     0.044 C 
ATOM     45  H16 SER d   1     -36.535   3.507  19.791  0.00  0.00     0.077 H 
ATOM     46  H17 SER d   1     -36.471   2.414  18.367  0.00  0.00     0.077 H 
BRANCH  44  47
ATOM     47  OG  SER d   1     -38.152   2.274  19.532  0.00  0.00    -0.398 OA
ATOM     48  H18 SER d   1     -38.715   2.824  20.064  0.00  0.00     0.209 HD
ENDBRANCH  44  47
ENDBRANCH  19  44
ENDBRANCH  16  19
ENDBRANCH  13  15
BRANCH  13  49
ATOM     49  CB  CYS d   1     -38.744   1.495  14.838  0.00  0.00     0.001 C 
ATOM     50  H21 CYS d   1     -38.788   0.740  14.039  0.00  0.00     0.052 H 
ATOM     51  H22 CYS d   1     -39.270   2.405  14.512  0.00  0.00     0.052 H 
BRANCH  49  52
ATOM     52  SG  CYS d   1     -39.547   0.850  16.289  0.00  0.00    -0.180 SA
ATOM     53  H23 CYS d   1     -40.507   0.634  16.072  0.00  0.00     0.101 HD
ENDBRANCH  49  52
ENDBRANCH  13  49
ENDBRANCH  10  13
ENDBRANCH   7   9
BRANCH   7  54
ATOM     54  CB  GLN d   1     -36.089   0.242  11.091  0.00  0.00    -0.030 C 
ATOM     55  H26 GLN d   1     -35.541   1.150  10.799  0.00  0.00     0.037 H 
ATOM     56  H27 GLN d   1     -37.155   0.481  11.218  0.00  0.00     0.037 H 
BRANCH  54  57
ATOM     57  CG  GLN d   1     -35.946  -0.790   9.994  0.00  0.00     0.011 C 
ATOM     58  H28 GLN d   1     -34.952  -0.676   9.537  0.00  0.00     0.047 H 
ATOM     59  H29 GLN d   1     -36.722  -0.603   9.237  0.00  0.00     0.047 H 
BRANCH  57  60
ATOM     60  CD  GLN d   1     -36.089  -2.232  10.487  0.00  0.00     0.215 C 
ATOM     61  OE1 GLN d   1     -35.093  -2.938  10.695  0.00  0.00    -0.274 OA
ATOM     62  NE2 GLN d   1     -37.329  -2.669  10.677  0.00  0.00    -0.370 N 
ATOM     63  H30 GLN d   1     -37.486  -3.603  10.998  0.00  0.00     0.159 HD
ATOM     64  H31 GLN d   1     -38.105  -2.064  10.499  0.00  0.00     0.159 HD
ENDBRANCH  57  60
ENDBRANCH  54  57
ENDBRANCH   7  54
ENDBRANCH   4   7
ENDBRANCH   1   3
BRANCH   1  65
ATOM     65  C   LEU d   1     -30.952  -1.100  12.681  0.00  0.00     0.241 C 
ATOM     66  O   LEU d   1     -30.918  -0.026  12.074  0.00  0.00    -0.271 OA
ATOM     67  N   TYR d   1     -29.956  -1.576  13.435  0.00  0.00    -0.346 N 
ATOM     68  H43 TYR d   1     -29.960  -2.559  13.618  0.00  0.00     0.163 HD
BRANCH  67  69
ATOM     69  CA  TYR d   1     -28.850  -0.796  14.025  0.00  0.00     0.093 C 
ATOM     70  H44 TYR d   1     -29.293  -0.315  14.909  0.00  0.00     0.088 H 
BRANCH  69  71
ATOM     71  C   TYR d   1     -28.252   0.363  13.222  0.00  0.00     0.241 C 
ATOM     72  O   TYR d   1     -28.000   1.431  13.786  0.00  0.00    -0.271 OA
ATOM     73  N   GLN d   1     -28.015   0.168  11.928  0.00  0.00    -0.346 N 
ATOM     74  H52 GLN d   1     -28.088  -0.749  11.536  0.00  0.00     0.163 HD
BRANCH  73  75
ATOM     75  CA  GLN d   1     -27.647   1.301  11.084  0.00  0.00     0.090 C 
ATOM     76  H53 GLN d   1     -26.964   1.950  11.652  0.00  0.00     0.087 H 
BRANCH  75  77
ATOM     77  C   GLN d   1     -28.917   2.094  10.775  0.00  0.00     0.241 C 
ATOM     78  O   GLN d   1     -29.621   1.810   9.800  0.00  0.00    -0.271 OA
ATOM     79  N   ARG d   1     -29.207   3.071  11.641  0.00  0.00    -0.345 N 
ATOM     80  H60 ARG d   1     -28.556   3.259  12.376  0.00  0.00     0.163 HD
BRANCH  79  81
ATOM     81  CA  ARG d   1     -30.433   3.885  11.572  0.00  0.00     0.096 C 
ATOM     82  H61 ARG d   1     -30.450   4.542  12.454  0.00  0.00     0.089 H 
BRANCH  81  83
ATOM     83  C   ARG d   1     -31.697   3.016  11.612  0.00  0.00     0.196 C 
ATOM     84  O   ARG d   1     -32.795   3.470  12.030  0.00  0.00    -0.646 OA
ATOM     85  O   ARG d   1     -31.635   1.821  11.218  0.00  0.00    -0.646 OA
ENDBRANCH  81  83
BRANCH  81  86
ATOM     86  CB  ARG d   1     -30.421   4.771  10.322  0.00  0.00    -0.035 C 
ATOM     87  H62 ARG d   1     -30.494   4.118   9.440  0.00  0.00     0.036 H 
ATOM     88  H63 ARG d   1     -29.465   5.314  10.298  0.00  0.00     0.036 H 
BRANCH  86  89
ATOM     89  CG  ARG d   1     -31.549   5.795  10.248  0.00  0.00    -0.047 C 
ATOM     90  H64 ARG d   1     -31.237   6.710  10.772  0.00  0.00     0.035 H 
ATOM     91  H65 ARG d   1     -32.443   5.380  10.737  0.00  0.00     0.035 H 
BRANCH  89  92
ATOM     92  CD  ARG d   1     -31.888   6.140   8.809  0.00  0.00     0.009 C 
ATOM     93  H66 ARG d   1     -32.503   7.052   8.801  0.00  0.00     0.064 H 
ATOM     94  H67 ARG d   1     -32.460   5.308   8.373  0.00  0.00     0.064 H 
BRANCH  92  95
ATOM     95  NE  ARG d   1     -30.700   6.370   7.991  0.00  0.00    -0.227 N 
ATOM     96  CZ  ARG d   1     -30.726   6.695   6.700  0.00  0.00     0.665 C 
ATOM     97  NH1 ARG d   1     -31.883   6.834   6.059  0.00  0.00    -0.235 N 
ATOM     98  NH2 ARG d   1     -29.588   6.886   6.046  0.00  0.00    -0.235 N 
ATOM     99  H69 ARG d   1     -31.891   7.086   5.060  0.00  0.00     0.174 HD
ATOM    100  H70 ARG d   1     -32.771   6.690   6.561  0.00  0.00     0.174 HD
ATOM    101  H71 ARG d   1     -28.688   6.780   6.536  0.00  0.00     0.174 HD
ATOM    102  H72 ARG d   1     -29.604   7.140   5.048  0.00  0.00     0.174 HD
ATOM    103  H68 ARG d   1     -29.780   6.274   8.444  0.00  0.00     0.177 HD
ENDBRANCH  92  95
ENDBRANCH  89  92
ENDBRANCH  86  89
ENDBRANCH  81  86
ENDBRANCH  79  81
ENDBRANCH  75  77
BRANCH  75 104
ATOM    104  CB  GLN d   1     -26.909   0.855   9.809  0.00  0.00    -0.030 C 
ATOM    105  H54 GLN d   1     -27.571   0.176   9.251  0.00  0.00     0.037 H 
ATOM    106  H55 GLN d   1     -26.000   0.314  10.112  0.00  0.00     0.037 H 
BRANCH 104 107
ATOM    107  CG  GLN d   1     -26.490   2.004   8.861  0.00  0.00     0.011 C 
ATOM    108  H56 GLN d   1     -27.354   2.269   8.234  0.00  0.00     0.047 H 
ATOM    109  H57 GLN d   1     -25.670   1.645   8.222  0.00  0.00     0.047 H 
BRANCH 107 110
ATOM    110  CD  GLN d   1     -26.018   3.263   9.590  0.00  0.00     0.215 C 
ATOM    111  OE1 GLN d   1     -26.752   4.249   9.684  0.00  0.00    -0.274 OA
ATOM    112  NE2 GLN d   1     -24.797   3.227  10.116  0.00  0.00    -0.370 N 
ATOM    113  H58 GLN d   1     -24.439   4.023  10.604  0.00  0.00     0.159 HD
ATOM    114  H59 GLN d   1     -24.237   2.404  10.024  0.00  0.00     0.159 HD
ENDBRANCH 107 110
ENDBRANCH 104 107
ENDBRANCH  75 104
ENDBRANCH  73  75
ENDBRANCH  69  71
BRANCH  69 115
ATOM    115  CB  TYR d   1     -27.750  -1.737  14.560  0.00  0.00    -0.014 C 
ATOM    116  H45 TYR d   1     -28.231  -2.485  15.208  0.00  0.00     0.043 H 
ATOM    117  H46 TYR d   1     -27.049  -1.133  15.155  0.00  0.00     0.043 H 
BRANCH 115 118
ATOM    118  CG  TYR d   1     -26.947  -2.480  13.509  0.00  0.00    -0.056 A 
ATOM    119  CD1 TYR d   1     -25.592  -2.193  13.313  0.00  0.00    -0.074 A 
ATOM    120  CE1 TYR d   1     -24.839  -2.873  12.356  0.00  0.00    -0.051 A 
ATOM    121  H47 TYR d   1     -25.118  -1.427  13.916  0.00  0.00     0.084 H 
ATOM    122  CZ  TYR d   1     -25.443  -3.854  11.585  0.00  0.00     0.065 A 
ATOM    123  H49 TYR d   1     -23.790  -2.636  12.216  0.00  0.00     0.087 H 
ATOM    124  CE2 TYR d   1     -26.784  -4.165  11.761  0.00  0.00    -0.051 A 
ATOM    125  CD2 TYR d   1     -27.528  -3.480  12.724  0.00  0.00    -0.074 A 
ATOM    126  H50 TYR d   1     -27.250  -4.934  11.156  0.00  0.00     0.087 H 
ATOM    127  H48 TYR d   1     -28.574  -3.728  12.865  0.00  0.00     0.084 H 
BRANCH 122 128
ATOM    128  OH  TYR d   1     -24.702  -4.522  10.641  0.00  0.00    -0.361 OA
ATOM    129  H51 TYR d   1     -23.811  -4.192  10.648  0.00  0.00     0.217 HD
ENDBRANCH 122 128
ENDBRANCH 115 118
ENDBRANCH  69 115
ENDBRANCH  67  69
ENDBRANCH   1  65
BRANCH   1 130
ATOM    130  CB  LEU d   1     -31.788  -3.284  11.708  0.00  0.00    -0.035 C 
ATOM    131  H34 LEU d   1     -30.755  -3.139  11.359  0.00  0.00     0.037 H 
ATOM    132  H35 LEU d   1     -32.470  -3.283  10.845  0.00  0.00     0.037 H 
BRANCH 130 133
ATOM    133  CG  LEU d   1     -31.858  -4.691  12.336  0.00  0.00    -0.059 C 
ATOM    134  H36 LEU d   1     -31.846  -5.397  11.493  0.00  0.00     0.038 H 
BRANCH 133 135
ATOM    135  CD1 LEU d   1     -30.631  -5.020  13.197  0.00  0.00    -0.073 C 
ATOM    136  H37 LEU d   1     -30.738  -6.031  13.616  0.00  0.00     0.028 H 
ATOM    137  H38 LEU d   1     -30.552  -4.290  14.016  0.00  0.00     0.028 H 
ATOM    138  H39 LEU d   1     -29.724  -4.974  12.576  0.00  0.00     0.028 H 
ENDBRANCH 133 135
BRANCH 133 139
ATOM    139  CD2 LEU d   1     -33.154  -4.965  13.105  0.00  0.00    -0.073 C 
ATOM    140  H40 LEU d   1     -34.017  -4.722  12.468  0.00  0.00     0.028 H 
ATOM    141  H41 LEU d   1     -33.181  -4.343  14.012  0.00  0.00     0.028 H 
ATOM    142  H42 LEU d   1     -33.195  -6.027  13.388  0.00  0.00     0.028 H 
ENDBRANCH 133 139
ENDBRANCH 130 133
ENDBRANCH   1 130
TORSDOF 41
