REMARK  3 active torsions:
REMARK  status: ('A' for Active; 'I' for Inactive)
REMARK    1  A    between atoms: C6_5  and  C22_16 
REMARK    2  A    between atoms: C7_6  and  C15_12 
REMARK    3  A    between atoms: C15_12  and  C18_13 
ROOT
ATOM      1 CL1  GO0 d   1       0.695  77.234  29.247  0.00  0.00    -0.082 Cl
ATOM      2  C2  GO0 d   1       2.408  77.490  29.149  0.00  0.00     0.061 A 
ATOM      3  C3  GO0 d   1       3.251  76.374  29.146  0.00  0.00     0.067 A 
ATOM      4  N4  GO0 d   1       2.888  75.078  29.256  0.00  0.00    -0.348 N 
ATOM      5  C6  GO0 d   1       3.950  74.295  29.208  0.00  0.00     0.118 A 
ATOM      6  C7  GO0 d   1       5.062  75.079  29.036  0.00  0.00    -0.000 A 
ATOM      7  C8  GO0 d   1       4.594  76.507  29.026  0.00  0.00     0.023 A 
ATOM      8  C9  GO0 d   1       5.186  77.768  28.925  0.00  0.00     0.047 A 
ATOM      9  C10 GO0 d   1       4.370  78.929  28.958  0.00  0.00    -0.059 A 
ATOM     10  C12 GO0 d   1       2.971  78.791  29.071  0.00  0.00    -0.058 A 
ATOM     11 CL14 GO0 d   1       6.875  77.922  28.744  0.00  0.00    -0.083 Cl
ATOM     12  H1  GO0 d   1       1.919  74.747  29.362  0.00  0.00     0.166 HD
ATOM     13  H2  GO0 d   1       4.819  79.914  28.897  0.00  0.00     0.086 H 
ATOM     14  H3  GO0 d   1       2.333  79.667  29.098  0.00  0.00     0.086 H 
ENDROOT
BRANCH   6  15
ATOM     15  C15 GO0 d   1       6.504  74.650  28.883  0.00  0.00     0.043 C 
ATOM     16  H4  GO0 d   1       6.626  73.631  29.280  0.00  0.00     0.056 H 
ATOM     17  H5  GO0 d   1       7.152  75.341  29.442  0.00  0.00     0.056 H 
BRANCH  15  18
ATOM     18  C18 GO0 d   1       6.898  74.669  27.403  0.00  0.00     0.177 C 
ATOM     19  O19 GO0 d   1       6.117  74.908  26.487  0.00  0.00    -0.648 OA
ATOM     20  O20 GO0 d   1       8.177  74.401  27.145  0.00  0.00    -0.648 OA
ENDBRANCH  15  18
ENDBRANCH   6  15
BRANCH   5  21
ATOM     21  C22 GO0 d   1       3.811  72.955  29.320  0.00  0.00     0.227 C 
ATOM     22  O23 GO0 d   1       4.778  72.202  29.293  0.00  0.00    -0.643 OA
ATOM     23  O24 GO0 d   1       2.582  72.429  29.450  0.00  0.00    -0.643 OA
ENDBRANCH   5  21
TORSDOF 3
