REMARK  3 active torsions:
REMARK  status: ('A' for Active; 'I' for Inactive)
REMARK    1  A    between atoms: C6_5  and  C22_16 
REMARK    2  A    between atoms: C7_6  and  C15_12 
REMARK    3  A    between atoms: C15_12  and  C18_13 
ROOT
ATOM      1 CL1  GO1 d   1       1.397  75.398  29.718  0.00  0.00    -0.082 Cl
ATOM      2  C2  GO1 d   1       2.978  75.905  29.320  0.00  0.00     0.063 A 
ATOM      3  C3  GO1 d   1       4.017  75.009  29.135  0.00  0.00     0.066 A 
ATOM      4  N4  GO1 d   1       3.959  73.670  29.216  0.00  0.00    -0.348 N 
ATOM      5  C6  GO1 d   1       5.159  73.146  28.991  0.00  0.00     0.118 A 
ATOM      6  C7  GO1 d   1       6.045  74.160  28.738  0.00  0.00    -0.002 A 
ATOM      7  C8  GO1 d   1       5.282  75.449  28.836  0.00  0.00     0.003 A 
ATOM      8  C9  GO1 d   1       5.589  76.825  28.686  0.00  0.00    -0.049 A 
ATOM      9  C11 GO1 d   1       4.498  77.725  28.860  0.00  0.00     0.036 A 
ATOM     10  C12 GO1 d   1       3.226  77.264  29.190  0.00  0.00    -0.039 A 
ATOM     11 CL14 GO1 d   1       4.609  79.461  28.697  0.00  0.00    -0.084 Cl
ATOM     12  H1  GO1 d   1       3.108  73.128  29.422  0.00  0.00     0.166 HD
ATOM     13  H2  GO1 d   1       6.590  77.170  28.454  0.00  0.00     0.087 H 
ATOM     14  H3  GO1 d   1       2.422  77.974  29.347  0.00  0.00     0.088 H 
ENDROOT
BRANCH   6  15
ATOM     15  C15 GO1 d   1       7.519  74.044  28.407  0.00  0.00     0.043 C 
ATOM     16  H4  GO1 d   1       7.809  72.983  28.389  0.00  0.00     0.056 H 
ATOM     17  H5  GO1 d   1       8.109  74.573  29.170  0.00  0.00     0.056 H 
BRANCH  15  18
ATOM     18  C18 GO1 d   1       7.777  74.658  27.058  0.00  0.00     0.177 C 
ATOM     19  O19 GO1 d   1       6.905  74.721  26.200  0.00  0.00    -0.648 OA
ATOM     20  O20 GO1 d   1       9.020  75.121  26.863  0.00  0.00    -0.648 OA
ENDBRANCH  15  18
ENDBRANCH   6  15
BRANCH   5  21
ATOM     21  C22 GO1 d   1       5.410  71.815  29.014  0.00  0.00     0.227 C 
ATOM     22  O23 GO1 d   1       6.552  71.387  28.930  0.00  0.00    -0.643 OA
ATOM     23  O24 GO1 d   1       4.393  70.948  29.121  0.00  0.00    -0.643 OA
ENDBRANCH   5  21
TORSDOF 3
