REMARK  29 active torsions:
REMARK  status: ('A' for Active; 'I' for Inactive)
REMARK    1  A    between atoms: C34_1  and  C11_2 
REMARK    2  A    between atoms: C11_2  and  O11_46 
REMARK    3  A    between atoms: C7_3  and  O6_45 
REMARK    4  A    between atoms: C8_4  and  O7_39 
REMARK    5  A    between atoms: C10_6  and  C31_34 
REMARK    6  A    between atoms: C10_6  and  O9_35 
REMARK    7  A    between atoms: C2_8  and  O1_9 
REMARK    8  A    between atoms: O1_9  and  C13_10 
REMARK    9  A    between atoms: C13_10  and  C14_12 
REMARK   10  A    between atoms: C14_12  and  C15_13 
REMARK   11  A    between atoms: C15_13  and  C16_14 
REMARK   12  A    between atoms: C16_14  and  C17_15 
REMARK   13  A    between atoms: C17_15  and  C18_16 
REMARK   14  A    between atoms: C18_16  and  C19_17 
REMARK   15  A    between atoms: C19_17  and  C20_18 
REMARK   16  A    between atoms: C3_19  and  O3_20 
REMARK   17  A    between atoms: O3_20  and  C21_21 
REMARK   18  A    between atoms: C21_21  and  C22_23 
REMARK   19  A    between atoms: C22_23  and  C23_24 
REMARK   20  A    between atoms: C22_23  and  C24_25 
REMARK   21  A    between atoms: C24_25  and  C25_26 
REMARK   22  A    between atoms: C4_27  and  C26_28 
REMARK   23  A    between atoms: C12_32  and  O12_33 
REMARK   24  A    between atoms: O9_35  and  C32_36 
REMARK   25  A    between atoms: C32_36  and  C33_38 
REMARK   26  A    between atoms: O7_39  and  C27_40 
REMARK   27  A    between atoms: C27_40  and  C28_42 
REMARK   28  A    between atoms: C28_42  and  C29_43 
REMARK   29  A    between atoms: C29_43  and  C30_44 
ROOT
ATOM      1  C11 TG1 d   1      35.033  72.974  16.911  0.00  0.00     0.139 C 
ATOM      2  C7  TG1 d   1      35.317  73.788  15.584  0.00  0.00     0.146 C 
ATOM      3  C8  TG1 d   1      36.755  74.274  15.361  0.00  0.00     0.086 C 
ATOM      4  C9  TG1 d   1      36.890  75.232  14.159  0.00  0.00    -0.008 C 
ATOM      5  C10 TG1 d   1      36.434  74.819  12.734  0.00  0.00     0.076 C 
ATOM      6  C1  TG1 d   1      34.932  74.575  12.542  0.00  0.00     0.011 C 
ATOM      7  C2  TG1 d   1      34.516  74.474  11.041  0.00  0.00     0.080 C 
ATOM      8  C3  TG1 d   1      33.825  73.092  10.796  0.00  0.00     0.077 C 
ATOM      9  C4  TG1 d   1      33.490  72.544  12.206  0.00  0.00    -0.023 C 
ATOM     10  C5  TG1 d   1      34.233  73.403  13.253  0.00  0.00    -0.012 C 
ATOM     11  C6  TG1 d   1      34.737  72.773  14.558  0.00  0.00     0.081 C 
ATOM     12  O5  TG1 d   1      33.546  72.331  15.215  0.00  0.00    -0.349 OA
ATOM     13  C12 TG1 d   1      33.533  72.731  16.564  0.00  0.00     0.161 C 
ATOM     14  H4  TG1 d   1      37.066  74.827  16.260  0.00  0.00     0.089 H 
ATOM     15  H5  TG1 d   1      37.958  75.483  14.082  0.00  0.00     0.041 H 
ATOM     16  H6  TG1 d   1      36.318  76.136  14.417  0.00  0.00     0.041 H 
ATOM     17  H7  TG1 d   1      34.460  75.484  12.944  0.00  0.00     0.049 H 
ATOM     18  H8  TG1 d   1      35.389  74.616  10.387  0.00  0.00     0.089 H 
ATOM     19  H24 TG1 d   1      32.888  73.222  10.235  0.00  0.00     0.088 H 
ATOM     20  H34 TG1 d   1      32.451  72.872  12.354  0.00  0.00     0.044 H 
ATOM     21  H38 TG1 d   1      33.381  73.947  13.687  0.00  0.00     0.045 H 
ATOM     22  H39 TG1 d   1      35.451  71.962  14.352  0.00  0.00     0.089 H 
ATOM     23  H40 TG1 d   1      32.927  73.634  16.732  0.00  0.00     0.133 H 
ENDROOT
BRANCH   7  24
ATOM     24  O1  TG1 d   1      33.491  75.419  10.760  0.00  0.00    -0.313 OA
BRANCH  24  25
ATOM     25  C13 TG1 d   1      33.691  76.227   9.667  0.00  0.00     0.259 C 
ATOM     26  O2  TG1 d   1      34.560  77.073   9.706  0.00  0.00    -0.265 OA
BRANCH  25  27
ATOM     27  C14 TG1 d   1      32.772  75.954   8.502  0.00  0.00     0.016 C 
ATOM     28  H9  TG1 d   1      31.984  76.721   8.482  0.00  0.00     0.048 H 
ATOM     29  H10 TG1 d   1      32.315  74.962   8.633  0.00  0.00     0.048 H 
BRANCH  27  30
ATOM     30  C15 TG1 d   1      33.531  75.982   7.162  0.00  0.00    -0.057 C 
ATOM     31  H11 TG1 d   1      34.544  75.595   7.346  0.00  0.00     0.033 H 
ATOM     32  H12 TG1 d   1      33.593  77.031   6.837  0.00  0.00     0.033 H 
BRANCH  30  33
ATOM     33  C16 TG1 d   1      32.928  75.172   6.003  0.00  0.00    -0.065 C 
ATOM     34  H13 TG1 d   1      33.141  74.107   6.175  0.00  0.00     0.033 H 
ATOM     35  H14 TG1 d   1      33.406  75.495   5.066  0.00  0.00     0.033 H 
BRANCH  33  36
ATOM     36  C17 TG1 d   1      31.406  75.348   5.860  0.00  0.00    -0.065 C 
ATOM     37  H15 TG1 d   1      31.099  76.187   6.501  0.00  0.00     0.033 H 
ATOM     38  H16 TG1 d   1      30.922  74.424   6.209  0.00  0.00     0.033 H 
BRANCH  36  39
ATOM     39  C18 TG1 d   1      30.912  75.633   4.439  0.00  0.00    -0.065 C 
ATOM     40  H17 TG1 d   1      30.198  76.469   4.481  0.00  0.00     0.033 H 
ATOM     41  H18 TG1 d   1      30.402  74.734   4.063  0.00  0.00     0.033 H 
BRANCH  39  42
ATOM     42  C19 TG1 d   1      32.028  76.001   3.457  0.00  0.00    -0.069 C 
ATOM     43  H19 TG1 d   1      32.961  75.519   3.784  0.00  0.00     0.032 H 
ATOM     44  H20 TG1 d   1      32.158  77.093   3.461  0.00  0.00     0.032 H 
BRANCH  42  45
ATOM     45  C20 TG1 d   1      31.715  75.551   2.042  0.00  0.00    -0.077 C 
ATOM     46  H21 TG1 d   1      32.542  75.836   1.375  0.00  0.00     0.027 H 
ATOM     47  H22 TG1 d   1      30.787  76.032   1.701  0.00  0.00     0.027 H 
ATOM     48  H23 TG1 d   1      31.590  74.458   2.024  0.00  0.00     0.027 H 
ENDBRANCH  42  45
ENDBRANCH  39  42
ENDBRANCH  36  39
ENDBRANCH  33  36
ENDBRANCH  30  33
ENDBRANCH  27  30
ENDBRANCH  25  27
ENDBRANCH  24  25
ENDBRANCH   7  24
BRANCH   8  49
ATOM     49  O3  TG1 d   1      34.706  72.311  10.018  0.00  0.00    -0.313 OA
BRANCH  49  50
ATOM     50  C21 TG1 d   1      34.233  71.964   8.762  0.00  0.00     0.263 C 
ATOM     51  O4  TG1 d   1      33.259  71.244   8.741  0.00  0.00    -0.265 OA
BRANCH  50  52
ATOM     52  C22 TG1 d   1      35.118  72.323   7.590  0.00  0.00     0.026 C 
ATOM     53  H25 TG1 d   1      35.483  73.348   7.752  0.00  0.00     0.054 H 
BRANCH  52  54
ATOM     54  C23 TG1 d   1      34.264  72.277   6.315  0.00  0.00    -0.064 C 
ATOM     55  H26 TG1 d   1      34.888  72.535   5.447  0.00  0.00     0.028 H 
ATOM     56  H27 TG1 d   1      33.438  72.998   6.401  0.00  0.00     0.028 H 
ATOM     57  H28 TG1 d   1      33.855  71.264   6.184  0.00  0.00     0.028 H 
ENDBRANCH  52  54
BRANCH  52  58
ATOM     58  C24 TG1 d   1      36.336  71.426   7.342  0.00  0.00    -0.057 C 
ATOM     59  H29 TG1 d   1      36.992  71.946   6.628  0.00  0.00     0.033 H 
ATOM     60  H30 TG1 d   1      35.973  70.490   6.892  0.00  0.00     0.033 H 
BRANCH  58  61
ATOM     61  C25 TG1 d   1      37.173  71.058   8.545  0.00  0.00    -0.076 C 
ATOM     62  H31 TG1 d   1      38.008  70.416   8.228  0.00  0.00     0.027 H 
ATOM     63  H32 TG1 d   1      36.551  70.517   9.273  0.00  0.00     0.027 H 
ATOM     64  H33 TG1 d   1      37.569  71.973   9.010  0.00  0.00     0.027 H 
ENDBRANCH  58  61
ENDBRANCH  52  58
ENDBRANCH  50  52
ENDBRANCH  49  50
ENDBRANCH   8  49
BRANCH   5  65
ATOM     65  C31 TG1 d   1      37.307  73.686  12.175  0.00  0.00    -0.046 C 
ATOM     66  H42 TG1 d   1      38.368  73.923  12.345  0.00  0.00     0.031 H 
ATOM     67  H43 TG1 d   1      37.123  73.580  11.096  0.00  0.00     0.031 H 
ATOM     68  H44 TG1 d   1      37.056  72.744  12.684  0.00  0.00     0.031 H 
ENDBRANCH   5  65
BRANCH   5  69
ATOM     69  O9  TG1 d   1      36.833  75.873  11.861  0.00  0.00    -0.310 OA
BRANCH  69  70
ATOM     70  C32 TG1 d   1      37.648  76.943  11.957  0.00  0.00     0.255 C 
ATOM     71  O10 TG1 d   1      37.332  77.994  11.427  0.00  0.00    -0.266 OA
BRANCH  70  72
ATOM     72  C33 TG1 d   1      39.051  76.412  12.084  0.00  0.00     0.004 C 
ATOM     73  H45 TG1 d   1      39.755  77.253  12.166  0.00  0.00     0.041 H 
ATOM     74  H46 TG1 d   1      39.298  75.812  11.196  0.00  0.00     0.041 H 
ATOM     75  H47 TG1 d   1      39.125  75.783  12.983  0.00  0.00     0.041 H 
ENDBRANCH  70  72
ENDBRANCH  69  70
ENDBRANCH   5  69
BRANCH   9  76
ATOM     76  C26 TG1 d   1      33.308  71.041  12.330  0.00  0.00    -0.070 C 
ATOM     77  H35 TG1 d   1      33.076  70.785  13.374  0.00  0.00     0.028 H 
ATOM     78  H36 TG1 d   1      34.235  70.533  12.025  0.00  0.00     0.028 H 
ATOM     79  H37 TG1 d   1      32.482  70.717  11.680  0.00  0.00     0.028 H 
ENDBRANCH   9  76
BRANCH   3  80
ATOM     80  O7  TG1 d   1      37.601  73.159  15.215  0.00  0.00    -0.313 OA
BRANCH  80  81
ATOM     81  C27 TG1 d   1      38.450  72.874  16.257  0.00  0.00     0.259 C 
ATOM     82  O8  TG1 d   1      38.502  73.611  17.231  0.00  0.00    -0.265 OA
BRANCH  81  83
ATOM     83  C28 TG1 d   1      39.192  71.579  16.069  0.00  0.00     0.015 C 
ATOM     84  H48 TG1 d   1      40.274  71.776  16.083  0.00  0.00     0.048 H 
ATOM     85  H49 TG1 d   1      38.912  71.138  15.101  0.00  0.00     0.048 H 
BRANCH  83  86
ATOM     86  C29 TG1 d   1      38.843  70.596  17.191  0.00  0.00    -0.060 C 
ATOM     87  H50 TG1 d   1      37.807  70.251  17.061  0.00  0.00     0.033 H 
ATOM     88  H51 TG1 d   1      38.941  71.104  18.162  0.00  0.00     0.033 H 
BRANCH  86  89
ATOM     89  C30 TG1 d   1      39.778  69.398  17.156  0.00  0.00    -0.076 C 
ATOM     90  H52 TG1 d   1      39.514  68.703  17.967  0.00  0.00     0.027 H 
ATOM     91  H53 TG1 d   1      40.816  69.739  17.288  0.00  0.00     0.027 H 
ATOM     92  H54 TG1 d   1      39.681  68.885  16.188  0.00  0.00     0.027 H 
ENDBRANCH  86  89
ENDBRANCH  83  86
ENDBRANCH  81  83
ENDBRANCH  80  81
ENDBRANCH   3  80
BRANCH   2  93
ATOM     93  O6  TG1 d   1      34.451  74.888  15.576  0.00  0.00    -0.381 OA
ATOM     94  H55 TG1 d   1      34.696  75.488  16.271  0.00  0.00     0.211 HD
ENDBRANCH   2  93
BRANCH   1  95
ATOM     95  C34 TG1 d   1      35.215  73.713  18.237  0.00  0.00    -0.040 C 
ATOM     96  H1  TG1 d   1      34.986  73.033  19.070  0.00  0.00     0.032 H 
ATOM     97  H2  TG1 d   1      34.535  74.577  18.272  0.00  0.00     0.032 H 
ATOM     98  H3  TG1 d   1      36.255  74.061  18.323  0.00  0.00     0.032 H 
ENDBRANCH   1  95
BRANCH   1  99
ATOM     99  O11 TG1 d   1      35.793  71.807  16.841  0.00  0.00    -0.382 OA
ATOM    100  H56 TG1 d   1      35.649  71.289  17.624  0.00  0.00     0.210 HD
ENDBRANCH   1  99
BRANCH  13 101
ATOM    101  O12 TG1 d   1      33.039  71.659  17.270  0.00  0.00    -0.368 OA
ATOM    102  H41 TG1 d   1      33.605  70.907  17.139  0.00  0.00     0.212 HD
ENDBRANCH  13 101
TORSDOF 29
