REMARK WARNING: 32 MAX_TORS EXCEEDED!!!
REMARK  40 active torsions:
REMARK  status: ('A' for Active; 'I' for Inactive)
REMARK    1  A    between atoms: N_1  and  CA_2 
REMARK    2  A    between atoms: CA_2  and  C_3 
REMARK    3  A    between atoms: CA_2  and  CB_5 
REMARK       I    between atoms: C_3  and  N_10 
REMARK    4  A    between atoms: CB_5  and  CG_6 
REMARK    5  A    between atoms: CG_6  and  CD_7 
REMARK    6  A    between atoms: CD_7  and  CE_8 
REMARK    7  A    between atoms: CE_8  and  NZ_9 
REMARK    8  A    between atoms: N_10  and  CA_11 
REMARK    9  A    between atoms: CA_11  and  C_12 
REMARK   10  A    between atoms: CA_11  and  CB_14 
REMARK       I    between atoms: C_12  and  N_19 
REMARK   11  A    between atoms: CB_14  and  CG_15 
REMARK   12  A    between atoms: CG_15  and  CD_16 
REMARK   13  A    between atoms: CD_16  and  CE_17 
REMARK   14  A    between atoms: CE_17  and  NZ_18 
REMARK   15  A    between atoms: N_19  and  CA_20 
REMARK   16  A    between atoms: CA_20  and  C_21 
REMARK   17  A    between atoms: CA_20  and  CB_23 
REMARK       I    between atoms: C_21  and  N_27 
REMARK   18  A    between atoms: CB_23  and  CG_24 
REMARK   19  A    between atoms: CG_24  and  CD1_25 
REMARK   20  A    between atoms: CG_24  and  CD2_26 
REMARK   21  A    between atoms: N_27  and  CA_28 
REMARK   22  A    between atoms: CA_28  and  C_29 
REMARK   23  A    between atoms: CA_28  and  CB_31 
REMARK       I    between atoms: C_29  and  N_38 
REMARK   24  A    between atoms: CB_31  and  CG_32 
REMARK   25  A    between atoms: CG_32  and  CD_33 
REMARK   26  A    between atoms: CD_33  and  NE_34 
REMARK       I    between atoms: NE_34  and  CZ_35 
REMARK       I    between atoms: CZ_35  and  NH1_36 
REMARK   27  A    between atoms: N_38  and  CA_39 
REMARK   28  A    between atoms: CA_39  and  C_40 
REMARK   29  A    between atoms: CA_39  and  CB_42 
REMARK       I    between atoms: C_40  and  N_49 
REMARK   30  A    between atoms: CB_42  and  CG_43 
REMARK   31  A    between atoms: N_49  and  CA_50 
REMARK   32  A    between atoms: CA_50  and  C_51 
REMARK   33  A    between atoms: CA_50  and  CB_53 
REMARK       I    between atoms: C_51  and  N_57 
REMARK   34  A    between atoms: CB_53  and  CG_54 
REMARK   35  A    between atoms: N_57  and  CA_58 
REMARK   36  A    between atoms: CA_58  and  C_59 
REMARK   37  A    between atoms: CA_58  and  CB_61 
REMARK   38  A    between atoms: CB_61  and  CG1_62 
REMARK   39  A    between atoms: CB_61  and  CG2_63 
REMARK   40  A    between atoms: CG1_62  and  CD1_64 
ROOT
ATOM      1  CA  ARG d   1      19.212  23.433   5.331  0.00  0.00     0.089 C 
ATOM      2  H41 ARG d   1      19.785  22.887   4.568  0.00  0.00     0.087 H 
ENDROOT
BRANCH   1   3
ATOM      3  N   ARG d   1      18.497  22.438   6.139  0.00  0.00    -0.346 N 
ATOM      4  C   LEU d   1      17.896  21.371   5.612  0.00  0.00     0.241 C 
ATOM      5  O   LEU d   1      17.787  21.181   4.401  0.00  0.00    -0.271 OA
ATOM      6  H40 ARG d   1      18.459  22.566   7.130  0.00  0.00     0.163 HD
BRANCH   4   7
ATOM      7  CA  LEU d   1      17.357  20.352   6.613  0.00  0.00     0.089 C 
ATOM      8  H30 LEU d   1      17.518  20.783   7.612  0.00  0.00     0.087 H 
BRANCH   7   9
ATOM      9  N   LEU d   1      15.927  20.051   6.522  0.00  0.00    -0.346 N 
ATOM     10  C   LYS d   1      15.029  20.913   6.958  0.00  0.00     0.241 C 
ATOM     11  O   LYS d   1      15.250  22.097   7.079  0.00  0.00    -0.271 OA
ATOM     12  H29 LEU d   1      15.628  19.183   6.125  0.00  0.00     0.163 HD
BRANCH  10  13
ATOM     13  CA  LYS d   1      13.688  20.322   7.274  0.00  0.00     0.089 C 
ATOM     14  H17 LYS d   1      13.806  19.631   8.121  0.00  0.00     0.087 H 
BRANCH  13  15
ATOM     15  N   LYS d   1      12.724  21.326   7.676  0.00  0.00    -0.346 N 
ATOM     16  C   LYS d   1      11.736  21.063   8.522  0.00  0.00     0.248 C 
ATOM     17  O   LYS d   1      11.533  19.942   8.972  0.00  0.00    -0.271 OA
ATOM     18  H16 LYS d   1      12.806  22.250   7.303  0.00  0.00     0.163 HD
BRANCH  16  19
ATOM     19  CA  LYS d   1      10.836  22.245   8.927  0.00  0.00     0.176 C 
ATOM     20  H4  LYS d   1      11.280  22.688   9.831  0.00  0.00     0.099 H 
BRANCH  19  21
ATOM     21  N   LYS d   1      10.731  23.304   7.940  0.00  0.00    -0.067 N 
ATOM     22  H1  LYS d   1      10.126  24.030   8.290  0.00  0.00     0.275 HD
ATOM     23  H2  LYS d   1      10.349  22.930   7.085  0.00  0.00     0.275 HD
ATOM     24  H3  LYS d   1      11.646  23.687   7.760  0.00  0.00     0.275 HD
ENDBRANCH  19  21
BRANCH  19  25
ATOM     25  CB  LYS d   1       9.443  21.757   9.280  0.00  0.00    -0.030 C 
ATOM     26  H5  LYS d   1       9.492  21.255  10.257  0.00  0.00     0.036 H 
ATOM     27  H6  LYS d   1       9.126  21.036   8.512  0.00  0.00     0.036 H 
BRANCH  25  28
ATOM     28  CG  LYS d   1       8.391  22.862   9.362  0.00  0.00    -0.061 C 
ATOM     29  H7  LYS d   1       8.233  23.285   8.359  0.00  0.00     0.033 H 
ATOM     30  H8  LYS d   1       8.749  23.651  10.040  0.00  0.00     0.033 H 
BRANCH  28  31
ATOM     31  CD  LYS d   1       7.061  22.310   9.890  0.00  0.00    -0.043 C 
ATOM     32  H9  LYS d   1       7.224  21.899  10.897  0.00  0.00     0.035 H 
ATOM     33  H10 LYS d   1       6.719  21.509   9.218  0.00  0.00     0.035 H 
BRANCH  31  34
ATOM     34  CE  LYS d   1       5.990  23.367   9.966  0.00  0.00     0.080 C 
ATOM     35  H11 LYS d   1       5.372  23.311   9.058  0.00  0.00     0.075 H 
ATOM     36  H12 LYS d   1       6.470  24.355  10.023  0.00  0.00     0.075 H 
BRANCH  34  37
ATOM     37  NZ  LYS d   1       5.114  23.191  11.154  0.00  0.00    -0.079 N 
ATOM     38  H13 LYS d   1       4.414  23.916  11.166  0.00  0.00     0.274 HD
ATOM     39  H14 LYS d   1       5.670  23.247  11.993  0.00  0.00     0.274 HD
ATOM     40  H15 LYS d   1       4.663  22.290  11.109  0.00  0.00     0.274 HD
ENDBRANCH  34  37
ENDBRANCH  31  34
ENDBRANCH  28  31
ENDBRANCH  25  28
ENDBRANCH  19  25
ENDBRANCH  16  19
ENDBRANCH  13  15
BRANCH  13  41
ATOM     41  CB  LYS d   1      13.259  19.514   6.065  0.00  0.00    -0.038 C 
ATOM     42  H18 LYS d   1      12.931  20.201   5.271  0.00  0.00     0.036 H 
ATOM     43  H19 LYS d   1      12.424  18.858   6.350  0.00  0.00     0.036 H 
BRANCH  41  44
ATOM     44  CG  LYS d   1      14.417  18.652   5.536  0.00  0.00    -0.061 C 
ATOM     45  H20 LYS d   1      14.585  17.822   6.238  0.00  0.00     0.033 H 
ATOM     46  H21 LYS d   1      15.322  19.275   5.482  0.00  0.00     0.033 H 
BRANCH  44  47
ATOM     47  CD  LYS d   1      14.145  18.073   4.156  0.00  0.00    -0.043 C 
ATOM     48  H22 LYS d   1      15.072  17.621   3.773  0.00  0.00     0.035 H 
ATOM     49  H23 LYS d   1      13.830  18.887   3.487  0.00  0.00     0.035 H 
BRANCH  47  50
ATOM     50  CE  LYS d   1      13.042  16.996   4.180  0.00  0.00     0.080 C 
ATOM     51  H24 LYS d   1      12.072  17.502   4.295  0.00  0.00     0.075 H 
ATOM     52  H25 LYS d   1      13.220  16.343   5.047  0.00  0.00     0.075 H 
BRANCH  50  53
ATOM     53  NZ  LYS d   1      12.977  16.135   2.954  0.00  0.00    -0.079 N 
ATOM     54  H26 LYS d   1      12.232  15.463   3.054  0.00  0.00     0.274 HD
ATOM     55  H27 LYS d   1      13.853  15.651   2.837  0.00  0.00     0.274 HD
ATOM     56  H28 LYS d   1      12.802  16.712   2.147  0.00  0.00     0.274 HD
ENDBRANCH  50  53
ENDBRANCH  47  50
ENDBRANCH  44  47
ENDBRANCH  41  44
ENDBRANCH  13  41
ENDBRANCH  10  13
ENDBRANCH   7   9
BRANCH   7  57
ATOM     57  CB  LEU d   1      18.180  19.060   6.529  0.00  0.00    -0.035 C 
ATOM     58  H31 LEU d   1      18.494  18.923   5.484  0.00  0.00     0.037 H 
ATOM     59  H32 LEU d   1      17.533  18.223   6.830  0.00  0.00     0.037 H 
BRANCH  57  60
ATOM     60  CG  LEU d   1      19.436  19.031   7.410  0.00  0.00    -0.059 C 
ATOM     61  H33 LEU d   1      19.144  19.382   8.411  0.00  0.00     0.038 H 
BRANCH  60  62
ATOM     62  CD1 LEU d   1      19.969  17.612   7.555  0.00  0.00    -0.073 C 
ATOM     63  H34 LEU d   1      20.867  17.621   8.190  0.00  0.00     0.028 H 
ATOM     64  H35 LEU d   1      20.226  17.213   6.562  0.00  0.00     0.028 H 
ATOM     65  H36 LEU d   1      19.199  16.977   8.018  0.00  0.00     0.028 H 
ENDBRANCH  60  62
BRANCH  60  66
ATOM     66  CD2 LEU d   1      20.522  19.971   6.895  0.00  0.00    -0.073 C 
ATOM     67  H37 LEU d   1      20.112  20.987   6.799  0.00  0.00     0.028 H 
ATOM     68  H38 LEU d   1      20.872  19.623   5.912  0.00  0.00     0.028 H 
ATOM     69  H39 LEU d   1      21.364  19.980   7.602  0.00  0.00     0.028 H 
ENDBRANCH  60  66
ENDBRANCH  57  60
ENDBRANCH   7  57
ENDBRANCH   4   7
ENDBRANCH   1   3
BRANCH   1  70
ATOM     70  C   ARG d   1      20.207  24.227   6.174  0.00  0.00     0.241 C 
ATOM     71  O   ARG d   1      20.186  24.138   7.398  0.00  0.00    -0.271 OA
ATOM     72  N   PHE d   1      21.067  25.007   5.520  0.00  0.00    -0.346 N 
ATOM     73  H53 PHE d   1      20.944  25.154   4.538  0.00  0.00     0.163 HD
BRANCH  72  74
ATOM     74  CA  PHE d   1      22.190  25.655   6.207  0.00  0.00     0.093 C 
ATOM     75  H54 PHE d   1      22.112  25.417   7.278  0.00  0.00     0.088 H 
BRANCH  74  76
ATOM     76  C   PHE d   1      22.498  27.138   5.993  0.00  0.00     0.241 C 
ATOM     77  O   PHE d   1      22.321  27.663   4.899  0.00  0.00    -0.271 OA
ATOM     78  N   ASP d   1      22.963  27.800   7.053  0.00  0.00    -0.345 N 
ATOM     79  H62 ASP d   1      23.150  27.289   7.892  0.00  0.00     0.163 HD
BRANCH  78  80
ATOM     80  CA  ASP d   1      23.212  29.243   7.040  0.00  0.00     0.098 C 
ATOM     81  H63 ASP d   1      22.448  29.718   6.407  0.00  0.00     0.088 H 
BRANCH  80  82
ATOM     82  C   ASP d   1      24.556  29.838   6.602  0.00  0.00     0.241 C 
ATOM     83  O   ASP d   1      25.484  29.109   6.246  0.00  0.00    -0.271 OA
ATOM     84  N   ILE d   1      24.644  31.164   6.616  0.00  0.00    -0.344 N 
ATOM     85  H66 ILE d   1      23.846  31.694   6.903  0.00  0.00     0.163 HD
BRANCH  84  86
ATOM     86  CA  ILE d   1      25.860  31.882   6.229  0.00  0.00     0.099 C 
ATOM     87  H67 ILE d   1      26.725  31.287   6.557  0.00  0.00     0.090 H 
BRANCH  86  88
ATOM     88  C   ILE d   1      25.926  33.253   6.907  0.00  0.00     0.197 C 
ATOM     89  O   ILE d   1      27.001  33.735   7.269  0.00  0.00    -0.646 OA
ATOM     90  OXT ILE d   1      24.906  33.914   7.110  0.00  0.00    -0.646 OA
ENDBRANCH  86  88
BRANCH  86  91
ATOM     91  CB  ILE d   1      25.951  32.074   4.692  0.00  0.00    -0.029 C 
ATOM     92  H68 ILE d   1      24.945  32.312   4.315  0.00  0.00     0.043 H 
BRANCH  91  93
ATOM     93  CG1 ILE d   1      26.427  30.785   4.010  0.00  0.00    -0.063 C 
ATOM     94  H69 ILE d   1      25.697  29.991   4.224  0.00  0.00     0.033 H 
ATOM     95  H70 ILE d   1      27.404  30.510   4.434  0.00  0.00     0.033 H 
BRANCH  93  96
ATOM     96  CD1 ILE d   1      26.579  30.902   2.486  0.00  0.00    -0.076 C 
ATOM     97  H74 ILE d   1      26.922  29.940   2.077  0.00  0.00     0.027 H 
ATOM     98  H75 ILE d   1      27.315  31.684   2.250  0.00  0.00     0.027 H 
ATOM     99  H76 ILE d   1      25.609  31.165   2.040  0.00  0.00     0.027 H 
ENDBRANCH  93  96
ENDBRANCH  91  93
BRANCH  91 100
ATOM    100  CG2 ILE d   1      26.882  33.241   4.346  0.00  0.00    -0.070 C 
ATOM    101  H71 ILE d   1      26.525  34.155   4.843  0.00  0.00     0.028 H 
ATOM    102  H72 ILE d   1      26.888  33.395   3.257  0.00  0.00     0.028 H 
ATOM    103  H73 ILE d   1      27.901  33.011   4.689  0.00  0.00     0.028 H 
ENDBRANCH  91 100
ENDBRANCH  86  91
ENDBRANCH  84  86
ENDBRANCH  80  82
BRANCH  80 104
ATOM    104  CB  ASP d   1      22.948  29.535   8.521  0.00  0.00     0.043 C 
ATOM    105  H64 ASP d   1      23.852  29.282   9.095  0.00  0.00     0.052 H 
ATOM    106  H65 ASP d   1      22.111  28.906   8.859  0.00  0.00     0.052 H 
BRANCH 104 107
ATOM    107  CG  ASP d   1      22.597  30.991   8.786  0.00  0.00     0.175 C 
ATOM    108  OD1 ASP d   1      23.482  31.855   8.617  0.00  0.00    -0.648 OA
ATOM    109  OD2 ASP d   1      21.447  31.273   9.194  0.00  0.00    -0.648 OA
ENDBRANCH 104 107
ENDBRANCH  80 104
ENDBRANCH  78  80
ENDBRANCH  74  76
BRANCH  74 110
ATOM    110  CB  PHE d   1      23.521  25.225   5.579  0.00  0.00    -0.014 C 
ATOM    111  H55 PHE d   1      24.309  25.906   5.933  0.00  0.00     0.043 H 
ATOM    112  H56 PHE d   1      23.432  25.305   4.486  0.00  0.00     0.043 H 
BRANCH 110 113
ATOM    113  CG  PHE d   1      23.919  23.817   5.922  0.00  0.00    -0.056 A 
ATOM    114  CD1 PHE d   1      24.406  23.508   7.187  0.00  0.00    -0.077 A 
ATOM    115  CE1 PHE d   1      24.768  22.216   7.512  0.00  0.00    -0.082 A 
ATOM    116  H57 PHE d   1      24.503  24.293   7.929  0.00  0.00     0.084 H 
ATOM    117  CZ  PHE d   1      24.642  21.212   6.575  0.00  0.00    -0.083 A 
ATOM    118  H59 PHE d   1      25.150  21.991   8.501  0.00  0.00     0.083 H 
ATOM    119  CE2 PHE d   1      24.157  21.502   5.312  0.00  0.00    -0.082 A 
ATOM    120  H61 PHE d   1      24.923  20.196   6.828  0.00  0.00     0.083 H 
ATOM    121  CD2 PHE d   1      23.796  22.799   4.991  0.00  0.00    -0.077 A 
ATOM    122  H60 PHE d   1      24.060  20.714   4.574  0.00  0.00     0.083 H 
ATOM    123  H58 PHE d   1      23.413  23.020   4.001  0.00  0.00     0.084 H 
ENDBRANCH 110 113
ENDBRANCH  74 110
ENDBRANCH  72  74
ENDBRANCH   1  70
BRANCH   1 124
ATOM    124  CB  ARG d   1      18.245  24.371   4.598  0.00  0.00    -0.036 C 
ATOM    125  H42 ARG d   1      18.237  24.089   3.535  0.00  0.00     0.036 H 
ATOM    126  H43 ARG d   1      18.622  25.399   4.702  0.00  0.00     0.036 H 
BRANCH 124 127
ATOM    127  CG  ARG d   1      16.809  24.341   5.106  0.00  0.00    -0.048 C 
ATOM    128  H44 ARG d   1      16.605  23.345   5.525  0.00  0.00     0.035 H 
ATOM    129  H45 ARG d   1      16.133  24.528   4.259  0.00  0.00     0.035 H 
BRANCH 127 130
ATOM    130  CD  ARG d   1      16.542  25.378   6.175  0.00  0.00     0.009 C 
ATOM    131  H46 ARG d   1      16.675  26.383   5.747  0.00  0.00     0.064 H 
ATOM    132  H47 ARG d   1      17.251  25.235   7.004  0.00  0.00     0.064 H 
BRANCH 130 133
ATOM    133  NE  ARG d   1      15.181  25.248   6.680  0.00  0.00    -0.227 N 
ATOM    134  CZ  ARG d   1      14.614  26.093   7.531  0.00  0.00     0.665 C 
ATOM    135  NH1 ARG d   1      15.291  27.144   7.977  0.00  0.00    -0.235 N 
ATOM    136  NH2 ARG d   1      13.366  25.885   7.932  0.00  0.00    -0.235 N 
ATOM    137  H49 ARG d   1      14.849  27.799   8.638  0.00  0.00     0.174 HD
ATOM    138  H50 ARG d   1      16.259  27.305   7.662  0.00  0.00     0.174 HD
ATOM    139  H51 ARG d   1      12.843  25.069   7.585  0.00  0.00     0.174 HD
ATOM    140  H52 ARG d   1      12.921  26.540   8.591  0.00  0.00     0.174 HD
ATOM    141  H48 ARG d   1      14.622  24.447   6.354  0.00  0.00     0.177 HD
ENDBRANCH 130 133
ENDBRANCH 127 130
ENDBRANCH 124 127
ENDBRANCH   1 124
TORSDOF 40
