REMARK  3 active torsions:
REMARK  status: ('A' for Active; 'I' for Inactive)
REMARK    1  A    between atoms: C2_2  and  C4_4 
REMARK    2  A    between atoms: C4_4  and  N5_5 
REMARK    3  A    between atoms: C6_6  and  C18_18 
ROOT
ATOM      1  N5  BFH d   1       3.915  73.932  28.046  0.00  0.00    -0.330 N 
ATOM      2  C6  BFH d   1       3.047  72.856  27.875  0.00  0.00     0.113 A 
ATOM      3  C7  BFH d   1       1.774  73.309  27.779  0.00  0.00    -0.038 A 
ATOM      4  C8  BFH d   1       1.808  74.709  27.855  0.00  0.00    -0.006 A 
ATOM      5  C9  BFH d   1       0.732  75.648  27.786  0.00  0.00    -0.070 A 
ATOM      6  C10 BFH d   1       0.978  76.987  27.867  0.00  0.00    -0.071 A 
ATOM      7  C11 BFH d   1       2.314  77.481  28.013  0.00  0.00    -0.024 A 
ATOM      8  C12 BFH d   1       2.536  78.879  28.095  0.00  0.00    -0.072 A 
ATOM      9  C13 BFH d   1       3.821  79.367  28.233  0.00  0.00    -0.082 A 
ATOM     10  C14 BFH d   1       4.941  78.508  28.301  0.00  0.00    -0.082 A 
ATOM     11  C15 BFH d   1       4.757  77.131  28.227  0.00  0.00    -0.070 A 
ATOM     12  C16 BFH d   1       3.448  76.553  28.088  0.00  0.00     0.002 A 
ATOM     13  C17 BFH d   1       3.172  75.119  28.009  0.00  0.00     0.057 A 
ATOM     14  H   BFH d   1       0.881  72.694  27.663  0.00  0.00     0.088 H 
ATOM     15  H   BFH d   1      -0.291  75.291  27.668  0.00  0.00     0.084 H 
ATOM     16  H   BFH d   1       0.147  77.690  27.820  0.00  0.00     0.084 H 
ATOM     17  H   BFH d   1       1.693  79.569  28.049  0.00  0.00     0.084 H 
ATOM     18  H   BFH d   1       3.975  80.445  28.291  0.00  0.00     0.083 H 
ATOM     19  H   BFH d   1       5.943  78.922  28.411  0.00  0.00     0.083 H 
ATOM     20  H   BFH d   1       5.626  76.475  28.276  0.00  0.00     0.084 H 
ENDROOT
BRANCH   1  21
ATOM     21  C4  BFH d   1       5.383  73.767  28.229  0.00  0.00     0.080 C 
ATOM     22  H   BFH d   1       5.719  74.459  29.001  0.00  0.00     0.081 H 
ATOM     23  H   BFH d   1       5.586  72.735  28.514  0.00  0.00     0.081 H 
BRANCH  21  24
ATOM     24  C2  BFH d   1       6.129  74.072  26.945  0.00  0.00     0.191 C 
ATOM     25  O1  BFH d   1       7.462  74.246  26.999  0.00  0.00    -0.647 OA
ATOM     26  O3  BFH d   1       5.545  74.165  25.880  0.00  0.00    -0.647 OA
ENDBRANCH  21  24
ENDBRANCH   1  21
BRANCH   2  27
ATOM     27  C18 BFH d   1       3.354  71.420  27.788  0.00  0.00     0.227 C 
ATOM     28  O19 BFH d   1       3.011  70.765  26.652  0.00  0.00    -0.643 OA
ATOM     29  O20 BFH d   1       3.900  70.837  28.711  0.00  0.00    -0.643 OA
ENDBRANCH   2  27
TORSDOF 3
