REMARK  12 active torsions:
REMARK  status: ('A' for Active; 'I' for Inactive)
REMARK    1  A    between atoms: PB_1  and  O3A_5 
REMARK    2  A    between atoms: O3A_5  and  PA_6 
REMARK    3  A    between atoms: PA_6  and  O5'_9 
REMARK    4  A    between atoms: O5'_9  and  C5'_10 
REMARK    5  A    between atoms: C5'_10  and  C4'_11 
REMARK    6  A    between atoms: C3'_13  and  O3'_14 
REMARK    7  A    between atoms: O3'_14  and  PC_29 
REMARK    8  A    between atoms: C2'_15  and  O2'_16 
REMARK    9  A    between atoms: C1'_17  and  N9_18 
REMARK   10  A    between atoms: C2_25  and  N2_26 
REMARK   11  A    between atoms: PC_29  and  O3C_32 
REMARK   12  A    between atoms: O3C_32  and  PD_33 
ROOT
ATOM      1  C4' G4P d   1      53.481  22.057 108.727  0.00  0.00     0.090 C 
ATOM      2  O4' G4P d   1      52.515  23.093 108.540  0.00  0.00    -0.353 OA
ATOM      3  C3' G4P d   1      54.485  22.171 107.602  0.00  0.00     0.106 C 
ATOM      4  C2' G4P d   1      53.710  22.870 106.510  0.00  0.00     0.106 C 
ATOM      5  C1' G4P d   1      52.601  23.631 107.224  0.00  0.00     0.139 C 
ATOM      6  H3  G4P d   1      52.987  21.077 108.659  0.00  0.00     0.090 H 
ATOM      7  H4  G4P d   1      55.382  22.734 107.899  0.00  0.00     0.092 H 
ATOM      8  H5  G4P d   1      54.346  23.515 105.886  0.00  0.00     0.093 H 
ATOM      9  H7  G4P d   1      51.666  23.423 106.682  0.00  0.00     0.122 H 
ENDROOT
BRANCH   5  10
ATOM     10  N9  G4P d   1      52.707  25.107 107.351  0.00  0.00    -0.295 N 
ATOM     11  C8  G4P d   1      51.704  25.932 107.007  0.00  0.00     0.071 A 
ATOM     12  N7  G4P d   1      52.059  27.204 107.257  0.00  0.00    -0.234 NA
ATOM     13  H8  G4P d   1      50.749  25.618 106.589  0.00  0.00     0.144 H 
ATOM     14  C5  G4P d   1      53.292  27.174 107.777  0.00  0.00     0.171 A 
ATOM     15  C6  G4P d   1      54.141  28.167 108.223  0.00  0.00     0.292 A 
ATOM     16  C4  G4P d   1      53.699  25.847 107.848  0.00  0.00     0.161 A 
ATOM     17  O6  G4P d   1      53.789  29.361 108.181  0.00  0.00    -0.265 OA
ATOM     18  N1  G4P d   1      55.349  27.840 108.716  0.00  0.00    -0.154 N 
ATOM     19  C2  G4P d   1      55.732  26.546 108.779  0.00  0.00     0.680 A 
ATOM     20  H9  G4P d   1      55.966  28.558 109.037  0.00  0.00     0.187 HD
ATOM     21  N3  G4P d   1      54.921  25.553 108.356  0.00  0.00    -0.174 N 
ATOM     22  H12 G4P d   1      55.230  24.573 108.419  0.00  0.00     0.186 HD
BRANCH  19  23
ATOM     23  N2  G4P d   1      56.956  26.241 109.278  0.00  0.00    -0.234 N 
ATOM     24  H10 G4P d   1      57.260  25.258 109.332  0.00  0.00     0.174 HD
ATOM     25  H11 G4P d   1      57.581  26.992 109.603  0.00  0.00     0.174 HD
ENDBRANCH  19  23
ENDBRANCH   5  10
BRANCH   4  26
ATOM     26  O2' G4P d   1      53.023  21.855 105.747  0.00  0.00    -0.388 OA
ATOM     27  H6  G4P d   1      53.659  21.257 105.373  0.00  0.00     0.210 HD
ENDBRANCH   4  26
BRANCH   1  28
ATOM     28  C5' G4P d   1      54.092  22.184 110.108  0.00  0.00     0.058 C 
ATOM     29  H1  G4P d   1      54.973  21.533 110.205  0.00  0.00     0.079 H 
ATOM     30  H2  G4P d   1      54.382  23.226 110.311  0.00  0.00     0.079 H 
BRANCH  28  31
ATOM     31  O5' G4P d   1      53.055  21.766 110.998  0.00  0.00    -0.287 OA
BRANCH  31  32
ATOM     32  PA  G4P d   1      53.295  21.713 112.570  0.00  0.00     0.418 P 
ATOM     33  O1A G4P d   1      51.970  21.378 113.206  0.00  0.00    -0.624 OA
ATOM     34  O2A G4P d   1      54.011  22.986 112.928  0.00  0.00    -0.624 OA
BRANCH  32  35
ATOM     35  O3A G4P d   1      54.375  20.517 112.753  0.00  0.00    -0.173 OA
BRANCH  35  36
ATOM     36  PB  G4P d   1      54.065  18.935 112.862  0.00  0.00     0.431 P 
ATOM     37  O1B G4P d   1      53.135  18.724 111.704  0.00  0.00    -0.616 OA
ATOM     38  O2B G4P d   1      53.430  18.705 114.203  0.00  0.00    -0.616 OA
ATOM     39  O3B G4P d   1      55.457  18.335 112.745  0.00  0.00    -0.616 OA
ENDBRANCH  35  36
ENDBRANCH  32  35
ENDBRANCH  31  32
ENDBRANCH  28  31
ENDBRANCH   1  28
BRANCH   3  40
ATOM     40  O3' G4P d   1      54.826  20.852 107.165  0.00  0.00    -0.279 OA
BRANCH  40  41
ATOM     41  PC  G4P d   1      56.329  20.525 106.668  0.00  0.00     0.419 P 
ATOM     42  O1C G4P d   1      57.000  21.820 106.261  0.00  0.00    -0.624 OA
ATOM     43  O2C G4P d   1      56.992  19.701 107.754  0.00  0.00    -0.624 OA
BRANCH  41  44
ATOM     44  O3C G4P d   1      56.167  19.557 105.375  0.00  0.00    -0.173 OA
BRANCH  44  45
ATOM     45  PD  G4P d   1      54.808  19.077 104.638  0.00  0.00     0.431 P 
ATOM     46  O1D G4P d   1      54.202  20.343 104.090  0.00  0.00    -0.616 OA
ATOM     47  O2D G4P d   1      53.977  18.348 105.672  0.00  0.00    -0.616 OA
ATOM     48  O3D G4P d   1      55.353  18.145 103.581  0.00  0.00    -0.616 OA
ENDBRANCH  44  45
ENDBRANCH  41  44
ENDBRANCH  40  41
ENDBRANCH   3  40
TORSDOF 12
