REMARK  6 active torsions:
REMARK  status: ('A' for Active; 'I' for Inactive)
REMARK    1  A    between atoms: CAH_8  and  CAA_1 
REMARK    2  A    between atoms: CAD_4  and  CAG_7 
REMARK       I    between atoms: NAM_13  and  CAH_8 
REMARK    3  A    between atoms: CAK_11  and  CAI_9 
REMARK    4  A    between atoms: CAJ_10  and  CAL_12 
REMARK    5  A    between atoms: NAM_13  and  CAJ_10 
REMARK    6  A    between atoms: CAK_11  and  NAM_13 
ROOT
ATOM      1  CAH DE3 d   1      13.137   5.555  14.658  0.00  0.00     0.253 C 
ATOM      2  NAM DE3 d   1      13.758   6.521  13.926  0.00  0.00    -0.349 N 
ATOM      3  OAN DE3 d   1      12.113   5.782  15.299  0.00  0.00    -0.267 OA
ENDROOT
BRANCH   1   4
ATOM      4  CAA DE3 d   1      13.705   4.130  14.661  0.00  0.00     0.032 A 
ATOM      5  CAB DE3 d   1      12.846   3.048  14.436  0.00  0.00    -0.062 A 
ATOM      6  CAD DE3 d   1      13.341   1.747  14.447  0.00  0.00    -0.061 A 
ATOM      7  H1  DE3 d   1      11.792   3.224  14.253  0.00  0.00     0.085 H 
ATOM      8  CAE DE3 d   1      14.690   1.514  14.697  0.00  0.00    -0.077 A 
ATOM      9  CAF DE3 d   1      15.551   2.587  14.937  0.00  0.00    -0.082 A 
ATOM     10  H3  DE3 d   1      15.072   0.500  14.705  0.00  0.00     0.084 H 
ATOM     11  CAC DE3 d   1      15.055   3.892  14.934  0.00  0.00    -0.068 A 
ATOM     12  H4  DE3 d   1      16.603   2.407  15.125  0.00  0.00     0.083 H 
ATOM     13  H2  DE3 d   1      15.719   4.723  15.144  0.00  0.00     0.085 H 
BRANCH   6  14
ATOM     14  CAG DE3 d   1      12.414   0.562  14.172  0.00  0.00    -0.051 C 
ATOM     15  H5  DE3 d   1      11.392   0.929  13.997  0.00  0.00     0.033 H 
ATOM     16  H6  DE3 d   1      12.417  -0.115  15.039  0.00  0.00     0.033 H 
ATOM     17  H7  DE3 d   1      12.766   0.020  13.282  0.00  0.00     0.033 H 
ENDBRANCH   6  14
ENDBRANCH   1   4
BRANCH   2  18
ATOM     18  CAJ DE3 d   1      15.026   6.300  13.212  0.00  0.00    -0.005 C 
ATOM     19  H11 DE3 d   1      15.309   5.242  13.308  0.00  0.00     0.063 H 
ATOM     20  H12 DE3 d   1      14.884   6.547  12.149  0.00  0.00     0.063 H 
BRANCH  18  21
ATOM     21  CAL DE3 d   1      16.132   7.152  13.766  0.00  0.00    -0.061 C 
ATOM     22  H15 DE3 d   1      17.059   6.958  13.207  0.00  0.00     0.029 H 
ATOM     23  H16 DE3 d   1      16.286   6.909  14.828  0.00  0.00     0.029 H 
ATOM     24  H17 DE3 d   1      15.861   8.214  13.669  0.00  0.00     0.029 H 
ENDBRANCH  18  21
ENDBRANCH   2  18
BRANCH   2  25
ATOM     25  CAK DE3 d   1      13.247   7.907  13.964  0.00  0.00    -0.005 C 
ATOM     26  H13 DE3 d   1      12.812   8.114  14.953  0.00  0.00     0.063 H 
ATOM     27  H14 DE3 d   1      14.070   8.610  13.771  0.00  0.00     0.063 H 
BRANCH  25  28
ATOM     28  CAI DE3 d   1      12.174   8.063  12.888  0.00  0.00    -0.061 C 
ATOM     29  H8  DE3 d   1      11.784   9.091  12.905  0.00  0.00     0.029 H 
ATOM     30  H9  DE3 d   1      11.354   7.357  13.083  0.00  0.00     0.029 H 
ATOM     31  H10 DE3 d   1      12.611   7.853  11.901  0.00  0.00     0.029 H 
ENDBRANCH  25  28
ENDBRANCH   2  25
TORSDOF 6
