REMARK  7 active torsions:
REMARK  status: ('A' for Active; 'I' for Inactive)
REMARK    1  A    between atoms: C2_2  and  C4_4 
REMARK    2  A    between atoms: C4_4  and  O5_5 
REMARK    3  A    between atoms: C7_7  and  C13_13 
REMARK    4  A    between atoms: C8_8  and  O9_9 
REMARK    5  A    between atoms: C10_10  and  O11_11 
REMARK    6  A    between atoms: C15_15  and  C16_16 
REMARK    7  A    between atoms: C16_16  and  C17_17 
ROOT
ATOM      1  C13 N87 d   1      44.766   6.818  24.549  0.00  0.00    -0.026 A 
ATOM      2  C14 N87 d   1      45.437   7.742  23.762  0.00  0.00    -0.059 A 
ATOM      3  C15 N87 d   1      46.184   7.349  22.652  0.00  0.00     0.016 A 
ATOM      4  C23 N87 d   1      46.265   5.982  22.329  0.00  0.00    -0.069 A 
ATOM      5  C24 N87 d   1      45.612   5.031  23.130  0.00  0.00    -0.081 A 
ATOM      6  C25 N87 d   1      44.861   5.450  24.238  0.00  0.00    -0.072 A 
ATOM      7  H   N87 d   1      45.379   8.800  24.017  0.00  0.00     0.086 H 
ATOM      8  H   N87 d   1      46.835   5.661  21.457  0.00  0.00     0.085 H 
ATOM      9  H   N87 d   1      45.689   3.970  22.891  0.00  0.00     0.083 H 
ATOM     10  H   N87 d   1      44.350   4.714  24.859  0.00  0.00     0.084 H 
ENDROOT
BRANCH   1  11
ATOM     11  C7  N87 d   1      44.004   7.309  25.750  0.00  0.00    -0.017 C 
ATOM     12  C6  N87 d   1      44.121   6.603  26.889  0.00  0.00    -0.051 C 
ATOM     13  C4  N87 d   1      43.821   7.121  28.274  0.00  0.00     0.166 C 
ATOM     14  H   N87 d   1      44.461   5.571  26.804  0.00  0.00     0.083 H 
ATOM     15  C12 N87 d   1      43.437   8.604  28.227  0.00  0.00     0.003 C 
ATOM     16  C10 N87 d   1      42.486   8.829  27.053  0.00  0.00     0.068 C 
ATOM     17  H   N87 d   1      44.332   9.213  28.100  0.00  0.00     0.042 H 
ATOM     18  H   N87 d   1      42.948   8.889  29.159  0.00  0.00     0.042 H 
ATOM     19  C8  N87 d   1      43.187   8.570  25.716  0.00  0.00     0.086 C 
ATOM     20  H   N87 d   1      41.655   8.128  27.134  0.00  0.00     0.087 H 
ATOM     21  H   N87 d   1      43.831   9.430  25.533  0.00  0.00     0.094 H 
BRANCH  13  22
ATOM     22  C2  N87 d   1      44.994   6.828  29.198  0.00  0.00     0.213 C 
ATOM     23  O1  N87 d   1      45.169   5.626  29.503  0.00  0.00    -0.645 OA
ATOM     24  O3  N87 d   1      45.749   7.745  29.627  0.00  0.00    -0.645 OA
ENDBRANCH  13  22
BRANCH  13  25
ATOM     25  O5  N87 d   1      42.718   6.325  28.705  0.00  0.00    -0.375 OA
ATOM     26  H   N87 d   1      42.957   5.396  28.657  0.00  0.00     0.211 HD
ENDBRANCH  13  25
BRANCH  16  27
ATOM     27  O11 N87 d   1      41.997  10.171  27.099  0.00  0.00    -0.393 OA
ATOM     28  H   N87 d   1      41.560  10.322  27.940  0.00  0.00     0.210 HD
ENDBRANCH  16  27
BRANCH  19  29
ATOM     29  O9  N87 d   1      42.228   8.404  24.683  0.00  0.00    -0.388 OA
ATOM     30  H   N87 d   1      42.680   8.266  23.848  0.00  0.00     0.210 HD
ENDBRANCH  19  29
ENDBRANCH   1  11
BRANCH   3  31
ATOM     31  C16 N87 d   1      46.837   8.449  21.844  0.00  0.00     0.192 C 
ATOM     32  O26 N87 d   1      46.209   9.470  21.666  0.00  0.00    -0.287 OA
BRANCH  31  33
ATOM     33  C17 N87 d   1      48.197   8.424  21.204  0.00  0.00     0.015 A 
ATOM     34  C18 N87 d   1      48.976   7.255  21.129  0.00  0.00    -0.069 A 
ATOM     35  C19 N87 d   1      50.222   7.315  20.501  0.00  0.00    -0.082 A 
ATOM     36  H   N87 d   1      48.614   6.319  21.554  0.00  0.00     0.085 H 
ATOM     37  C20 N87 d   1      50.673   8.526  19.949  0.00  0.00    -0.083 A 
ATOM     38  H   N87 d   1      50.845   6.423  20.439  0.00  0.00     0.083 H 
ATOM     39  C21 N87 d   1      49.893   9.686  20.008  0.00  0.00    -0.082 A 
ATOM     40  H   N87 d   1      51.649   8.562  19.466  0.00  0.00     0.083 H 
ATOM     41  C22 N87 d   1      48.655   9.628  20.642  0.00  0.00    -0.069 A 
ATOM     42  H   N87 d   1      50.248  10.617  19.566  0.00  0.00     0.083 H 
ATOM     43  H   N87 d   1      48.036  10.523  20.703  0.00  0.00     0.085 H 
ENDBRANCH  31  33
ENDBRANCH   3  31
TORSDOF 7
