REMARK  26 active torsions:
REMARK  status: ('A' for Active; 'I' for Inactive)
REMARK    1  A    between atoms: C3_3  and  O3_4 
REMARK    2  A    between atoms: O3_4  and  C21_23 
REMARK    3  A    between atoms: C4_5  and  C26_28 
REMARK    4  A    between atoms: C7_11  and  O6_10 
REMARK    5  A    between atoms: C8_13  and  O7_12 
REMARK    6  A    between atoms: O7_12  and  C27_29 
REMARK    7  A    between atoms: C10_17  and  O9_16 
REMARK    8  A    between atoms: O9_16  and  C32_32 
REMARK    9  A    between atoms: C10_17  and  C31_31 
REMARK   10  A    between atoms: C11_19  and  O11_20 
REMARK   11  A    between atoms: C11_19  and  C34_34 
REMARK   12  A    between atoms: C21_23  and  C22_24 
REMARK   13  A    between atoms: C22_24  and  C23_25 
REMARK   14  A    between atoms: C24_26  and  C25_27 
REMARK   15  A    between atoms: C27_29  and  C28_30 
REMARK   16  A    between atoms: C28_30  and  C35_35 
REMARK   17  A    between atoms: C32_32  and  C33_33 
REMARK   18  A    between atoms: C35_35  and  C36_36 
REMARK   19  A    between atoms: C36_36  and  C37_37 
REMARK   20  A    between atoms: C37_37  and  C38_38 
REMARK   21  A    between atoms: C38_38  and  C39_39 
REMARK   22  A    between atoms: C39_39  and  C40_40 
REMARK   23  A    between atoms: C40_40  and  C41_41 
REMARK   24  A    between atoms: C41_41  and  C42_42 
REMARK   25  A    between atoms: C42_42  and  C43_43 
REMARK   26  A    between atoms: C43_43  and  C44_44 
ROOT
ATOM      1  C1  DBK d   1      -4.269   9.192  84.890  0.00  0.00     0.004 A 
ATOM      2  C2  DBK d   1      -4.024   8.918  83.404  0.00  0.00    -0.027 A 
ATOM      3  C3  DBK d   1      -2.567   9.278  83.096  0.00  0.00     0.071 A 
ATOM      4  C4  DBK d   1      -1.951   9.605  84.454  0.00  0.00    -0.049 A 
ATOM      5  C5  DBK d   1      -2.918   9.623  85.448  0.00  0.00    -0.036 A 
ATOM      6  O5  DBK d   1      -1.565   9.112  87.416  0.00  0.00    -0.306 OA
ATOM      7  C6  DBK d   1      -2.570   9.989  86.887  0.00  0.00     0.106 C 
ATOM      8  C7  DBK d   1      -3.742   9.729  87.825  0.00  0.00     0.154 C 
ATOM      9  C8  DBK d   1      -4.923  10.680  87.630  0.00  0.00     0.086 C 
ATOM     10  C9  DBK d   1      -5.895  10.277  86.517  0.00  0.00    -0.008 C 
ATOM     11  C10 DBK d   1      -5.331  10.275  85.093  0.00  0.00     0.077 C 
ATOM     12  C11 DBK d   1      -2.991   9.932  89.137  0.00  0.00     0.178 C 
ATOM     13  C12 DBK d   1      -1.658   9.285  88.763  0.00  0.00     0.297 C 
ATOM     14  O12 DBK d   1      -0.801   8.914  89.565  0.00  0.00    -0.262 OA
ATOM     15  H   DBK d   1      -4.652   8.310  85.403  0.00  0.00     0.051 H 
ATOM     16  H   DBK d   1      -4.699   9.516  82.792  0.00  0.00     0.038 H 
ATOM     17  H   DBK d   1      -4.211   7.869  83.177  0.00  0.00     0.038 H 
ATOM     18  H   DBK d   1      -2.072   8.461  82.570  0.00  0.00     0.091 H 
ATOM     19  H   DBK d   1      -2.266  11.035  86.845  0.00  0.00     0.096 H 
ATOM     20  H   DBK d   1      -5.500  10.580  88.549  0.00  0.00     0.089 H 
ATOM     21  H   DBK d   1      -6.693  11.019  86.527  0.00  0.00     0.041 H 
ATOM     22  H   DBK d   1      -6.190   9.249  86.728  0.00  0.00     0.041 H 
ENDROOT
BRANCH   9  23
ATOM     23  O7  DBK d   1      -4.521  12.054  87.535  0.00  0.00    -0.313 OA
BRANCH  23  24
ATOM     24  C27 DBK d   1      -4.857  12.657  88.703  0.00  0.00     0.259 C 
ATOM     25  O8  DBK d   1      -5.416  11.977  89.570  0.00  0.00    -0.265 OA
BRANCH  24  26
ATOM     26  C28 DBK d   1      -4.556  14.136  88.951  0.00  0.00     0.016 C 
ATOM     27  H   DBK d   1      -4.987  14.421  89.911  0.00  0.00     0.048 H 
ATOM     28  H   DBK d   1      -4.984  14.718  88.135  0.00  0.00     0.048 H 
BRANCH  26  29
ATOM     29  C35 DBK d   1      -3.049  14.398  88.997  0.00  0.00    -0.057 C 
ATOM     30  H   DBK d   1      -2.638  14.153  88.017  0.00  0.00     0.033 H 
ATOM     31  H   DBK d   1      -2.629  13.788  89.796  0.00  0.00     0.033 H 
BRANCH  29  32
ATOM     32  C36 DBK d   1      -2.709  15.861  89.296  0.00  0.00    -0.065 C 
ATOM     33  H   DBK d   1      -3.068  16.122  90.291  0.00  0.00     0.033 H 
ATOM     34  H   DBK d   1      -3.188  16.504  88.558  0.00  0.00     0.033 H 
BRANCH  32  35
ATOM     35  C37 DBK d   1      -1.191  16.053  89.233  0.00  0.00    -0.065 C 
ATOM     36  H   DBK d   1      -0.858  15.784  88.231  0.00  0.00     0.033 H 
ATOM     37  H   DBK d   1      -0.740  15.427  90.003  0.00  0.00     0.033 H 
BRANCH  35  38
ATOM     38  C38 DBK d   1      -0.775  17.501  89.497  0.00  0.00    -0.065 C 
ATOM     39  H   DBK d   1      -1.242  18.147  88.754  0.00  0.00     0.033 H 
ATOM     40  H   DBK d   1       0.310  17.577  89.434  0.00  0.00     0.033 H 
BRANCH  38  41
ATOM     41  C39 DBK d   1      -1.227  17.935  90.893  0.00  0.00    -0.065 C 
ATOM     42  H   DBK d   1      -0.707  17.313  91.621  0.00  0.00     0.033 H 
ATOM     43  H   DBK d   1      -2.310  17.826  90.943  0.00  0.00     0.033 H 
BRANCH  41  44
ATOM     44  C40 DBK d   1      -0.888  19.396  91.197  0.00  0.00    -0.065 C 
ATOM     45  H   DBK d   1      -1.297  19.630  92.180  0.00  0.00     0.033 H 
ATOM     46  H   DBK d   1      -1.309  20.004  90.396  0.00  0.00     0.033 H 
BRANCH  44  47
ATOM     47  C41 DBK d   1       0.617  19.675  91.245  0.00  0.00    -0.065 C 
ATOM     48  H   DBK d   1       1.015  19.681  90.230  0.00  0.00     0.033 H 
ATOM     49  H   DBK d   1       1.109  18.898  91.830  0.00  0.00     0.033 H 
BRANCH  47  50
ATOM     50  C42 DBK d   1       0.871  21.037  91.897  0.00  0.00    -0.065 C 
ATOM     51  H   DBK d   1       0.382  21.041  92.871  0.00  0.00     0.033 H 
ATOM     52  H   DBK d   1       0.480  21.807  91.232  0.00  0.00     0.033 H 
BRANCH  50  53
ATOM     53  C43 DBK d   1       2.360  21.312  92.115  0.00  0.00    -0.069 C 
ATOM     54  H   DBK d   1       2.846  21.394  91.143  0.00  0.00     0.032 H 
ATOM     55  H   DBK d   1       2.785  20.494  92.697  0.00  0.00     0.032 H 
BRANCH  53  56
ATOM     56  C44 DBK d   1       2.571  22.621  92.881  0.00  0.00    -0.077 C 
ATOM     57  H   DBK d   1       2.143  23.446  92.312  0.00  0.00     0.027 H 
ATOM     58  H   DBK d   1       2.082  22.555  93.853  0.00  0.00     0.027 H 
ATOM     59  H   DBK d   1       3.639  22.790  93.021  0.00  0.00     0.027 H 
ENDBRANCH  53  56
ENDBRANCH  50  53
ENDBRANCH  47  50
ENDBRANCH  44  47
ENDBRANCH  41  44
ENDBRANCH  38  41
ENDBRANCH  35  38
ENDBRANCH  32  35
ENDBRANCH  29  32
ENDBRANCH  26  29
ENDBRANCH  24  26
ENDBRANCH  23  24
ENDBRANCH   9  23
BRANCH   8  60
ATOM     60  O6  DBK d   1      -4.164   8.367  87.740  0.00  0.00    -0.380 OA
ATOM     61  H   DBK d   1      -3.436   7.792  87.986  0.00  0.00     0.211 HD
ENDBRANCH   8  60
BRANCH  12  62
ATOM     62  O11 DBK d   1      -2.801  11.330  89.367  0.00  0.00    -0.377 OA
ATOM     63  H   DBK d   1      -3.656  11.764  89.417  0.00  0.00     0.211 HD
ENDBRANCH  12  62
BRANCH  12  64
ATOM     64  C34 DBK d   1      -3.660   9.227  90.319  0.00  0.00    -0.036 C 
ATOM     65  H   DBK d   1      -4.670   9.617  90.449  0.00  0.00     0.032 H 
ATOM     66  H   DBK d   1      -3.705   8.156  90.123  0.00  0.00     0.032 H 
ATOM     67  H   DBK d   1      -3.080   9.408  91.224  0.00  0.00     0.032 H 
ENDBRANCH  12  64
BRANCH  11  68
ATOM     68  O9  DBK d   1      -6.370   9.870  84.203  0.00  0.00    -0.310 OA
BRANCH  68  69
ATOM     69  C32 DBK d   1      -7.427  10.733  84.155  0.00  0.00     0.255 C 
ATOM     70  O10 DBK d   1      -7.407  11.773  84.799  0.00  0.00    -0.266 OA
BRANCH  69  71
ATOM     71  C33 DBK d   1      -8.649  10.332  83.333  0.00  0.00     0.004 C 
ATOM     72  H   DBK d   1      -9.512  10.236  83.991  0.00  0.00     0.041 H 
ATOM     73  H   DBK d   1      -8.847  11.096  82.581  0.00  0.00     0.041 H 
ATOM     74  H   DBK d   1      -8.458   9.378  82.841  0.00  0.00     0.041 H 
ENDBRANCH  69  71
ENDBRANCH  68  69
ENDBRANCH  11  68
BRANCH  11  75
ATOM     75  C31 DBK d   1      -4.808  11.658  84.702  0.00  0.00    -0.046 C 
ATOM     76  H   DBK d   1      -5.622  12.381  84.753  0.00  0.00     0.031 H 
ATOM     77  H   DBK d   1      -4.015  11.953  85.390  0.00  0.00     0.031 H 
ATOM     78  H   DBK d   1      -4.415  11.622  83.686  0.00  0.00     0.031 H 
ENDBRANCH  11  75
BRANCH   4  79
ATOM     79  C26 DBK d   1      -0.468   9.893  84.699  0.00  0.00    -0.052 C 
ATOM     80  H   DBK d   1      -0.356  10.899  85.102  0.00  0.00     0.033 H 
ATOM     81  H   DBK d   1      -0.071   9.169  85.411  0.00  0.00     0.033 H 
ATOM     82  H   DBK d   1       0.076   9.815  83.758  0.00  0.00     0.033 H 
ENDBRANCH   4  79
BRANCH   3  83
ATOM     83  O3  DBK d   1      -2.467  10.441  82.258  0.00  0.00    -0.308 OA
BRANCH  83  84
ATOM     84  C21 DBK d   1      -2.241  10.058  80.972  0.00  0.00     0.289 C 
ATOM     85  O4  DBK d   1      -2.083   8.864  80.724  0.00  0.00    -0.260 OA
BRANCH  84  86
ATOM     86  C22 DBK d   1      -2.106  11.088  79.846  0.00  0.00     0.009 C 
ATOM     87  C24 DBK d   1      -1.856  12.427  80.111  0.00  0.00    -0.095 C 
ATOM     88  H   DBK d   1      -1.774  13.134  79.285  0.00  0.00     0.077 H 
BRANCH  86  89
ATOM     89  C23 DBK d   1      -2.173  10.614  78.393  0.00  0.00    -0.046 C 
ATOM     90  H   DBK d   1      -2.970  11.147  77.875  0.00  0.00     0.033 H 
ATOM     91  H   DBK d   1      -1.221  10.815  77.902  0.00  0.00     0.033 H 
ATOM     92  H   DBK d   1      -2.376   9.543  78.370  0.00  0.00     0.033 H 
ENDBRANCH  86  89
BRANCH  87  93
ATOM     93  C25 DBK d   1      -1.694  12.923  81.550  0.00  0.00    -0.059 C 
ATOM     94  H   DBK d   1      -2.607  12.717  82.109  0.00  0.00     0.032 H 
ATOM     95  H   DBK d   1      -0.855  12.408  82.018  0.00  0.00     0.032 H 
ATOM     96  H   DBK d   1      -1.505  13.996  81.544  0.00  0.00     0.032 H 
ENDBRANCH  87  93
ENDBRANCH  84  86
ENDBRANCH  83  84
ENDBRANCH   3  83
TORSDOF 26
