REMARK  18 active torsions:
REMARK  status: ('A' for Active; 'I' for Inactive)
REMARK    1  A    between atoms: C3_3  and  O3_4 
REMARK    2  A    between atoms: O3_4  and  C21_23 
REMARK    3  A    between atoms: C4_5  and  C26_28 
REMARK    4  A    between atoms: C7_11  and  O6_10 
REMARK    5  A    between atoms: C8_13  and  O7_12 
REMARK    6  A    between atoms: O7_12  and  C27_29 
REMARK    7  A    between atoms: C10_17  and  O9_16 
REMARK    8  A    between atoms: O9_16  and  C32_34 
REMARK    9  A    between atoms: C10_17  and  C31_33 
REMARK   10  A    between atoms: C11_19  and  O11_20 
REMARK   11  A    between atoms: C11_19  and  C34_36 
REMARK   12  A    between atoms: C21_23  and  C22_24 
REMARK   13  A    between atoms: C22_24  and  C23_25 
REMARK   14  A    between atoms: C24_26  and  C25_27 
REMARK   15  A    between atoms: C27_29  and  C28_30 
REMARK   16  A    between atoms: C28_30  and  C29_31 
REMARK   17  A    between atoms: C29_31  and  C30_32 
REMARK   18  A    between atoms: C32_34  and  C33_35 
ROOT
ATOM      1  C1  OTK d   1      -4.578   9.453  84.822  0.00  0.00    -0.015 C 
ATOM      2  C2  OTK d   1      -4.143   9.076  83.402  0.00  0.00    -0.033 C 
ATOM      3  C3  OTK d   1      -2.850   9.857  83.143  0.00  0.00     0.052 C 
ATOM      4  C4  OTK d   1      -2.395  10.395  84.502  0.00  0.00    -0.025 C 
ATOM      5  C5  OTK d   1      -3.204   9.567  85.500  0.00  0.00    -0.013 C 
ATOM      6  O5  OTK d   1      -2.073   9.599  87.693  0.00  0.00    -0.310 OA
ATOM      7  C6  OTK d   1      -3.158  10.138  86.918  0.00  0.00     0.088 C 
ATOM      8  C7  OTK d   1      -4.421   9.879  87.744  0.00  0.00     0.151 C 
ATOM      9  C8  OTK d   1      -5.377  11.046  87.457  0.00  0.00     0.086 C 
ATOM     10  C9  OTK d   1      -6.270  10.746  86.246  0.00  0.00    -0.008 C 
ATOM     11  C10 OTK d   1      -5.574  10.616  84.882  0.00  0.00     0.073 C 
ATOM     12  C11 OTK d   1      -3.920   9.752  89.191  0.00  0.00     0.177 C 
ATOM     13  C12 OTK d   1      -2.404   9.872  88.987  0.00  0.00     0.297 C 
ATOM     14  O12 OTK d   1      -1.606  10.241  89.843  0.00  0.00    -0.262 OA
ATOM     15  H   OTK d   1      -5.213   8.748  85.358  0.00  0.00     0.045 H 
ATOM     16  H   OTK d   1      -4.912   9.326  82.671  0.00  0.00     0.037 H 
ATOM     17  H   OTK d   1      -3.984   8.002  83.307  0.00  0.00     0.037 H 
ATOM     18  H   OTK d   1      -2.131   9.192  82.664  0.00  0.00     0.084 H 
ATOM     19  H   OTK d   1      -2.556  11.467  84.617  0.00  0.00     0.044 H 
ATOM     20  H   OTK d   1      -2.807   8.571  85.698  0.00  0.00     0.045 H 
ATOM     21  H   OTK d   1      -3.041  11.207  86.742  0.00  0.00     0.089 H 
ATOM     22  H   OTK d   1      -6.005  11.160  88.341  0.00  0.00     0.089 H 
ATOM     23  H   OTK d   1      -6.945  11.597  86.156  0.00  0.00     0.041 H 
ATOM     24  H   OTK d   1      -6.723   9.774  86.443  0.00  0.00     0.041 H 
ENDROOT
BRANCH   3  25
ATOM     25  O3  OTK d   1      -3.039  10.983  82.276  0.00  0.00    -0.312 OA
BRANCH  25  26
ATOM     26  C21 OTK d   1      -2.522  10.754  81.028  0.00  0.00     0.289 C 
ATOM     27  O4  OTK d   1      -2.019   9.667  80.782  0.00  0.00    -0.260 OA
BRANCH  26  28
ATOM     28  C22 OTK d   1      -2.575  11.826  79.954  0.00  0.00     0.009 C 
ATOM     29  C24 OTK d   1      -2.640  13.209  80.262  0.00  0.00    -0.095 C 
ATOM     30  H   OTK d   1      -2.674  13.926  79.442  0.00  0.00     0.077 H 
BRANCH  28  31
ATOM     31  C23 OTK d   1      -2.558  11.405  78.497  0.00  0.00    -0.046 C 
ATOM     32  H   OTK d   1      -3.467  11.756  78.008  0.00  0.00     0.033 H 
ATOM     33  H   OTK d   1      -1.688  11.840  78.005  0.00  0.00     0.033 H 
ATOM     34  H   OTK d   1      -2.506  10.318  78.435  0.00  0.00     0.033 H 
ENDBRANCH  28  31
BRANCH  29  35
ATOM     35  C25 OTK d   1      -2.664  13.731  81.684  0.00  0.00    -0.059 C 
ATOM     36  H   OTK d   1      -3.536  13.332  82.201  0.00  0.00     0.032 H 
ATOM     37  H   OTK d   1      -1.758  13.416  82.201  0.00  0.00     0.032 H 
ATOM     38  H   OTK d   1      -2.715  14.820  81.669  0.00  0.00     0.032 H 
ENDBRANCH  29  35
ENDBRANCH  26  28
ENDBRANCH  25  26
ENDBRANCH   3  25
BRANCH   4  39
ATOM     39  C26 OTK d   1      -0.891  10.178  84.692  0.00  0.00    -0.070 C 
ATOM     40  H   OTK d   1      -0.607  10.475  85.702  0.00  0.00     0.028 H 
ATOM     41  H   OTK d   1      -0.655   9.124  84.542  0.00  0.00     0.028 H 
ATOM     42  H   OTK d   1      -0.344  10.781  83.967  0.00  0.00     0.028 H 
ENDBRANCH   4  39
BRANCH  11  43
ATOM     43  O9  OTK d   1      -6.584  10.247  83.934  0.00  0.00    -0.310 OA
BRANCH  43  44
ATOM     44  C32 OTK d   1      -7.621  11.107  83.731  0.00  0.00     0.255 C 
ATOM     45  O10 OTK d   1      -7.671  12.180  84.330  0.00  0.00    -0.266 OA
BRANCH  44  46
ATOM     46  C33 OTK d   1      -8.737  10.708  82.766  0.00  0.00     0.004 C 
ATOM     47  H   OTK d   1      -9.683  10.661  83.306  0.00  0.00     0.041 H 
ATOM     48  H   OTK d   1      -8.808  11.448  81.969  0.00  0.00     0.041 H 
ATOM     49  H   OTK d   1      -8.513   9.731  82.337  0.00  0.00     0.041 H 
ENDBRANCH  44  46
ENDBRANCH  43  44
ENDBRANCH  11  43
BRANCH  11  50
ATOM     50  C31 OTK d   1      -4.944  11.946  84.453  0.00  0.00    -0.047 C 
ATOM     51  H   OTK d   1      -5.721  12.707  84.377  0.00  0.00     0.031 H 
ATOM     52  H   OTK d   1      -4.205  12.252  85.194  0.00  0.00     0.031 H 
ATOM     53  H   OTK d   1      -4.460  11.821  83.485  0.00  0.00     0.031 H 
ENDBRANCH  11  50
BRANCH   8  54
ATOM     54  O6  OTK d   1      -5.025   8.643  87.352  0.00  0.00    -0.381 OA
ATOM     55  H   OTK d   1      -5.815   8.493  87.877  0.00  0.00     0.211 HD
ENDBRANCH   8  54
BRANCH   9  56
ATOM     56  O7  OTK d   1      -4.671  12.283  87.249  0.00  0.00    -0.313 OA
BRANCH  56  57
ATOM     57  C27 OTK d   1      -4.500  13.046  88.365  0.00  0.00     0.259 C 
ATOM     58  O8  OTK d   1      -5.023  12.722  89.430  0.00  0.00    -0.265 OA
BRANCH  57  59
ATOM     59  C28 OTK d   1      -3.686  14.338  88.254  0.00  0.00     0.015 C 
ATOM     60  H   OTK d   1      -4.144  14.960  87.485  0.00  0.00     0.048 H 
ATOM     61  H   OTK d   1      -2.658  14.070  88.012  0.00  0.00     0.048 H 
BRANCH  59  62
ATOM     62  C29 OTK d   1      -3.674  15.133  89.563  0.00  0.00    -0.060 C 
ATOM     63  H   OTK d   1      -3.238  14.509  90.343  0.00  0.00     0.033 H 
ATOM     64  H   OTK d   1      -4.698  15.415  89.806  0.00  0.00     0.033 H 
BRANCH  62  65
ATOM     65  C30 OTK d   1      -2.836  16.408  89.435  0.00  0.00    -0.076 C 
ATOM     66  H   OTK d   1      -1.810  16.143  89.181  0.00  0.00     0.027 H 
ATOM     67  H   OTK d   1      -3.254  17.039  88.650  0.00  0.00     0.027 H 
ATOM     68  H   OTK d   1      -2.850  16.947  90.382  0.00  0.00     0.027 H 
ENDBRANCH  62  65
ENDBRANCH  59  62
ENDBRANCH  57  59
ENDBRANCH  56  57
ENDBRANCH   9  56
BRANCH  12  69
ATOM     69  O11 OTK d   1      -4.423  10.805  90.015  0.00  0.00    -0.377 OA
ATOM     70  H   OTK d   1      -4.131  11.650  89.666  0.00  0.00     0.211 HD
ENDBRANCH  12  69
BRANCH  12  71
ATOM     71  C34 OTK d   1      -4.276   8.398  89.810  0.00  0.00    -0.036 C 
ATOM     72  H   OTK d   1      -5.359   8.275  89.814  0.00  0.00     0.032 H 
ATOM     73  H   OTK d   1      -3.821   7.601  89.222  0.00  0.00     0.032 H 
ATOM     74  H   OTK d   1      -3.900   8.357  90.832  0.00  0.00     0.032 H 
ENDBRANCH  12  71
TORSDOF 18
