REMARK WARNING: 32 MAX_TORS EXCEEDED!!!
REMARK  41 active torsions:
REMARK  status: ('A' for Active; 'I' for Inactive)
REMARK    1  A    between atoms: C2_3  and  O1_2 
REMARK    2  A    between atoms: O1_2  and  C13_25 
REMARK    3  A    between atoms: C3_5  and  O3_6 
REMARK    4  A    between atoms: O3_6  and  C21_33 
REMARK    5  A    between atoms: C4_7  and  C26_38 
REMARK    6  A    between atoms: C7_13  and  O6_12 
REMARK    7  A    between atoms: O7_14  and  C8_15 
REMARK    8  A    between atoms: C27_39  and  O7_14 
REMARK    9  A    between atoms: C10_19  and  O9_18 
REMARK   10  A    between atoms: O9_18  and  C32_44 
REMARK   11  A    between atoms: C10_19  and  C31_43 
REMARK   12  A    between atoms: C11_21  and  O11_22 
REMARK   13  A    between atoms: C11_21  and  C34_46 
REMARK   14  A    between atoms: C13_25  and  C14_26 
REMARK   15  A    between atoms: C14_26  and  C15_27 
REMARK   16  A    between atoms: C15_27  and  C16_28 
REMARK   17  A    between atoms: C16_28  and  C17_29 
REMARK   18  A    between atoms: C17_29  and  C18_30 
REMARK   19  A    between atoms: C18_30  and  C19_31 
REMARK   20  A    between atoms: C19_31  and  C20_32 
REMARK   21  A    between atoms: C21_33  and  C22_34 
REMARK   22  A    between atoms: C22_34  and  C23_35 
REMARK   23  A    between atoms: C24_36  and  C25_37 
REMARK   24  A    between atoms: C28_40  and  C27_39 
REMARK   25  A    between atoms: C29_41  and  C28_40 
REMARK   26  A    between atoms: C30_42  and  C29_41 
REMARK   27  A    between atoms: C56_63  and  C30_42 
REMARK   28  A    between atoms: C32_44  and  C33_45 
REMARK   29  A    between atoms: C41_48  and  C40_47 
REMARK   30  A    between atoms: C41_48  and  C42_49 
REMARK   31  A    between atoms: C41_48  and  C43_50 
REMARK   32  A    between atoms: O44_51  and  C41_48 
REMARK   33  A    between atoms: C45_52  and  O44_51 
REMARK       I    between atoms: N47_54  and  C45_52 
REMARK   34  A    between atoms: C48_55  and  N47_54 
REMARK   35  A    between atoms: C49_56  and  C48_55 
REMARK   36  A    between atoms: C50_57  and  C49_56 
REMARK   37  A    between atoms: C51_58  and  C50_57 
REMARK   38  A    between atoms: C52_59  and  C51_58 
REMARK   39  A    between atoms: C53_60  and  C52_59 
REMARK   40  A    between atoms: C54_61  and  C53_60 
REMARK   41  A    between atoms: C59_66  and  O60_67 
ROOT
ATOM      1  C1  HZ1 d   1      -4.547   9.231  84.728  0.00  0.00     0.029 A 
ATOM      2  C2  HZ1 d   1      -4.282   8.999  83.236  0.00  0.00     0.087 A 
ATOM      3  C3  HZ1 d   1      -2.812   9.303  82.977  0.00  0.00     0.096 A 
ATOM      4  C4  HZ1 d   1      -2.246   9.738  84.331  0.00  0.00    -0.046 A 
ATOM      5  C5  HZ1 d   1      -3.227   9.738  85.315  0.00  0.00    -0.033 A 
ATOM      6  O5  HZ1 d   1      -1.894   9.403  87.363  0.00  0.00    -0.306 OA
ATOM      7  C6  HZ1 d   1      -2.923  10.190  86.744  0.00  0.00     0.106 C 
ATOM      8  C7  HZ1 d   1      -4.100  10.011  87.697  0.00  0.00     0.154 C 
ATOM      9  C8  HZ1 d   1      -5.255  10.959  87.391  0.00  0.00     0.086 C 
ATOM     10  C9  HZ1 d   1      -6.187  10.355  86.335  0.00  0.00    -0.007 C 
ATOM     11  C10 HZ1 d   1      -5.646  10.280  84.903  0.00  0.00     0.079 C 
ATOM     12  C11 HZ1 d   1      -3.393  10.228  89.032  0.00  0.00     0.178 C 
ATOM     13  C12 HZ1 d   1      -2.004   9.682  88.693  0.00  0.00     0.297 C 
ATOM     14  O12 HZ1 d   1      -1.115   9.485  89.513  0.00  0.00    -0.262 OA
ATOM     15  H   HZ1 d   1      -4.880   8.321  85.228  0.00  0.00     0.055 H 
ATOM     16  H   HZ1 d   1      -4.937   9.663  82.672  0.00  0.00     0.090 H 
ATOM     17  H   HZ1 d   1      -2.291   8.442  82.558  0.00  0.00     0.095 H 
ATOM     18  H   HZ1 d   1      -2.647  11.236  86.612  0.00  0.00     0.096 H 
ATOM     19  H   HZ1 d   1      -5.834  11.063  88.308  0.00  0.00     0.089 H 
ATOM     20  H   HZ1 d   1      -7.058  11.009  86.293  0.00  0.00     0.041 H 
ATOM     21  H   HZ1 d   1      -6.364   9.325  86.644  0.00  0.00     0.041 H 
ENDROOT
BRANCH   9  22
ATOM     22  O7  HZ1 d   1      -4.845  12.305  87.104  0.00  0.00    -0.313 OA
BRANCH  22  23
ATOM     23  C27 HZ1 d   1      -4.937  13.128  88.184  0.00  0.00     0.259 C 
ATOM     24  O8  HZ1 d   1      -5.403  12.698  89.241  0.00  0.00    -0.265 OA
BRANCH  23  25
ATOM     25  C28 HZ1 d   1      -4.520  14.597  88.064  0.00  0.00     0.016 C 
ATOM     26  H   HZ1 d   1      -5.196  15.084  87.361  0.00  0.00     0.048 H 
ATOM     27  H   HZ1 d   1      -3.483  14.627  87.730  0.00  0.00     0.048 H 
BRANCH  25  28
ATOM     28  C29 HZ1 d   1      -4.610  15.339  89.401  0.00  0.00    -0.053 C 
ATOM     29  H   HZ1 d   1      -5.399  14.870  89.989  0.00  0.00     0.034 H 
ATOM     30  H   HZ1 d   1      -4.807  16.389  89.186  0.00  0.00     0.034 H 
BRANCH  28  31
ATOM     31  C30 HZ1 d   1      -3.315  15.264  90.213  0.00  0.00    -0.041 C 
ATOM     32  H   HZ1 d   1      -2.809  14.325  89.989  0.00  0.00     0.040 H 
ATOM     33  H   HZ1 d   1      -3.558  15.321  91.274  0.00  0.00     0.040 H 
BRANCH  31  34
ATOM     34  C56 HZ1 d   1      -2.390  16.427  89.850  0.00  0.00    -0.058 A 
ATOM     35  C55 HZ1 d   1      -1.735  16.450  88.624  0.00  0.00    -0.068 A 
ATOM     36  C54 HZ1 d   1      -0.927  17.521  88.248  0.00  0.00    -0.025 A 
ATOM     37  H   HZ1 d   1      -1.857  15.610  87.940  0.00  0.00     0.085 H 
ATOM     38  C59 HZ1 d   1      -0.779  18.572  89.139  0.00  0.00     0.071 A 
ATOM     39  C58 HZ1 d   1      -1.425  18.558  90.378  0.00  0.00    -0.050 A 
ATOM     40  C57 HZ1 d   1      -2.233  17.490  90.735  0.00  0.00    -0.074 A 
ATOM     41  H   HZ1 d   1      -1.293  19.392  91.068  0.00  0.00     0.087 H 
ATOM     42  H   HZ1 d   1      -2.741  17.483  91.700  0.00  0.00     0.084 H 
BRANCH  36  43
ATOM     43  C53 HZ1 d   1      -0.371  17.452  86.818  0.00  0.00    -0.038 C 
ATOM     44  H   HZ1 d   1       0.130  16.488  86.731  0.00  0.00     0.040 H 
ATOM     45  H   HZ1 d   1      -1.219  17.613  86.152  0.00  0.00     0.040 H 
BRANCH  43  46
ATOM     46  C52 HZ1 d   1       0.671  18.512  86.449  0.00  0.00    -0.061 C 
ATOM     47  H   HZ1 d   1       0.592  18.694  85.377  0.00  0.00     0.033 H 
ATOM     48  H   HZ1 d   1       0.469  19.398  87.051  0.00  0.00     0.033 H 
BRANCH  46  49
ATOM     49  C51 HZ1 d   1       2.108  18.071  86.740  0.00  0.00    -0.065 C 
ATOM     50  H   HZ1 d   1       2.235  17.955  87.816  0.00  0.00     0.033 H 
ATOM     51  H   HZ1 d   1       2.300  17.125  86.234  0.00  0.00     0.033 H 
BRANCH  49  52
ATOM     52  C50 HZ1 d   1       3.098  19.122  86.229  0.00  0.00    -0.064 C 
ATOM     53  H   HZ1 d   1       2.864  20.080  86.693  0.00  0.00     0.033 H 
ATOM     54  H   HZ1 d   1       4.109  18.805  86.483  0.00  0.00     0.033 H 
BRANCH  52  55
ATOM     55  C49 HZ1 d   1       2.995  19.272  84.709  0.00  0.00    -0.050 C 
ATOM     56  H   HZ1 d   1       3.888  18.839  84.259  0.00  0.00     0.035 H 
ATOM     57  H   HZ1 d   1       2.091  18.764  84.373  0.00  0.00     0.035 H 
BRANCH  55  58
ATOM     58  C48 HZ1 d   1       2.907  20.743  84.293  0.00  0.00    -0.003 C 
ATOM     59  H   HZ1 d   1       2.294  20.791  83.393  0.00  0.00     0.064 H 
ATOM     60  H   HZ1 d   1       2.491  21.296  85.135  0.00  0.00     0.064 H 
BRANCH  58  61
ATOM     61  N47 HZ1 d   1       4.210  21.344  83.972  0.00  0.00    -0.337 N 
ATOM     62  C45 HZ1 d   1       5.393  20.833  84.316  0.00  0.00     0.361 C 
ATOM     63  O46 HZ1 d   1       5.499  19.784  84.940  0.00  0.00    -0.238 OA
ATOM     64  H   HZ1 d   1       4.209  22.218  83.446  0.00  0.00     0.164 HD
BRANCH  62  65
ATOM     65  O44 HZ1 d   1       6.541  21.473  83.955  0.00  0.00    -0.294 OA
BRANCH  65  66
ATOM     66  C41 HZ1 d   1       6.346  22.657  83.172  0.00  0.00     0.061 C 
BRANCH  66  67
ATOM     67  C40 HZ1 d   1       7.721  23.263  82.881  0.00  0.00    -0.048 C 
ATOM     68  H   HZ1 d   1       8.329  22.538  82.339  0.00  0.00     0.031 H 
ATOM     69  H   HZ1 d   1       7.600  24.162  82.277  0.00  0.00     0.031 H 
ATOM     70  H   HZ1 d   1       8.210  23.519  83.821  0.00  0.00     0.031 H 
ENDBRANCH  66  67
BRANCH  66  71
ATOM     71  C42 HZ1 d   1       5.666  22.301  81.848  0.00  0.00    -0.048 C 
ATOM     72  H   HZ1 d   1       5.550  23.203  81.246  0.00  0.00     0.031 H 
ATOM     73  H   HZ1 d   1       6.279  21.579  81.309  0.00  0.00     0.031 H 
ATOM     74  H   HZ1 d   1       4.686  21.869  82.049  0.00  0.00     0.031 H 
ENDBRANCH  66  71
BRANCH  66  75
ATOM     75  C43 HZ1 d   1       5.507  23.666  83.959  0.00  0.00    -0.048 C 
ATOM     76  H   HZ1 d   1       6.010  23.901  84.897  0.00  0.00     0.031 H 
ATOM     77  H   HZ1 d   1       5.389  24.576  83.371  0.00  0.00     0.031 H 
ATOM     78  H   HZ1 d   1       4.527  23.237  84.168  0.00  0.00     0.031 H 
ENDBRANCH  66  75
ENDBRANCH  65  66
ENDBRANCH  62  65
ENDBRANCH  58  61
ENDBRANCH  55  58
ENDBRANCH  52  55
ENDBRANCH  49  52
ENDBRANCH  46  49
ENDBRANCH  43  46
ENDBRANCH  36  43
BRANCH  38  79
ATOM     79  O60 HZ1 d   1      -0.009  19.647  88.818  0.00  0.00    -0.360 OA
ATOM     80  H   HZ1 d   1       0.369  19.519  87.945  0.00  0.00     0.217 HD
ENDBRANCH  38  79
ENDBRANCH  31  34
ENDBRANCH  28  31
ENDBRANCH  25  28
ENDBRANCH  23  25
ENDBRANCH  22  23
ENDBRANCH   9  22
BRANCH   8  81
ATOM     81  O6  HZ1 d   1      -4.574   8.665  87.661  0.00  0.00    -0.380 OA
ATOM     82  H   HZ1 d   1      -3.867   8.071  87.923  0.00  0.00     0.211 HD
ENDBRANCH   8  81
BRANCH  12  83
ATOM     83  O11 HZ1 d   1      -3.310  11.618  89.347  0.00  0.00    -0.377 OA
ATOM     84  H   HZ1 d   1      -4.195  11.986  89.403  0.00  0.00     0.211 HD
ENDBRANCH  12  83
BRANCH  12  85
ATOM     85  C34 HZ1 d   1      -4.031   9.430  90.169  0.00  0.00    -0.036 C 
ATOM     86  H   HZ1 d   1      -5.071   9.735  90.286  0.00  0.00     0.032 H 
ATOM     87  H   HZ1 d   1      -3.987   8.367  89.934  0.00  0.00     0.032 H 
ATOM     88  H   HZ1 d   1      -3.489   9.622  91.095  0.00  0.00     0.032 H 
ENDBRANCH  12  85
BRANCH  11  89
ATOM     89  O9  HZ1 d   1      -6.689   9.829  84.035  0.00  0.00    -0.310 OA
BRANCH  89  90
ATOM     90  C32 HZ1 d   1      -7.761  10.659  83.928  0.00  0.00     0.255 C 
ATOM     91  O10 HZ1 d   1      -7.778  11.745  84.505  0.00  0.00    -0.266 OA
BRANCH  90  92
ATOM     92  C33 HZ1 d   1      -8.986  10.186  83.145  0.00  0.00     0.004 C 
ATOM     93  H   HZ1 d   1      -9.840  10.112  83.819  0.00  0.00     0.041 H 
ATOM     94  H   HZ1 d   1      -9.207  10.901  82.353  0.00  0.00     0.041 H 
ATOM     95  H   HZ1 d   1      -8.781   9.209  82.708  0.00  0.00     0.041 H 
ENDBRANCH  90  92
ENDBRANCH  89  90
ENDBRANCH  11  89
BRANCH  11  96
ATOM     96  C31 HZ1 d   1      -5.130  11.648  84.457  0.00  0.00    -0.046 C 
ATOM     97  H   HZ1 d   1      -5.945  12.371  84.492  0.00  0.00     0.031 H 
ATOM     98  H   HZ1 d   1      -4.329  11.968  85.124  0.00  0.00     0.031 H 
ATOM     99  H   HZ1 d   1      -4.750  11.577  83.438  0.00  0.00     0.031 H 
ENDBRANCH  11  96
BRANCH   4 100
ATOM    100  C26 HZ1 d   1      -0.777  10.091  84.579  0.00  0.00    -0.052 C 
ATOM    101  H   HZ1 d   1      -0.709  11.110  84.959  0.00  0.00     0.033 H 
ATOM    102  H   HZ1 d   1      -0.357   9.400  85.310  0.00  0.00     0.033 H 
ATOM    103  H   HZ1 d   1      -0.223  10.013  83.644  0.00  0.00     0.033 H 
ENDBRANCH   4 100
BRANCH   2 104
ATOM    104  O1  HZ1 d   1      -4.619   7.678  82.772  0.00  0.00    -0.312 OA
BRANCH 104 105
ATOM    105  C13 HZ1 d   1      -5.154   7.730  81.523  0.00  0.00     0.259 C 
ATOM    106  O2  HZ1 d   1      -5.424   8.831  81.035  0.00  0.00    -0.265 OA
BRANCH 105 107
ATOM    107  C14 HZ1 d   1      -5.504   6.437  80.781  0.00  0.00     0.016 C 
ATOM    108  H   HZ1 d   1      -6.337   5.975  81.312  0.00  0.00     0.048 H 
ATOM    109  H   HZ1 d   1      -4.602   5.826  80.754  0.00  0.00     0.048 H 
BRANCH 107 110
ATOM    110  C15 HZ1 d   1      -5.952   6.651  79.331  0.00  0.00    -0.057 C 
ATOM    111  H   HZ1 d   1      -6.330   7.670  79.247  0.00  0.00     0.033 H 
ATOM    112  H   HZ1 d   1      -6.705   5.897  79.101  0.00  0.00     0.033 H 
BRANCH 110 113
ATOM    113  C16 HZ1 d   1      -4.809   6.492  78.322  0.00  0.00    -0.065 C 
ATOM    114  H   HZ1 d   1      -4.343   5.519  78.477  0.00  0.00     0.033 H 
ATOM    115  H   HZ1 d   1      -4.097   7.303  78.475  0.00  0.00     0.033 H 
BRANCH 113 116
ATOM    116  C17 HZ1 d   1      -5.321   6.561  76.881  0.00  0.00    -0.065 C 
ATOM    117  H   HZ1 d   1      -5.646   7.582  76.680  0.00  0.00     0.033 H 
ATOM    118  H   HZ1 d   1      -6.140   5.850  76.773  0.00  0.00     0.033 H 
BRANCH 116 119
ATOM    119  C18 HZ1 d   1      -4.227   6.195  75.874  0.00  0.00    -0.065 C 
ATOM    120  H   HZ1 d   1      -3.846   5.202  76.115  0.00  0.00     0.033 H 
ATOM    121  H   HZ1 d   1      -3.433   6.940  75.932  0.00  0.00     0.033 H 
BRANCH 119 122
ATOM    122  C19 HZ1 d   1      -4.782   6.177  74.449  0.00  0.00    -0.069 C 
ATOM    123  H   HZ1 d   1      -5.611   5.471  74.400  0.00  0.00     0.032 H 
ATOM    124  H   HZ1 d   1      -3.989   5.880  73.763  0.00  0.00     0.032 H 
BRANCH 122 125
ATOM    125  C20 HZ1 d   1      -5.286   7.567  74.056  0.00  0.00    -0.077 C 
ATOM    126  H   HZ1 d   1      -6.076   7.873  74.742  0.00  0.00     0.027 H 
ATOM    127  H   HZ1 d   1      -4.462   8.279  74.108  0.00  0.00     0.027 H 
ATOM    128  H   HZ1 d   1      -5.678   7.536  73.039  0.00  0.00     0.027 H 
ENDBRANCH 122 125
ENDBRANCH 119 122
ENDBRANCH 116 119
ENDBRANCH 113 116
ENDBRANCH 110 113
ENDBRANCH 107 110
ENDBRANCH 105 107
ENDBRANCH 104 105
ENDBRANCH   2 104
BRANCH   3 129
ATOM    129  O3  HZ1 d   1      -2.691  10.397  82.052  0.00  0.00    -0.305 OA
BRANCH 129 130
ATOM    130  C21 HZ1 d   1      -2.560   9.926  80.781  0.00  0.00     0.289 C 
ATOM    131  O4  HZ1 d   1      -2.480   8.714  80.589  0.00  0.00    -0.260 OA
BRANCH 130 132
ATOM    132  C22 HZ1 d   1      -2.465  10.910  79.612  0.00  0.00     0.009 C 
ATOM    133  C24 HZ1 d   1      -2.388  12.279  79.841  0.00  0.00    -0.095 C 
ATOM    134  H   HZ1 d   1      -2.323  12.964  78.996  0.00  0.00     0.077 H 
BRANCH 132 135
ATOM    135  C23 HZ1 d   1      -2.458  10.380  78.177  0.00  0.00    -0.046 C 
ATOM    136  H   HZ1 d   1      -3.311  10.790  77.635  0.00  0.00     0.033 H 
ATOM    137  H   HZ1 d   1      -1.534  10.682  77.684  0.00  0.00     0.033 H 
ATOM    138  H   HZ1 d   1      -2.525   9.292  78.192  0.00  0.00     0.033 H 
ENDBRANCH 132 135
BRANCH 133 139
ATOM    139  C25 HZ1 d   1      -2.394  12.834  81.266  0.00  0.00    -0.059 C 
ATOM    140  H   HZ1 d   1      -3.318  12.541  81.765  0.00  0.00     0.032 H 
ATOM    141  H   HZ1 d   1      -1.541  12.433  81.814  0.00  0.00     0.032 H 
ATOM    142  H   HZ1 d   1      -2.327  13.921  81.231  0.00  0.00     0.032 H 
ENDBRANCH 133 139
ENDBRANCH 130 132
ENDBRANCH 129 130
ENDBRANCH   3 129
TORSDOF 41
