REMARK  5 active torsions:
REMARK  status: ('A' for Active; 'I' for Inactive)
REMARK    1  A    between atoms: N27_19  and  C6_6 
REMARK    2  A    between atoms: N11_8  and  C16_13 
REMARK    3  A    between atoms: C12_9  and  S24_16 
REMARK    4  A    between atoms: S24_16  and  C25_17 
REMARK       I    between atoms: C26_18  and  N27_19 
REMARK    5  A    between atoms: C32_23  and  C26_18 
ROOT
ATOM      1  C1  TR3 d   1      -5.221   2.629  17.398  0.00  0.00    -0.056 A 
ATOM      2  C2  TR3 d   1      -4.242   1.984  16.636  0.00  0.00    -0.066 A 
ATOM      3  C3  TR3 d   1      -3.810   0.694  16.996  0.00  0.00     0.030 A 
ATOM      4  C4  TR3 d   1      -4.388   0.057  18.123  0.00  0.00     0.074 A 
ATOM      5  C5  TR3 d   1      -5.373   0.687  18.889  0.00  0.00    -0.028 A 
ATOM      6  C6  TR3 d   1      -5.777   1.985  18.521  0.00  0.00     0.036 A 
ATOM      7  N10 TR3 d   1      -2.851  -1.350  17.198  0.00  0.00    -0.159 NA
ATOM      8  N11 TR3 d   1      -3.755  -1.181  18.190  0.00  0.00    -0.232 N 
ATOM      9  C12 TR3 d   1      -2.880  -0.249  16.501  0.00  0.00     0.126 A 
ATOM     10  H1  TR3 d   1      -5.552   3.624  17.125  0.00  0.00     0.086 H 
ATOM     11  H2  TR3 d   1      -3.817   2.477  15.769  0.00  0.00     0.085 H 
ATOM     12  H3  TR3 d   1      -5.815   0.189  19.745  0.00  0.00     0.090 H 
ENDROOT
BRANCH   6  13
ATOM     13  N27 TR3 d   1      -6.820   2.654  19.181  0.00  0.00    -0.327 N 
ATOM     14  C26 TR3 d   1      -7.610   2.136  20.125  0.00  0.00     0.226 C 
ATOM     15  O28 TR3 d   1      -7.559   0.977  20.570  0.00  0.00    -0.273 OA
ATOM     16  H12 TR3 d   1      -6.987   3.605  18.921  0.00  0.00     0.169 HD
BRANCH  14  17
ATOM     17  C32 TR3 d   1      -8.768   3.043  20.516  0.00  0.00     0.027 C 
ATOM     18  C31 TR3 d   1      -9.156   2.773  21.985  0.00  0.00    -0.031 C 
ATOM     19  C30 TR3 d   1     -10.413   3.585  22.313  0.00  0.00     0.082 C 
ATOM     20  H15 TR3 d   1      -9.360   1.701  22.124  0.00  0.00     0.036 H 
ATOM     21  H16 TR3 d   1      -8.333   3.079  22.648  0.00  0.00     0.036 H 
ATOM     22  N35 TR3 d   1     -11.499   3.253  21.379  0.00  0.00    -0.075 N 
ATOM     23  H13 TR3 d   1     -10.182   4.657  22.233  0.00  0.00     0.075 H 
ATOM     24  H14 TR3 d   1     -10.735   3.355  23.339  0.00  0.00     0.075 H 
ATOM     25  C34 TR3 d   1     -11.170   3.664  20.011  0.00  0.00     0.082 C 
ATOM     26  H22 TR3 d   1     -12.339   3.727  21.671  0.00  0.00     0.277 HD
ATOM     27  H23 TR3 d   1     -11.652   2.257  21.395  0.00  0.00     0.277 HD
ATOM     28  C33 TR3 d   1      -9.960   2.838  19.549  0.00  0.00    -0.031 C 
ATOM     29  H20 TR3 d   1     -12.027   3.475  19.348  0.00  0.00     0.075 H 
ATOM     30  H21 TR3 d   1     -10.921   4.735  19.992  0.00  0.00     0.075 H 
ATOM     31  H18 TR3 d   1     -10.233   1.773  19.531  0.00  0.00     0.036 H 
ATOM     32  H19 TR3 d   1      -9.667   3.158  18.538  0.00  0.00     0.036 H 
ATOM     33  H17 TR3 d   1      -8.438   4.089  20.434  0.00  0.00     0.054 H 
ENDBRANCH  14  17
ENDBRANCH   6  13
BRANCH   8  34
ATOM     34  C16 TR3 d   1      -4.005  -2.216  19.113  0.00  0.00     0.059 A 
ATOM     35  C15 TR3 d   1      -4.120  -3.544  18.673  0.00  0.00    -0.055 A 
ATOM     36  C14 TR3 d   1      -4.432  -4.567  19.586  0.00  0.00    -0.081 A 
ATOM     37  H6  TR3 d   1      -3.968  -3.782  17.626  0.00  0.00     0.087 H 
ATOM     38  C13 TR3 d   1      -4.675  -4.275  20.938  0.00  0.00    -0.083 A 
ATOM     39  H5  TR3 d   1      -4.486  -5.594  19.242  0.00  0.00     0.083 H 
ATOM     40  C18 TR3 d   1      -4.604  -2.941  21.375  0.00  0.00    -0.081 A 
ATOM     41  H4  TR3 d   1      -4.915  -5.069  21.636  0.00  0.00     0.083 H 
ATOM     42  C17 TR3 d   1      -4.307  -1.914  20.456  0.00  0.00    -0.055 A 
ATOM     43  H8  TR3 d   1      -4.777  -2.702  22.418  0.00  0.00     0.083 H 
ATOM     44  H7  TR3 d   1      -4.311  -0.881  20.786  0.00  0.00     0.087 H 
ENDBRANCH   8  34
BRANCH   9  45
ATOM     45  S24 TR3 d   1      -1.936  -0.029  15.042  0.00  0.00    -0.112 SA
BRANCH  45  46
ATOM     46  C25 TR3 d   1      -3.169  -0.212  13.729  0.00  0.00    -0.029 C 
ATOM     47  H9  TR3 d   1      -2.683  -0.091  12.750  0.00  0.00     0.042 H 
ATOM     48  H10 TR3 d   1      -3.948   0.555  13.848  0.00  0.00     0.042 H 
ATOM     49  H11 TR3 d   1      -3.625  -1.211  13.791  0.00  0.00     0.042 H 
ENDBRANCH  45  46
ENDBRANCH   9  45
TORSDOF 5
