REMARK  6 active torsions:
REMARK  status: ('A' for Active; 'I' for Inactive)
REMARK    1  A    between atoms: C6_6  and  NAC_9 
REMARK    2  A    between atoms: CAW_23  and  CAA_7 
REMARK    3  A    between atoms: CAW_23  and  CAB_8 
REMARK    4  A    between atoms: CAL_17  and  CAQ_19 
REMARK    5  A    between atoms: CAR_20  and  CAL_17 
REMARK    6  A    between atoms: CAW_23  and  NAX_24 
ROOT
ATOM      1  N1  BK1 d   1      27.490   6.233   6.704  0.00  0.00    -0.224 NA
ATOM      2  C2  BK1 d   1      27.529   5.508   5.605  0.00  0.00     0.091 A 
ATOM      3  N3  BK1 d   1      26.896   5.889   4.502  0.00  0.00    -0.222 NA
ATOM      4  C4  BK1 d   1      26.205   7.029   4.462  0.00  0.00     0.163 A 
ATOM      5  C5  BK1 d   1      26.131   7.835   5.593  0.00  0.00     0.084 A 
ATOM      6  C6  BK1 d   1      26.811   7.392   6.741  0.00  0.00     0.138 A 
ATOM      7  NAO BK1 d   1      25.005   8.677   3.925  0.00  0.00    -0.174 NA
ATOM      8  CAR BK1 d   1      25.336   8.914   5.191  0.00  0.00     0.077 A 
ATOM      9  NAX BK1 d   1      25.512   7.626   3.513  0.00  0.00    -0.247 N 
ATOM     10  H   BK1 d   1      28.093   4.575   5.601  0.00  0.00     0.146 H 
ENDROOT
BRANCH   8  11
ATOM     11  CAL BK1 d   1      24.832  10.159   5.937  0.00  0.00     0.003 C 
ATOM     12  H   BK1 d   1      24.104  10.633   5.279  0.00  0.00     0.049 H 
ATOM     13  H   BK1 d   1      24.457   9.806   6.897  0.00  0.00     0.049 H 
BRANCH  11  14
ATOM     14  CAQ BK1 d   1      25.890  11.240   6.259  0.00  0.00    -0.041 A 
ATOM     15  CAG BK1 d   1      27.254  10.953   6.200  0.00  0.00    -0.076 A 
ATOM     16  CAF BK1 d   1      28.196  11.934   6.494  0.00  0.00    -0.082 A 
ATOM     17  H   BK1 d   1      27.584   9.952   5.921  0.00  0.00     0.084 H 
ATOM     18  CAI BK1 d   1      27.785  13.210   6.861  0.00  0.00    -0.072 A 
ATOM     19  H   BK1 d   1      29.259  11.701   6.436  0.00  0.00     0.083 H 
ATOM     20  CAS BK1 d   1      26.425  13.497   6.917  0.00  0.00    -0.025 A 
ATOM     21  H   BK1 d   1      28.520  13.977   7.102  0.00  0.00     0.084 H 
ATOM     22  CAH BK1 d   1      25.984  14.772   7.273  0.00  0.00    -0.072 A 
ATOM     23  CAT BK1 d   1      25.496  12.523   6.609  0.00  0.00    -0.019 A 
ATOM     24  CAD BK1 d   1      24.634  15.087   7.333  0.00  0.00    -0.082 A 
ATOM     25  H   BK1 d   1      26.719  15.541   7.510  0.00  0.00     0.084 H 
ATOM     26  CAE BK1 d   1      23.712  14.101   7.039  0.00  0.00    -0.082 A 
ATOM     27  H   BK1 d   1      24.308  16.091   7.606  0.00  0.00     0.083 H 
ATOM     28  CAJ BK1 d   1      24.139  12.828   6.672  0.00  0.00    -0.072 A 
ATOM     29  H   BK1 d   1      22.646  14.321   7.095  0.00  0.00     0.083 H 
ATOM     30  H   BK1 d   1      23.403  12.061   6.431  0.00  0.00     0.084 H 
ENDBRANCH  11  14
ENDBRANCH   8  11
BRANCH   6  31
ATOM     31  NAC BK1 d   1      26.815   8.045   7.883  0.00  0.00    -0.383 N 
ATOM     32  H   BK1 d   1      26.305   8.924   7.970  0.00  0.00     0.157 HD
ATOM     33  H   BK1 d   1      27.328   7.672   8.682  0.00  0.00     0.157 HD
ENDBRANCH   6  31
BRANCH   9  34
ATOM     34  CAW BK1 d   1      25.276   7.111   2.154  0.00  0.00     0.029 C 
ATOM     35  H   BK1 d   1      26.006   6.337   1.916  0.00  0.00     0.074 H 
BRANCH  34  36
ATOM     36  CAA BK1 d   1      25.378   8.241   1.140  0.00  0.00    -0.056 C 
ATOM     37  H   BK1 d   1      25.130   7.862   0.149  0.00  0.00     0.030 H 
ATOM     38  H   BK1 d   1      24.682   9.035   1.411  0.00  0.00     0.030 H 
ATOM     39  H   BK1 d   1      26.395   8.633   1.136  0.00  0.00     0.030 H 
ENDBRANCH  34  36
BRANCH  34  40
ATOM     40  CAB BK1 d   1      23.824   6.596   2.118  0.00  0.00    -0.056 C 
ATOM     41  H   BK1 d   1      23.702   5.805   2.858  0.00  0.00     0.030 H 
ATOM     42  H   BK1 d   1      23.143   7.416   2.345  0.00  0.00     0.030 H 
ATOM     43  H   BK1 d   1      23.604   6.203   1.125  0.00  0.00     0.030 H 
ENDBRANCH  34  40
ENDBRANCH   9  34
TORSDOF 6
