REMARK  10 active torsions:
REMARK  status: ('A' for Active; 'I' for Inactive)
REMARK    1  A    between atoms: O3B_8  and  PG_1 
REMARK    2  A    between atoms: PB_5  and  O3B_8 
REMARK    3  A    between atoms: O3A_12  and  PB_5 
REMARK    4  A    between atoms: PA_9  and  O3A_12 
REMARK    5  A    between atoms: PA_9  and  O5'_13 
REMARK    6  A    between atoms: O5'_13  and  C5'_14 
REMARK    7  A    between atoms: C5'_14  and  C4'_15 
REMARK    8  A    between atoms: C3'_17  and  O3'_18 
REMARK    9  A    between atoms: C2'_19  and  O2'_20 
REMARK   10  A    between atoms: C1'_21  and  N9_22 
ROOT
ATOM      1  C4' ATP d   1      19.061  17.723  27.977  0.00  0.00     0.089 C 
ATOM      2  O4' ATP d   1      18.698  17.226  29.283  0.00  0.00    -0.353 OA
ATOM      3  C3' ATP d   1      20.153  16.772  27.514  0.00  0.00     0.091 C 
ATOM      4  C2' ATP d   1      20.952  16.500  28.751  0.00  0.00     0.105 C 
ATOM      5  C1' ATP d   1      19.847  16.494  29.789  0.00  0.00     0.139 C 
ATOM      6  H3  ATP d   1      19.464  18.744  28.056  0.00  0.00     0.090 H 
ATOM      7  H4  ATP d   1      19.697  15.834  27.163  0.00  0.00     0.091 H 
ATOM      8  H6  ATP d   1      21.541  15.572  28.700  0.00  0.00     0.093 H 
ATOM      9  H8  ATP d   1      20.213  16.944  30.723  0.00  0.00     0.122 H 
ENDROOT
BRANCH   1  10
ATOM     10  C5' ATP d   1      17.867  17.751  27.056  0.00  0.00     0.058 C 
ATOM     11  H1  ATP d   1      17.117  18.460  27.436  0.00  0.00     0.079 H 
ATOM     12  H2  ATP d   1      18.180  18.055  26.046  0.00  0.00     0.079 H 
BRANCH  10  13
ATOM     13  O5' ATP d   1      17.318  16.442  27.018  0.00  0.00    -0.287 OA
BRANCH  13  14
ATOM     14  PA  ATP d   1      15.877  16.032  26.524  0.00  0.00     0.417 P 
ATOM     15  O1A ATP d   1      15.408  14.882  27.335  0.00  0.00    -0.624 OA
ATOM     16  O2A ATP d   1      15.078  17.252  26.391  0.00  0.00    -0.624 OA
BRANCH  14  17
ATOM     17  O3A ATP d   1      16.171  15.502  25.097  0.00  0.00    -0.180 OA
BRANCH  17  18
ATOM     18  PB  ATP d   1      15.469  14.305  24.217  0.00  0.00     0.428 P 
ATOM     19  O1B ATP d   1      15.560  13.038  24.996  0.00  0.00    -0.624 OA
ATOM     20  O2B ATP d   1      16.100  14.304  22.873  0.00  0.00    -0.624 OA
BRANCH  18  21
ATOM     21  O3B ATP d   1      13.989  14.873  24.103  0.00  0.00    -0.173 OA
BRANCH  21  22
ATOM     22  PG  ATP d   1      12.633  14.510  24.859  0.00  0.00     0.431 P 
ATOM     23  O1G ATP d   1      12.184  13.401  24.056  0.00  0.00    -0.616 OA
ATOM     24  O2G ATP d   1      12.910  14.021  26.313  0.00  0.00    -0.616 OA
ATOM     25  O3G ATP d   1      11.679  15.586  24.696  0.00  0.00    -0.616 OA
ENDBRANCH  21  22
ENDBRANCH  18  21
ENDBRANCH  17  18
ENDBRANCH  14  17
ENDBRANCH  13  14
ENDBRANCH  10  13
ENDBRANCH   1  10
BRANCH   3  26
ATOM     26  O3' ATP d   1      20.953  17.321  26.404  0.00  0.00    -0.390 OA
ATOM     27  H5  ATP d   1      20.386  17.496  25.663  0.00  0.00     0.210 HD
ENDBRANCH   3  26
BRANCH   5  28
ATOM     28  N9  ATP d   1      19.364  15.100  30.035  0.00  0.00    -0.294 N 
ATOM     29  C8  ATP d   1      18.324  14.467  29.365  0.00  0.00     0.071 A 
ATOM     30  N7  ATP d   1      18.125  13.244  29.937  0.00  0.00    -0.236 NA
ATOM     31  H9  ATP d   1      17.763  14.877  28.526  0.00  0.00     0.144 H 
ATOM     32  C5  ATP d   1      19.075  13.082  30.930  0.00  0.00     0.149 A 
ATOM     33  C6  ATP d   1      19.402  12.050  31.918  0.00  0.00     0.155 A 
ATOM     34  C4  ATP d   1      19.845  14.287  30.976  0.00  0.00     0.167 A 
ATOM     35  N6  ATP d   1      18.686  10.887  31.924  0.00  0.00    -0.382 N 
ATOM     36  N1  ATP d   1      20.406  12.324  32.781  0.00  0.00    -0.222 NA
ATOM     37  H10 ATP d   1      18.903  10.152  32.612  0.00  0.00     0.157 HD
ATOM     38  H11 ATP d   1      17.929  10.745  31.241  0.00  0.00     0.157 HD
ATOM     39  C2  ATP d   1      21.106  13.483  32.778  0.00  0.00     0.091 A 
ATOM     40  N3  ATP d   1      20.832  14.477  31.890  0.00  0.00    -0.222 NA
ATOM     41  H12 ATP d   1      21.903  13.622  33.499  0.00  0.00     0.146 H 
ENDBRANCH   5  28
BRANCH   4  42
ATOM     42  O2' ATP d   1      21.736  17.627  29.074  0.00  0.00    -0.388 OA
ATOM     43  H7  ATP d   1      22.239  17.447  29.859  0.00  0.00     0.210 HD
ENDBRANCH   4  42
TORSDOF 10
