REMARK  8 active torsions:
REMARK  status: ('A' for Active; 'I' for Inactive)
REMARK    1  A    between atoms: O3A_8  and  PB_1 
REMARK    2  A    between atoms: PA_5  and  O3A_8 
REMARK    3  A    between atoms: PA_5  and  O5'_9 
REMARK    4  A    between atoms: O5'_9  and  C5'_10 
REMARK    5  A    between atoms: C5'_10  and  C4'_11 
REMARK    6  A    between atoms: C3'_13  and  O3'_14 
REMARK    7  A    between atoms: C2'_15  and  O2'_16 
REMARK    8  A    between atoms: C1'_17  and  N9_18 
ROOT
ATOM      1  C4' ADP d   1      19.301  18.022  28.265  0.00  0.00     0.089 C 
ATOM      2  O4' ADP d   1      19.026  17.517  29.556  0.00  0.00    -0.353 OA
ATOM      3  C3' ADP d   1      20.444  17.163  27.755  0.00  0.00     0.091 C 
ATOM      4  C2' ADP d   1      21.232  16.873  29.000  0.00  0.00     0.105 C 
ATOM      5  C1' ADP d   1      20.134  16.774  30.038  0.00  0.00     0.139 C 
ATOM      6  H3  ADP d   1      19.634  19.069  28.329  0.00  0.00     0.090 H 
ATOM      7  H4  ADP d   1      20.027  16.218  27.377  0.00  0.00     0.091 H 
ATOM      8  H6  ADP d   1      21.827  15.953  28.905  0.00  0.00     0.093 H 
ATOM      9  H8  ADP d   1      20.499  17.223  30.974  0.00  0.00     0.122 H 
ENDROOT
BRANCH   5  10
ATOM     10  N9  ADP d   1      19.695  15.399  30.330  0.00  0.00    -0.294 N 
ATOM     11  C8  ADP d   1      18.714  14.784  29.714  0.00  0.00     0.071 A 
ATOM     12  N7  ADP d   1      18.505  13.559  30.201  0.00  0.00    -0.236 NA
ATOM     13  H9  ADP d   1      18.137  15.222  28.900  0.00  0.00     0.144 H 
ATOM     14  C5  ADP d   1      19.400  13.354  31.168  0.00  0.00     0.149 A 
ATOM     15  C6  ADP d   1      19.754  12.276  32.093  0.00  0.00     0.155 A 
ATOM     16  C4  ADP d   1      20.183  14.575  31.249  0.00  0.00     0.167 A 
ATOM     17  N6  ADP d   1      19.109  11.115  32.126  0.00  0.00    -0.382 N 
ATOM     18  N1  ADP d   1      20.726  12.520  32.934  0.00  0.00    -0.222 NA
ATOM     19  H10 ADP d   1      19.395  10.386  32.795  0.00  0.00     0.157 HD
ATOM     20  H11 ADP d   1      18.323  10.944  31.483  0.00  0.00     0.157 HD
ATOM     21  C2  ADP d   1      21.403  13.653  32.957  0.00  0.00     0.091 A 
ATOM     22  N3  ADP d   1      21.151  14.656  32.169  0.00  0.00    -0.222 NA
ATOM     23  H12 ADP d   1      22.212  13.752  33.671  0.00  0.00     0.146 H 
ENDBRANCH   5  10
BRANCH   4  24
ATOM     24  O2' ADP d   1      22.041  17.966  29.399  0.00  0.00    -0.388 OA
ATOM     25  H7  ADP d   1      22.518  17.735  30.188  0.00  0.00     0.210 HD
ENDBRANCH   4  24
BRANCH   1  26
ATOM     26  C5' ADP d   1      18.046  17.973  27.409  0.00  0.00     0.058 C 
ATOM     27  H1  ADP d   1      17.251  18.544  27.911  0.00  0.00     0.079 H 
ATOM     28  H2  ADP d   1      18.265  18.430  26.433  0.00  0.00     0.079 H 
BRANCH  26  29
ATOM     29  O5' ADP d   1      17.603  16.671  27.206  0.00  0.00    -0.287 OA
BRANCH  29  30
ATOM     30  PA  ADP d   1      16.188  16.293  26.612  0.00  0.00     0.418 P 
ATOM     31  O1A ADP d   1      15.738  15.114  27.344  0.00  0.00    -0.624 OA
ATOM     32  O2A ADP d   1      15.353  17.461  26.590  0.00  0.00    -0.624 OA
BRANCH  30  33
ATOM     33  O3A ADP d   1      16.554  15.775  25.172  0.00  0.00    -0.173 OA
BRANCH  33  34
ATOM     34  PB  ADP d   1      15.853  14.600  24.259  0.00  0.00     0.431 P 
ATOM     35  O1B ADP d   1      15.817  13.349  24.974  0.00  0.00    -0.616 OA
ATOM     36  O2B ADP d   1      16.631  14.555  23.028  0.00  0.00    -0.616 OA
ATOM     37  O3B ADP d   1      14.521  15.126  24.079  0.00  0.00    -0.616 OA
ENDBRANCH  33  34
ENDBRANCH  30  33
ENDBRANCH  29  30
ENDBRANCH  26  29
ENDBRANCH   1  26
BRANCH   3  38
ATOM     38  O3' ADP d   1      21.200  17.720  26.683  0.00  0.00    -0.390 OA
ATOM     39  H5  ADP d   1      20.628  17.874  25.940  0.00  0.00     0.210 HD
ENDBRANCH   3  38
TORSDOF 8
