REMARK  3 active torsions:
REMARK  status: ('A' for Active; 'I' for Inactive)
REMARK    1  A    between atoms: C20_20  and  C1_1 
REMARK    2  A    between atoms: C4_4  and  N22_22 
REMARK    3  A    between atoms: N19_19  and  C15_15 
REMARK       I    between atoms: N19_19  and  C20_20 
ROOT
ATOM      1  N19 3NC d   1     -13.567  -1.996  41.615  0.00  0.00    -0.325 N 
ATOM      2  C20 3NC d   1     -14.384  -3.015  41.306  0.00  0.00     0.226 C 
ATOM      3  O21 3NC d   1     -14.840  -3.123  40.195  0.00  0.00    -0.273 OA
ATOM      4  H   3NC d   1     -13.157  -1.985  42.549  0.00  0.00     0.169 HD
ENDROOT
BRANCH   2   5
ATOM      5  C1  3NC d   1     -14.717  -4.032  42.361  0.00  0.00     0.024 C 
ATOM      6  C2  3NC d   1     -15.324  -5.259  41.708  0.00  0.00    -0.052 C 
ATOM      7  C3  3NC d   1     -15.755  -6.217  42.811  0.00  0.00    -0.038 C 
ATOM      8  H   3NC d   1     -14.593  -5.739  41.057  0.00  0.00     0.034 H 
ATOM      9  H   3NC d   1     -16.183  -4.975  41.100  0.00  0.00     0.034 H 
ATOM     10  C4  3NC d   1     -16.889  -5.584  43.607  0.00  0.00     0.100 C 
ATOM     11  H   3NC d   1     -14.912  -6.418  43.471  0.00  0.00     0.036 H 
ATOM     12  H   3NC d   1     -16.095  -7.154  42.370  0.00  0.00     0.036 H 
ATOM     13  C5  3NC d   1     -16.318  -4.367  44.302  0.00  0.00    -0.038 C 
ATOM     14  H   3NC d   1     -17.306  -6.287  44.327  0.00  0.00     0.083 H 
ATOM     15  C6  3NC d   1     -15.774  -3.394  43.262  0.00  0.00    -0.052 C 
ATOM     16  H   3NC d   1     -15.511  -4.675  44.968  0.00  0.00     0.036 H 
ATOM     17  H   3NC d   1     -17.102  -3.878  44.880  0.00  0.00     0.036 H 
ATOM     18  H   3NC d   1     -16.605  -3.075  42.633  0.00  0.00     0.034 H 
ATOM     19  H   3NC d   1     -15.308  -2.562  43.791  0.00  0.00     0.034 H 
ATOM     20  H   3NC d   1     -13.826  -4.324  42.917  0.00  0.00     0.054 H 
BRANCH  10  21
ATOM     21  N22 3NC d   1     -17.940  -5.161  42.685  0.00  0.00    -0.075 N 
ATOM     22  H   3NC d   1     -18.327  -5.979  42.215  0.00  0.00     0.274 HD
ATOM     23  H   3NC d   1     -18.677  -4.686  43.206  0.00  0.00     0.274 HD
ATOM     24  H   3NC d   1     -17.547  -4.524  41.993  0.00  0.00     0.274 HD
ENDBRANCH  10  21
ENDBRANCH   2   5
BRANCH   1  25
ATOM     25  C15 3NC d   1     -13.235  -0.941  40.743  0.00  0.00     0.057 A 
ATOM     26  C14 3NC d   1     -11.972  -0.333  40.773  0.00  0.00     0.061 A 
ATOM     27  C13 3NC d   1     -11.676   0.721  39.948  0.00  0.00    -0.044 A 
ATOM     28 CL18 3NC d   1     -10.774  -0.975  41.867  0.00  0.00    -0.082 Cl
ATOM     29  C7  3NC d   1     -12.652   1.220  39.081  0.00  0.00     0.044 A 
ATOM     30  H   3NC d   1     -10.682   1.169  39.968  0.00  0.00     0.087 H 
ATOM     31  C8  3NC d   1     -13.936   0.633  39.058  0.00  0.00    -0.017 A 
ATOM     32  C12 3NC d   1     -12.423   2.357  38.174  0.00  0.00     0.256 A 
ATOM     33  C9  3NC d   1     -14.943   1.175  38.139  0.00  0.00    -0.057 A 
ATOM     34  C16 3NC d   1     -14.214  -0.439  39.903  0.00  0.00    -0.044 A 
ATOM     35  C10 3NC d   1     -14.633   2.209  37.345  0.00  0.00    -0.019 A 
ATOM     36  H   3NC d   1     -15.941   0.738  38.102  0.00  0.00     0.086 H 
ATOM     37  N11 3NC d   1     -13.405   2.799  37.361  0.00  0.00    -0.333 N 
ATOM     38  H   3NC d   1     -15.391   2.592  36.661  0.00  0.00     0.111 H 
ATOM     39  H   3NC d   1     -13.224   3.592  36.745  0.00  0.00     0.168 HD
ATOM     40  H   3NC d   1     -15.209  -0.885  39.903  0.00  0.00     0.088 H 
ATOM     41  O17 3NC d   1     -11.341   2.909  38.143  0.00  0.00    -0.267 OA
ENDBRANCH   1  25
TORSDOF 3
