REMARK  3 active torsions:
REMARK  status: ('A' for Active; 'I' for Inactive)
REMARK    1  A    between atoms: C9_9  and  N11_11 
REMARK       I    between atoms: N11_11  and  C12_12 
REMARK    2  A    between atoms: C12_12  and  C13_13 
REMARK    3  A    between atoms: C17_17  and  C18_18 
ROOT
ATOM      1  C13 3ND d   1     -68.599   1.143  45.356  0.00  0.00     0.056 C 
ATOM      2  C14 3ND d   1     -68.277   0.893  46.863  0.00  0.00     0.094 C 
ATOM      3  N15 3ND d   1     -69.257   1.665  47.691  0.00  0.00    -0.074 N 
ATOM      4  C16 3ND d   1     -69.864   2.651  46.751  0.00  0.00     0.089 C 
ATOM      5  C17 3ND d   1     -69.914   1.919  45.402  0.00  0.00     0.008 C 
ATOM      6  H   3ND d   1     -67.776   1.672  44.876  0.00  0.00     0.058 H 
ATOM      7  H   3ND d   1     -67.261   1.220  47.086  0.00  0.00     0.076 H 
ATOM      8  H   3ND d   1     -68.354  -0.171  47.089  0.00  0.00     0.076 H 
ATOM      9  H   3ND d   1     -68.805   2.125  48.481  0.00  0.00     0.277 HD
ATOM     10  H   3ND d   1     -69.962   1.057  48.108  0.00  0.00     0.277 HD
ATOM     11  H   3ND d   1     -69.283   3.571  46.694  0.00  0.00     0.076 H 
ATOM     12  H   3ND d   1     -70.853   2.971  47.078  0.00  0.00     0.076 H 
ATOM     13  H   3ND d   1     -70.853   1.370  45.330  0.00  0.00     0.051 H 
ENDROOT
BRANCH   1  14
ATOM     14  C12 3ND d   1     -68.719  -0.113  44.485  0.00  0.00     0.228 C 
ATOM     15  N11 3ND d   1     -69.705  -0.216  43.529  0.00  0.00    -0.325 N 
ATOM     16  H   3ND d   1     -70.351   0.564  43.407  0.00  0.00     0.169 HD
ATOM     17  O27 3ND d   1     -67.893  -1.013  44.645  0.00  0.00    -0.273 OA
BRANCH  15  18
ATOM     18  C9  3ND d   1     -69.860  -1.360  42.708  0.00  0.00     0.057 A 
ATOM     19  C8  3ND d   1     -71.013  -2.112  42.867  0.00  0.00     0.061 A 
ATOM     20  C7  3ND d   1     -71.271  -3.244  42.160  0.00  0.00    -0.044 A 
ATOM     21 CL26 3ND d   1     -72.159  -1.585  44.016  0.00  0.00    -0.082 Cl
ATOM     22  C6  3ND d   1     -70.338  -3.692  41.227  0.00  0.00     0.042 A 
ATOM     23  H   3ND d   1     -72.198  -3.795  42.321  0.00  0.00     0.087 H 
ATOM     24  C3  3ND d   1     -70.545  -4.905  40.430  0.00  0.00     0.277 A 
ATOM     25  C5  3ND d   1     -69.150  -2.966  41.044  0.00  0.00    -0.035 A 
ATOM     26  N2  3ND d   1     -69.624  -5.303  39.545  0.00  0.00    -0.226 NA
ATOM     27  O25 3ND d   1     -71.551  -5.564  40.554  0.00  0.00    -0.265 OA
ATOM     28  C1  3ND d   1     -68.475  -4.596  39.365  0.00  0.00    -0.010 A 
ATOM     29  C4  3ND d   1     -68.203  -3.478  40.058  0.00  0.00    -0.009 A 
ATOM     30  H   3ND d   1     -67.750  -4.950  38.632  0.00  0.00     0.108 H 
ATOM     31  H   3ND d   1     -68.158  -2.697  39.299  0.00  0.00     0.048 H 
ATOM     32  H   3ND d   1     -67.320  -3.734  40.643  0.00  0.00     0.048 H 
ATOM     33  C10 3ND d   1     -68.916  -1.804  41.787  0.00  0.00    -0.048 A 
ATOM     34  H   3ND d   1     -67.991  -1.245  41.644  0.00  0.00     0.087 H 
ENDBRANCH  15  18
ENDBRANCH   1  14
BRANCH   5  35
ATOM     35  C18 3ND d   1     -69.733   2.844  44.264  0.00  0.00    -0.051 A 
ATOM     36  C19 3ND d   1     -68.491   3.428  44.067  0.00  0.00    -0.075 A 
ATOM     37  C20 3ND d   1     -68.290   4.277  42.997  0.00  0.00    -0.061 A 
ATOM     38  H   3ND d   1     -67.674   3.217  44.757  0.00  0.00     0.084 H 
ATOM     39  C21 3ND d   1     -69.345   4.519  42.129  0.00  0.00     0.034 A 
ATOM     40  H   3ND d   1     -67.320   4.748  42.837  0.00  0.00     0.086 H 
ATOM     41  C22 3ND d   1     -70.590   3.921  42.323  0.00  0.00    -0.061 A 
ATOM     42 CL24 3ND d   1     -69.134   5.578  40.784  0.00  0.00    -0.084 Cl
ATOM     43  C23 3ND d   1     -70.792   3.062  43.405  0.00  0.00    -0.075 A 
ATOM     44  H   3ND d   1     -71.406   4.124  41.629  0.00  0.00     0.086 H 
ATOM     45  H   3ND d   1     -71.755   2.579  43.567  0.00  0.00     0.084 H 
ENDBRANCH   5  35
TORSDOF 3
