REMARK  4 active torsions:
REMARK  status: ('A' for Active; 'I' for Inactive)
REMARK    1  A    between atoms: N1_4  and  S_1 
REMARK    2  A    between atoms: S_1  and  C4_10 
REMARK    3  A    between atoms: C11_17  and  N1_4 
REMARK    4  A    between atoms: C11_17  and  C12_18 
ROOT
ATOM      1  S   PYV d   1     -54.961  40.290 -22.255  0.00  0.00     0.260 S 
ATOM      2  O1  PYV d   1     -54.159  41.145 -23.072  0.00  0.00    -0.201 OA
ATOM      3  O2  PYV d   1     -54.458  38.946 -22.292  0.00  0.00    -0.201 OA
ENDROOT
BRANCH   1   4
ATOM      4  N1  PYV d   1     -54.959  40.839 -20.742  0.00  0.00    -0.310 N 
ATOM      5  H1  PYV d   1     -54.693  41.789 -20.578  0.00  0.00     0.172 HD
BRANCH   4   6
ATOM      6  C11 PYV d   1     -55.327  40.016 -19.605  0.00  0.00     0.043 C 
ATOM      7  H8  PYV d   1     -54.605  40.176 -18.790  0.00  0.00     0.074 H 
ATOM      8  H9  PYV d   1     -55.315  38.957 -19.902  0.00  0.00     0.074 H 
BRANCH   6   9
ATOM      9  C12 PYV d   1     -56.726  40.391 -19.123  0.00  0.00     0.052 A 
ATOM     10  N2  PYV d   1     -57.302  39.743 -18.086  0.00  0.00    -0.264 NA
ATOM     11  C13 PYV d   1     -58.528  40.050 -17.634  0.00  0.00     0.003 A 
ATOM     12  C14 PYV d   1     -59.269  41.063 -18.224  0.00  0.00    -0.066 A 
ATOM     13  H10 PYV d   1     -58.944  39.500 -16.798  0.00  0.00     0.114 H 
ATOM     14  C15 PYV d   1     -58.701  41.743 -19.280  0.00  0.00    -0.080 A 
ATOM     15  H11 PYV d   1     -60.262  41.312 -17.867  0.00  0.00     0.085 H 
ATOM     16  C16 PYV d   1     -57.429  41.415 -19.728  0.00  0.00    -0.058 A 
ATOM     17  H12 PYV d   1     -59.252  42.541 -19.765  0.00  0.00     0.083 H 
ATOM     18  H13 PYV d   1     -56.987  41.962 -20.553  0.00  0.00     0.086 H 
ENDBRANCH   6   9
ENDBRANCH   4   6
ENDBRANCH   1   4
BRANCH   1  19
ATOM     19  C4  PYV d   1     -56.465  40.314 -22.766  0.00  0.00     0.090 A 
ATOM     20  C3  PYV d   1     -57.249  41.563 -22.876  0.00  0.00    -0.001 A 
ATOM     21  C2  PYV d   1     -58.646  41.464 -23.335  0.00  0.00    -0.007 A 
ATOM     22  C7  PYV d   1     -56.733  42.810 -22.575  0.00  0.00    -0.071 A 
ATOM     23  C1  PYV d   1     -59.182  40.119 -23.670  0.00  0.00     0.022 A 
ATOM     24  C10 PYV d   1     -59.409  42.616 -23.457  0.00  0.00    -0.071 A 
ATOM     25 BR   PYV d   1     -60.954  39.897 -24.304  0.00  0.00    -0.050 Br
ATOM     26  C6  PYV d   1     -58.367  39.007 -23.534  0.00  0.00    -0.064 A 
ATOM     27  C5  PYV d   1     -57.054  39.109 -23.102  0.00  0.00    -0.058 A 
ATOM     28  H3  PYV d   1     -58.768  38.029 -23.772  0.00  0.00     0.085 H 
ATOM     29  H2  PYV d   1     -56.463  38.204 -23.024  0.00  0.00     0.086 H 
ATOM     30  C9  PYV d   1     -58.854  43.853 -23.130  0.00  0.00    -0.082 A 
ATOM     31  H7  PYV d   1     -60.434  42.555 -23.805  0.00  0.00     0.084 H 
ATOM     32  C8  PYV d   1     -57.536  43.948 -22.705  0.00  0.00    -0.082 A 
ATOM     33  H6  PYV d   1     -59.458  44.750 -23.209  0.00  0.00     0.083 H 
ATOM     34  H5  PYV d   1     -57.121  44.922 -22.470  0.00  0.00     0.083 H 
ATOM     35  H4  PYV d   1     -55.707  42.906 -22.238  0.00  0.00     0.084 H 
ENDBRANCH   1  19
TORSDOF 4
