REMARK  4 active torsions:
REMARK  status: ('A' for Active; 'I' for Inactive)
REMARK    1  A    between atoms: N1_4  and  S_1 
REMARK    2  A    between atoms: S_1  and  C4_10 
REMARK    3  A    between atoms: C11_17  and  N1_4 
REMARK    4  A    between atoms: C11_17  and  C12_18 
ROOT
ATOM      1  S   PYV d   1     -55.737  40.493 -22.267  0.00  0.00     0.260 S 
ATOM      2  O1  PYV d   1     -54.899  41.318 -23.083  0.00  0.00    -0.201 OA
ATOM      3  O2  PYV d   1     -55.326  39.122 -22.299  0.00  0.00    -0.201 OA
ENDROOT
BRANCH   1   4
ATOM      4  N1  PYV d   1     -55.669  41.084 -20.795  0.00  0.00    -0.310 N 
ATOM      5  H   PYV d   1     -55.449  42.069 -20.652  0.00  0.00     0.172 HD
BRANCH   4   6
ATOM      6  C11 PYV d   1     -55.919  40.228 -19.657  0.00  0.00     0.043 C 
ATOM      7  H   PYV d   1     -55.139  40.346 -18.905  0.00  0.00     0.074 H 
ATOM      8  H   PYV d   1     -55.915  39.179 -19.953  0.00  0.00     0.074 H 
BRANCH   6   9
ATOM      9  C12 PYV d   1     -57.263  40.623 -19.102  0.00  0.00     0.052 A 
ATOM     10  N2  PYV d   1     -57.848  39.875 -18.149  0.00  0.00    -0.264 NA
ATOM     11  C13 PYV d   1     -59.044  40.209 -17.657  0.00  0.00     0.003 A 
ATOM     12  C14 PYV d   1     -59.707  41.340 -18.105  0.00  0.00    -0.066 A 
ATOM     13  H   PYV d   1     -59.505  39.583 -16.893  0.00  0.00     0.114 H 
ATOM     14  C15 PYV d   1     -59.121  42.130 -19.070  0.00  0.00    -0.080 A 
ATOM     15  H   PYV d   1     -60.683  41.602 -17.698  0.00  0.00     0.085 H 
ATOM     16  C16 PYV d   1     -57.883  41.768 -19.574  0.00  0.00    -0.058 A 
ATOM     17  H   PYV d   1     -59.624  43.027 -19.431  0.00  0.00     0.083 H 
ATOM     18  H   PYV d   1     -57.400  42.380 -20.336  0.00  0.00     0.086 H 
ENDBRANCH   6   9
ENDBRANCH   4   6
ENDBRANCH   1   4
BRANCH   1  19
ATOM     19  C4  PYV d   1     -57.235  40.582 -22.768  0.00  0.00     0.090 A 
ATOM     20  C3  PYV d   1     -57.848  41.917 -22.857  0.00  0.00    -0.001 A 
ATOM     21  C2  PYV d   1     -59.248  42.005 -23.292  0.00  0.00    -0.007 A 
ATOM     22  C7  PYV d   1     -57.144  43.057 -22.527  0.00  0.00    -0.071 A 
ATOM     23  C1  PYV d   1     -59.963  40.745 -23.631  0.00  0.00     0.022 A 
ATOM     24  C10 PYV d   1     -59.840  43.253 -23.371  0.00  0.00    -0.071 A 
ATOM     25 BR   PYV d   1     -61.750  40.836 -24.216  0.00  0.00    -0.050 Br
ATOM     26  C6  PYV d   1     -59.299  39.522 -23.541  0.00  0.00    -0.064 A 
ATOM     27  C5  PYV d   1     -57.965  39.444 -23.116  0.00  0.00    -0.058 A 
ATOM     28  H   PYV d   1     -59.828  38.607 -23.807  0.00  0.00     0.085 H 
ATOM     29  H   PYV d   1     -57.484  38.468 -23.056  0.00  0.00     0.086 H 
ATOM     30  C9  PYV d   1     -59.103  44.386 -23.038  0.00  0.00    -0.082 A 
ATOM     31  H   PYV d   1     -60.877  43.349 -23.692  0.00  0.00     0.084 H 
ATOM     32  C8  PYV d   1     -57.780  44.290 -22.621  0.00  0.00    -0.082 A 
ATOM     33  H   PYV d   1     -59.572  45.368 -23.105  0.00  0.00     0.083 H 
ATOM     34  H   PYV d   1     -57.232  45.197 -22.363  0.00  0.00     0.083 H 
ATOM     35  H   PYV d   1     -56.107  42.992 -22.198  0.00  0.00     0.084 H 
ENDBRANCH   1  19
TORSDOF 4
