REMARK  3 active torsions:
REMARK  status: ('A' for Active; 'I' for Inactive)
REMARK    1  A    between atoms: C11_12  and  C6_3 
REMARK    2  A    between atoms: C7_4  and  C13_7 
REMARK    3  A    between atoms: C8_5  and  C14_14 
ROOT
ATOM      1  C5  3NE d   1      22.344  19.270   8.937  0.00  0.00    -0.015 A 
ATOM      2  C8  3NE d   1      22.679  18.146   9.665  0.00  0.00     0.068 A 
ATOM      3  C10 3NE d   1      23.343  17.142   8.945  0.00  0.00     0.056 A 
ATOM      4  C9  3NE d   1      22.650  19.342   7.579  0.00  0.00     0.181 A 
ATOM      5  C11 3NE d   1      23.882  15.828   9.193  0.00  0.00     0.075 A 
ATOM      6  C12 3NE d   1      23.564  17.380   7.591  0.00  0.00     0.163 A 
ATOM      7  N15 3NE d   1      24.176  16.221   7.165  0.00  0.00    -0.155 NA
ATOM      8  N16 3NE d   1      23.254  18.446   6.803  0.00  0.00    -0.317 N 
ATOM      9  N17 3NE d   1      24.374  15.294   8.079  0.00  0.00    -0.275 N 
ATOM     10  O18 3NE d   1      22.279  20.489   6.952  0.00  0.00    -0.172 OA
ATOM     11  H2  3NE d   1      21.839  20.103   9.425  0.00  0.00     0.091 H 
ATOM     12  H6  3NE d   1      23.444  18.538   5.826  0.00  0.00     0.169 HD
ATOM     13  H7  3NE d   1      24.810  14.368   7.959  0.00  0.00     0.189 HD
ENDROOT
BRANCH   5  14
ATOM     14  C6  3NE d   1      24.084  15.007  10.389  0.00  0.00    -0.006 A 
ATOM     15  C4  3NE d   1      24.613  15.574  11.525  0.00  0.00    -0.056 A 
ATOM     16  C7  3NE d   1      24.814  14.762  12.609  0.00  0.00     0.048 A 
ATOM     17  H1  3NE d   1      24.862  16.628  11.561  0.00  0.00     0.086 H 
ATOM     18  C3  3NE d   1      24.502  13.426  12.641  0.00  0.00    -0.068 A 
ATOM     19  C1  3NE d   1      23.993  12.870  11.522  0.00  0.00    -0.081 A 
ATOM     20  H5  3NE d   1      24.660  12.836  13.537  0.00  0.00     0.084 H 
ATOM     21  C2  3NE d   1      23.805  13.657  10.409  0.00  0.00    -0.071 A 
ATOM     22  H3  3NE d   1      23.736  11.817  11.500  0.00  0.00     0.083 H 
ATOM     23  H4  3NE d   1      23.420  13.195   9.507  0.00  0.00     0.084 H 
BRANCH  16  24
ATOM     24  C13 3NE d   1      25.416  15.298  13.857  0.00  0.00     0.417 C 
ATOM     25  F19 3NE d   1      24.562  15.063  14.859  0.00  0.00    -0.166 F 
ATOM     26  F20 3NE d   1      26.574  14.619  14.099  0.00  0.00    -0.166 F 
ATOM     27  F21 3NE d   1      25.822  16.595  14.033  0.00  0.00    -0.166 F 
ENDBRANCH  16  24
ENDBRANCH   5  14
BRANCH   2  28
ATOM     28  C14 3NE d   1      22.371  18.056  11.114  0.00  0.00     0.418 C 
ATOM     29  F22 3NE d   1      21.487  18.929  11.614  0.00  0.00    -0.166 F 
ATOM     30  F23 3NE d   1      22.052  16.825  11.604  0.00  0.00    -0.166 F 
ATOM     31  F24 3NE d   1      23.453  18.339  11.841  0.00  0.00    -0.166 F 
ENDBRANCH   2  28
TORSDOF 3
