REMARK WARNING: 32 MAX_TORS EXCEEDED!!!
REMARK  35 active torsions:
REMARK  status: ('A' for Active; 'I' for Inactive)
REMARK    1  A    between atoms: N_1  and  CA_2 
REMARK    2  A    between atoms: CA_2  and  C_3 
REMARK    3  A    between atoms: CA_2  and  CB_5 
REMARK       I    between atoms: C_3  and  N_12 
REMARK    4  A    between atoms: CB_5  and  CG_6 
REMARK    5  A    between atoms: CG_6  and  CD_7 
REMARK    6  A    between atoms: CD_7  and  NE_8 
REMARK       I    between atoms: NE_8  and  CZ_9 
REMARK       I    between atoms: CZ_9  and  NH1_10 
REMARK       I    between atoms: CZ_9  and  NH2_11 
REMARK    7  A    between atoms: N_12  and  CA_13 
REMARK    8  A    between atoms: CA_13  and  C_14 
REMARK    9  A    between atoms: CA_13  and  CB_16 
REMARK       I    between atoms: C_14  and  N_23 
REMARK   10  A    between atoms: CB_16  and  CG_17 
REMARK   11  A    between atoms: CG_17  and  CD_18 
REMARK   12  A    between atoms: CD_18  and  NE_19 
REMARK       I    between atoms: NE_19  and  CZ_20 
REMARK       I    between atoms: CZ_20  and  NH1_21 
REMARK   13  A    between atoms: N_23  and  CA_24 
REMARK   14  A    between atoms: CA_24  and  C_25 
REMARK   15  A    between atoms: CA_24  and  CB_27 
REMARK       I    between atoms: C_25  and  N_34 
REMARK   16  A    between atoms: CB_27  and  CG_28 
REMARK   17  A    between atoms: N_34  and  CA_35 
REMARK   18  A    between atoms: CA_35  and  C_36 
REMARK   19  A    between atoms: CA_35  and  CB1_38 
REMARK   20  A    between atoms: CA_35  and  CB2_39 
REMARK   21  A    between atoms: N_40  and  CA_41 
REMARK   22  A    between atoms: CA_41  and  C_42 
REMARK   23  A    between atoms: CA_41  and  CB_44 
REMARK       I    between atoms: C_42  and  N_45 
REMARK   24  A    between atoms: N_45  and  CA_46 
REMARK   25  A    between atoms: CA_46  and  C_47 
REMARK   26  A    between atoms: CA_46  and  CB_49 
REMARK       I    between atoms: C_47  and  N_53 
REMARK   27  A    between atoms: CB_49  and  CG_50 
REMARK   28  A    between atoms: CG_50  and  SD_51 
REMARK   29  A    between atoms: SD_51  and  CE_52 
REMARK   30  A    between atoms: N_53  and  CA_54 
REMARK   31  A    between atoms: CA_54  and  C_55 
REMARK   32  A    between atoms: CA_54  and  CB_57 
REMARK       I    between atoms: C_55  and  N_61 
REMARK   33  A    between atoms: CB_57  and  CG_58 
REMARK   34  A    between atoms: CG_58  and  CD1_59 
REMARK   35  A    between atoms: CG_58  and  CD2_60 
ROOT
ATOM      1  CA  PHE d   1      18.538  40.886   5.285  0.00  0.00     0.093 C 
ATOM      2  H   PHE d   1      17.571  40.668   4.831  0.00  0.00     0.088 H 
ENDROOT
BRANCH   1   3
ATOM      3  N   PHE d   1      18.885  39.767   6.152  0.00  0.00    -0.346 N 
ATOM      4  C   ARG d   1      19.124  38.548   5.684  0.00  0.00     0.241 C 
ATOM      5  O   ARG d   1      19.086  38.263   4.484  0.00  0.00    -0.271 OA
ATOM      6  H   PHE d   1      18.947  39.927   7.157  0.00  0.00     0.163 HD
BRANCH   4   7
ATOM      7  CA  ARG d   1      19.466  37.494   6.728  0.00  0.00     0.089 C 
ATOM      8  H   ARG d   1      18.872  37.673   7.624  0.00  0.00     0.087 H 
BRANCH   7   9
ATOM      9  N   ARG d   1      19.158  36.171   6.213  0.00  0.00    -0.346 N 
ATOM     10  C   ARG d   1      17.912  35.726   6.117  0.00  0.00     0.248 C 
ATOM     11  O   ARG d   1      16.938  36.361   6.512  0.00  0.00    -0.271 OA
ATOM     12  H   ARG d   1      19.923  35.566   5.916  0.00  0.00     0.163 HD
BRANCH  10  13
ATOM     13  CA  ARG d   1      17.754  34.359   5.474  0.00  0.00     0.176 C 
ATOM     14  H   ARG d   1      18.684  33.813   5.631  0.00  0.00     0.099 H 
BRANCH  13  15
ATOM     15  N   ARG d   1      16.705  33.558   6.093  0.00  0.00    -0.067 N 
ATOM     16  H   ARG d   1      16.896  33.462   7.090  0.00  0.00     0.275 HD
ATOM     17  H   ARG d   1      15.805  34.019   5.961  0.00  0.00     0.275 HD
ATOM     18  H   ARG d   1      16.683  32.635   5.659  0.00  0.00     0.275 HD
ENDBRANCH  13  15
BRANCH  13  19
ATOM     19  CB  ARG d   1      17.500  34.524   3.979  0.00  0.00    -0.029 C 
ATOM     20  H   ARG d   1      18.201  35.272   3.607  0.00  0.00     0.036 H 
ATOM     21  H   ARG d   1      16.455  34.809   3.853  0.00  0.00     0.036 H 
BRANCH  19  22
ATOM     22  CG  ARG d   1      17.726  33.249   3.183  0.00  0.00    -0.047 C 
ATOM     23  H   ARG d   1      16.937  32.541   3.437  0.00  0.00     0.035 H 
ATOM     24  H   ARG d   1      18.713  32.859   3.432  0.00  0.00     0.035 H 
BRANCH  22  25
ATOM     25  CD  ARG d   1      17.676  33.504   1.684  0.00  0.00     0.009 C 
ATOM     26  H   ARG d   1      18.434  32.883   1.207  0.00  0.00     0.064 H 
ATOM     27  H   ARG d   1      17.852  34.566   1.512  0.00  0.00     0.064 H 
BRANCH  25  28
ATOM     28  NE  ARG d   1      16.379  33.158   1.116  0.00  0.00    -0.227 N 
ATOM     29  CZ  ARG d   1      16.051  31.937   0.703  0.00  0.00     0.665 C 
ATOM     30  NH1 ARG d   1      14.848  31.706   0.197  0.00  0.00    -0.235 N 
ATOM     31  NH2 ARG d   1      16.928  30.945   0.798  0.00  0.00    -0.235 N 
ATOM     32  H   ARG d   1      14.171  32.465   0.124  0.00  0.00     0.174 HD
ATOM     33  H   ARG d   1      14.599  30.769  -0.119  0.00  0.00     0.174 HD
ATOM     34  H   ARG d   1      17.854  31.119   1.188  0.00  0.00     0.174 HD
ATOM     35  H   ARG d   1      16.675  30.009   0.481  0.00  0.00     0.174 HD
ATOM     36  H   ARG d   1      15.681  33.897   1.030  0.00  0.00     0.177 HD
ENDBRANCH  25  28
ENDBRANCH  22  25
ENDBRANCH  19  22
ENDBRANCH  13  19
ENDBRANCH  10  13
ENDBRANCH   7   9
BRANCH   7  37
ATOM     37  CB  ARG d   1      20.948  37.582   7.089  0.00  0.00    -0.036 C 
ATOM     38  H   ARG d   1      21.116  38.554   7.552  0.00  0.00     0.036 H 
ATOM     39  H   ARG d   1      21.518  37.434   6.172  0.00  0.00     0.036 H 
BRANCH  37  40
ATOM     40  CG  ARG d   1      21.393  36.520   8.081  0.00  0.00    -0.048 C 
ATOM     41  H   ARG d   1      20.960  35.565   7.783  0.00  0.00     0.035 H 
ATOM     42  H   ARG d   1      21.059  36.814   9.076  0.00  0.00     0.035 H 
BRANCH  40  43
ATOM     43  CD  ARG d   1      22.901  36.380   8.101  0.00  0.00     0.009 C 
ATOM     44  H   ARG d   1      23.216  35.910   7.169  0.00  0.00     0.064 H 
ATOM     45  H   ARG d   1      23.180  35.779   8.967  0.00  0.00     0.064 H 
BRANCH  43  46
ATOM     46  NE  ARG d   1      23.559  37.678   8.209  0.00  0.00    -0.227 N 
ATOM     47  CZ  ARG d   1      24.468  38.121   7.348  0.00  0.00     0.665 C 
ATOM     48  NH1 ARG d   1      24.833  37.361   6.321  0.00  0.00    -0.235 N 
ATOM     49  NH2 ARG d   1      25.015  39.317   7.514  0.00  0.00    -0.235 N 
ATOM     50  H   ARG d   1      24.415  36.439   6.195  0.00  0.00     0.174 HD
ATOM     51  H   ARG d   1      25.531  37.700   5.659  0.00  0.00     0.174 HD
ATOM     52  H   ARG d   1      24.738  39.899   8.304  0.00  0.00     0.174 HD
ATOM     53  H   ARG d   1      25.713  39.655   6.851  0.00  0.00     0.174 HD
ATOM     54  H   ARG d   1      23.306  38.281   8.992  0.00  0.00     0.177 HD
ENDBRANCH  43  46
ENDBRANCH  40  43
ENDBRANCH  37  40
ENDBRANCH   7  37
ENDBRANCH   4   7
ENDBRANCH   1   3
BRANCH   1  55
ATOM     55  C   PHE d   1      19.531  41.063   4.136  0.00  0.00     0.241 C 
ATOM     56  O   PHE d   1      19.159  41.513   3.053  0.00  0.00    -0.271 OA
ATOM     57  N   AIB d   1      20.788  40.702   4.374  0.00  0.00    -0.343 N 
ATOM     58  H   AIB d   1      21.030  40.334   5.294  0.00  0.00     0.163 HD
BRANCH  57  59
ATOM     59  CA  AIB d   1      21.833  40.815   3.362  0.00  0.00     0.093 C 
BRANCH  59  60
ATOM     60  C   AIB d   1      21.420  40.124   2.058  0.00  0.00     0.179 C 
ATOM     61  O   AIB d   1      21.911  40.610   0.841  0.00  0.00    -0.175 OA
ATOM     62  N   ALA d   1      20.600  39.080   2.152  0.00  0.00    -0.357 N 
ATOM     63  H   ALA d   1      20.224  38.826   3.065  0.00  0.00     0.162 HD
BRANCH  62  64
ATOM     64  CA  ALA d   1      20.223  38.286   0.982  0.00  0.00     0.085 C 
ATOM     65  H   ALA d   1      21.113  38.226   0.356  0.00  0.00     0.086 H 
BRANCH  64  66
ATOM     66  C   ALA d   1      19.136  38.940   0.125  0.00  0.00     0.240 C 
ATOM     67  O   ALA d   1      18.776  38.418  -0.930  0.00  0.00    -0.271 OA
ATOM     68  N   MET d   1      18.608  40.073   0.580  0.00  0.00    -0.346 N 
ATOM     69  H   MET d   1      18.880  40.421   1.499  0.00  0.00     0.163 HD
BRANCH  68  70
ATOM     70  CA  MET d   1      17.646  40.825  -0.216  0.00  0.00     0.090 C 
ATOM     71  H   MET d   1      17.069  40.125  -0.820  0.00  0.00     0.087 H 
BRANCH  70  72
ATOM     72  C   MET d   1      18.384  41.792  -1.134  0.00  0.00     0.241 C 
ATOM     73  O   MET d   1      17.772  42.483  -1.951  0.00  0.00    -0.271 OA
ATOM     74  N   LEU d   1      19.707  41.829  -0.993  0.00  0.00    -0.346 N 
ATOM     75  H   LEU d   1      20.147  41.197  -0.324  0.00  0.00     0.163 HD
BRANCH  74  76
ATOM     76  CA  LEU d   1      20.554  42.740  -1.760  0.00  0.00     0.089 C 
ATOM     77  H   LEU d   1      19.894  43.281  -2.438  0.00  0.00     0.087 H 
BRANCH  76  78
ATOM     78  C   LEU d   1      21.590  42.007  -2.605  0.00  0.00     0.238 C 
ATOM     79  O   LEU d   1      21.361  40.885  -3.054  0.00  0.00    -0.271 OA
ATOM     80  N   ALA d   1      22.732  42.654  -2.816  0.00  0.00    -0.368 N 
ATOM     81  H   ALA d   1      23.468  42.221  -3.373  0.00  0.00     0.159 HD
ATOM     82  H   ALA d   1      22.872  43.584  -2.421  0.00  0.00     0.159 HD
ENDBRANCH  76  78
BRANCH  76  83
ATOM     83  CB  LEU d   1      21.267  43.718  -0.826  0.00  0.00    -0.035 C 
ATOM     84  H   LEU d   1      22.189  44.002  -1.334  0.00  0.00     0.037 H 
ATOM     85  H   LEU d   1      21.375  43.200   0.127  0.00  0.00     0.037 H 
BRANCH  83  86
ATOM     86  CG  LEU d   1      20.536  45.024  -0.516  0.00  0.00    -0.059 C 
ATOM     87  H   LEU d   1      20.279  45.510  -1.457  0.00  0.00     0.038 H 
BRANCH  86  88
ATOM     88  CD1 LEU d   1      19.224  44.774   0.221  0.00  0.00    -0.073 C 
ATOM     89  H   LEU d   1      18.574  44.154  -0.397  0.00  0.00     0.028 H 
ATOM     90  H   LEU d   1      19.429  44.263   1.162  0.00  0.00     0.028 H 
ATOM     91  H   LEU d   1      18.735  45.727   0.423  0.00  0.00     0.028 H 
ENDBRANCH  86  88
BRANCH  86  92
ATOM     92  CD2 LEU d   1      21.447  45.939   0.277  0.00  0.00    -0.073 C 
ATOM     93  H   LEU d   1      21.729  45.450   1.210  0.00  0.00     0.028 H 
ATOM     94  H   LEU d   1      22.342  46.153  -0.307  0.00  0.00     0.028 H 
ATOM     95  H   LEU d   1      20.923  46.869   0.497  0.00  0.00     0.028 H 
ENDBRANCH  86  92
ENDBRANCH  83  86
ENDBRANCH  76  83
ENDBRANCH  74  76
ENDBRANCH  70  72
BRANCH  70  96
ATOM     96  CB  MET d   1      16.675  41.590   0.686  0.00  0.00    -0.030 C 
ATOM     97  H   MET d   1      15.950  42.076   0.033  0.00  0.00     0.037 H 
ATOM     98  H   MET d   1      17.273  42.273   1.290  0.00  0.00     0.037 H 
BRANCH  96  99
ATOM     99  CG  MET d   1      15.883  40.716   1.656  0.00  0.00    -0.021 C 
ATOM    100  H   MET d   1      15.375  41.387   2.349  0.00  0.00     0.049 H 
ATOM    101  H   MET d   1      16.593  40.036   2.126  0.00  0.00     0.049 H 
BRANCH  99 102
ATOM    102  SD  MET d   1      14.611  39.698   0.875  0.00  0.00    -0.173 SA
BRANCH 102 103
ATOM    103  CE  MET d   1      15.513  38.194   0.492  0.00  0.00    -0.035 C 
ATOM    104  H   MET d   1      16.341  38.429  -0.177  0.00  0.00     0.041 H 
ATOM    105  H   MET d   1      15.900  37.760   1.414  0.00  0.00     0.041 H 
ATOM    106  H   MET d   1      14.843  37.484   0.007  0.00  0.00     0.041 H 
ENDBRANCH 102 103
ENDBRANCH  99 102
ENDBRANCH  96  99
ENDBRANCH  70  96
ENDBRANCH  68  70
ENDBRANCH  64  66
BRANCH  64 107
ATOM    107  CB  ALA d   1      19.797  36.880   1.402  0.00  0.00    -0.049 C 
ATOM    108  H   ALA d   1      20.625  36.388   1.912  0.00  0.00     0.030 H 
ATOM    109  H   ALA d   1      18.942  36.947   2.075  0.00  0.00     0.030 H 
ATOM    110  H   ALA d   1      19.521  36.306   0.517  0.00  0.00     0.030 H 
ENDBRANCH  64 107
ENDBRANCH  62  64
ENDBRANCH  59  60
BRANCH  59 111
ATOM    111  CB1 AIB d   1      22.131  42.288   3.085  0.00  0.00    -0.046 C 
ATOM    112  H   AIB d   1      21.227  42.779   2.725  0.00  0.00     0.031 H 
ATOM    113  H   AIB d   1      22.466  42.769   4.004  0.00  0.00     0.031 H 
ATOM    114  H   AIB d   1      22.912  42.363   2.329  0.00  0.00     0.031 H 
ENDBRANCH  59 111
BRANCH  59 115
ATOM    115  CB2 AIB d   1      23.110  40.154   3.879  0.00  0.00    -0.046 C 
ATOM    116  H   AIB d   1      23.431  40.653   4.793  0.00  0.00     0.031 H 
ATOM    117  H   AIB d   1      22.915  39.102   4.087  0.00  0.00     0.031 H 
ATOM    118  H   AIB d   1      23.892  40.237   3.124  0.00  0.00     0.031 H 
ENDBRANCH  59 115
ENDBRANCH  57  59
ENDBRANCH   1  55
BRANCH   1 119
ATOM    119  CB  PHE d   1      18.438  42.168   6.116  0.00  0.00    -0.014 C 
ATOM    120  H   PHE d   1      19.397  42.305   6.615  0.00  0.00     0.043 H 
ATOM    121  H   PHE d   1      17.596  42.046   6.798  0.00  0.00     0.043 H 
BRANCH 119 122
ATOM    122  CG  PHE d   1      18.179  43.399   5.307  0.00  0.00    -0.056 A 
ATOM    123  CD1 PHE d   1      16.973  43.567   4.643  0.00  0.00    -0.077 A 
ATOM    124  CE1 PHE d   1      16.725  44.706   3.899  0.00  0.00    -0.082 A 
ATOM    125  H   PHE d   1      16.210  42.791   4.708  0.00  0.00     0.084 H 
ATOM    126  CZ  PHE d   1      17.682  45.697   3.823  0.00  0.00    -0.083 A 
ATOM    127  H   PHE d   1      15.777  44.821   3.374  0.00  0.00     0.083 H 
ATOM    128  CE2 PHE d   1      18.888  45.546   4.489  0.00  0.00    -0.082 A 
ATOM    129  H   PHE d   1      17.490  46.598   3.240  0.00  0.00     0.083 H 
ATOM    130  CD2 PHE d   1      19.131  44.401   5.228  0.00  0.00    -0.077 A 
ATOM    131  H   PHE d   1      19.645  46.328   4.431  0.00  0.00     0.083 H 
ATOM    132  H   PHE d   1      20.080  44.287   5.752  0.00  0.00     0.084 H 
ENDBRANCH 119 122
ENDBRANCH   1 119
TORSDOF 35
