REMARK  3 active torsions:
REMARK  status: ('A' for Active; 'I' for Inactive)
REMARK    1  A    between atoms: C2_2  and  C4_4 
REMARK    2  A    between atoms: C5_5  and  C6_6 
REMARK    3  A    between atoms: C6_6  and  N7_7 
ROOT
ATOM      1  C6  IMV d   1      10.813 -45.655   0.665  0.00  0.00     0.028 C 
ATOM      2  H1  IMV d   1      11.132 -45.179   1.604  0.00  0.00     0.072 H 
ATOM      3  H2  IMV d   1      10.822 -46.748   0.786  0.00  0.00     0.072 H 
ENDROOT
BRANCH   1   4
ATOM      4  C5  IMV d   1      11.831 -45.303  -0.396  0.00  0.00    -0.020 A 
ATOM      5  C4  IMV d   1      13.198 -45.479  -0.163  0.00  0.00     0.085 A 
ATOM      6  C23 IMV d   1      14.062 -45.148  -1.194  0.00  0.00     0.122 A 
ATOM      7  C19 IMV d   1      13.605 -44.664  -2.373  0.00  0.00     0.106 A 
ATOM      8  O22 IMV d   1      15.451 -45.241  -1.192  0.00  0.00    -0.322 OA
ATOM      9  C18 IMV d   1      12.263 -44.475  -2.615  0.00  0.00    -0.047 A 
ATOM     10  O20 IMV d   1      14.620 -44.401  -3.258  0.00  0.00    -0.323 OA
ATOM     11  C17 IMV d   1      11.370 -44.801  -1.610  0.00  0.00    -0.071 A 
ATOM     12  H10 IMV d   1      11.917 -44.083  -3.564  0.00  0.00     0.087 H 
ATOM     13  H9  IMV d   1      10.306 -44.665  -1.768  0.00  0.00     0.084 H 
ATOM     14  C21 IMV d   1      15.767 -44.607  -2.445  0.00  0.00     0.115 C 
ATOM     15  H11 IMV d   1      16.232 -43.632  -2.239  0.00  0.00     0.118 H 
ATOM     16  H12 IMV d   1      16.477 -45.244  -2.993  0.00  0.00     0.118 H 
BRANCH   5  17
ATOM     17  C2  IMV d   1      13.752 -46.005   1.145  0.00  0.00     0.212 C 
ATOM     18  O1  IMV d   1      13.117 -46.886   1.789  0.00  0.00    -0.644 OA
ATOM     19  O3  IMV d   1      14.823 -45.500   1.569  0.00  0.00    -0.644 OA
ENDBRANCH   5  17
ENDBRANCH   1   4
BRANCH   1  20
ATOM     20  N7  IMV d   1       9.445 -45.252   0.410  0.00  0.00    -0.313 N 
ATOM     21  C8  IMV d   1       8.490 -46.014  -0.242  0.00  0.00     0.229 A 
ATOM     22  O9  IMV d   1       8.598 -47.139  -0.717  0.00  0.00    -0.273 OA
ATOM     23  C10 IMV d   1       7.239 -45.199  -0.339  0.00  0.00     0.036 A 
ATOM     24  C11 IMV d   1       7.662 -43.917   0.320  0.00  0.00    -0.022 A 
ATOM     25  H3  IMV d   1       6.408 -45.674   0.203  0.00  0.00     0.054 H 
ATOM     26  H4  IMV d   1       6.947 -45.035  -1.387  0.00  0.00     0.054 H 
ATOM     27  C12 IMV d   1       6.907 -42.786   0.510  0.00  0.00    -0.074 A 
ATOM     28  C16 IMV d   1       8.967 -43.984   0.739  0.00  0.00     0.044 A 
ATOM     29  C13 IMV d   1       7.522 -41.714   1.147  0.00  0.00    -0.082 A 
ATOM     30  H5  IMV d   1       5.877 -42.731   0.178  0.00  0.00     0.084 H 
ATOM     31  C14 IMV d   1       8.840 -41.798   1.575  0.00  0.00    -0.081 A 
ATOM     32  H6  IMV d   1       6.964 -40.799   1.312  0.00  0.00     0.083 H 
ATOM     33  C15 IMV d   1       9.600 -42.939   1.375  0.00  0.00    -0.056 A 
ATOM     34  H7  IMV d   1       9.286 -40.948   2.079  0.00  0.00     0.083 H 
ATOM     35  H8  IMV d   1      10.632 -43.005   1.700  0.00  0.00     0.086 H 
ENDBRANCH   1  20
TORSDOF 3
