REMARK  3 active torsions:
REMARK  status: ('A' for Active; 'I' for Inactive)
REMARK    1  A    between atoms: N10_10  and  C11_11 
REMARK    2  A    between atoms: C11_11  and  C12_12 
REMARK    3  A    between atoms: C17_17  and  C18_18 
ROOT
ATOM      1  C11 CIW d   1       9.724 -26.066 -11.123  0.00  0.00     0.028 C 
ATOM      2  H6  CIW d   1       9.872 -25.085 -11.599  0.00  0.00     0.072 H 
ATOM      3  H7  CIW d   1       9.339 -26.780 -11.866  0.00  0.00     0.072 H 
ENDROOT
BRANCH   1   4
ATOM      4  N10 CIW d   1       8.795 -25.944 -10.045  0.00  0.00    -0.313 N 
ATOM      5  C4  CIW d   1       8.022 -27.007  -9.649  0.00  0.00     0.044 A 
ATOM      6  C3  CIW d   1       8.290 -28.337  -9.845  0.00  0.00    -0.055 A 
ATOM      7  C5  CIW d   1       6.901 -26.535  -9.023  0.00  0.00    -0.021 A 
ATOM      8  C2  CIW d   1       7.345 -29.211  -9.356  0.00  0.00    -0.060 A 
ATOM      9  H2  CIW d   1       9.186 -28.678 -10.351  0.00  0.00     0.087 H 
ATOM     10  C1  CIW d   1       6.214 -28.759  -8.722  0.00  0.00     0.034 A 
ATOM     11  H1  CIW d   1       7.497 -30.278  -9.474  0.00  0.00     0.086 H 
ATOM     12  C6  CIW d   1       5.961 -27.415  -8.542  0.00  0.00    -0.053 A 
ATOM     13 CL24 CIW d   1       5.093 -29.899  -8.110  0.00  0.00    -0.084 Cl
ATOM     14  H3  CIW d   1       5.062 -27.069  -8.044  0.00  0.00     0.087 H 
ATOM     15  C7  CIW d   1       6.888 -25.062  -8.993  0.00  0.00     0.036 A 
ATOM     16  C8  CIW d   1       8.197 -24.747  -9.665  0.00  0.00     0.229 A 
ATOM     17  H4  CIW d   1       6.861 -24.680  -7.962  0.00  0.00     0.054 H 
ATOM     18  H5  CIW d   1       6.036 -24.654  -9.557  0.00  0.00     0.054 H 
ATOM     19  O9  CIW d   1       8.663 -23.626  -9.776  0.00  0.00    -0.273 OA
ENDBRANCH   1   4
BRANCH   1  20
ATOM     20  C12 CIW d   1      11.013 -26.557 -10.578  0.00  0.00    -0.020 A 
ATOM     21  C13 CIW d   1      11.093 -26.775  -9.202  0.00  0.00    -0.071 A 
ATOM     22  C14 CIW d   1      12.253 -27.257  -8.635  0.00  0.00    -0.047 A 
ATOM     23  H8  CIW d   1      10.235 -26.563  -8.574  0.00  0.00     0.084 H 
ATOM     24  C15 CIW d   1      13.316 -27.488  -9.483  0.00  0.00     0.106 A 
ATOM     25  H9  CIW d   1      12.327 -27.446  -7.570  0.00  0.00     0.087 H 
ATOM     26  C16 CIW d   1      13.220 -27.259 -10.825  0.00  0.00     0.122 A 
ATOM     27  O23 CIW d   1      14.582 -27.975  -9.150  0.00  0.00    -0.323 OA
ATOM     28  C17 CIW d   1      12.086 -26.793 -11.427  0.00  0.00     0.085 A 
ATOM     29  O21 CIW d   1      14.377 -27.577 -11.484  0.00  0.00    -0.322 OA
ATOM     30  C22 CIW d   1      15.219 -28.088 -10.448  0.00  0.00     0.115 A 
ATOM     31  H10 CIW d   1      16.160 -27.518 -10.437  0.00  0.00     0.118 H 
ATOM     32  H11 CIW d   1      15.434 -29.148 -10.651  0.00  0.00     0.118 H 
BRANCH  28  33
ATOM     33  C18 CIW d   1      12.110 -26.603 -12.920  0.00  0.00     0.212 C 
ATOM     34  O19 CIW d   1      12.859 -25.698 -13.346  0.00  0.00    -0.644 OA
ATOM     35  O20 CIW d   1      11.452 -27.338 -13.691  0.00  0.00    -0.644 OA
ENDBRANCH  28  33
ENDBRANCH   1  20
TORSDOF 3
