REMARK  3 active torsions:
REMARK  status: ('A' for Active; 'I' for Inactive)
REMARK    1  A    between atoms: N10_10  and  C11_11 
REMARK    2  A    between atoms: C11_11  and  C12_12 
REMARK    3  A    between atoms: C17_17  and  C18_18 
ROOT
ATOM      1  C12 CDQ d   1       5.604 -22.592  11.248  0.00  0.00    -0.020 A 
ATOM      2  C13 CDQ d   1       6.433 -22.086  10.260  0.00  0.00    -0.071 A 
ATOM      3  C14 CDQ d   1       7.610 -22.745   9.906  0.00  0.00    -0.047 A 
ATOM      4  C15 CDQ d   1       7.898 -23.929  10.600  0.00  0.00     0.103 A 
ATOM      5  C16 CDQ d   1       7.081 -24.444  11.607  0.00  0.00     0.119 A 
ATOM      6  C17 CDQ d   1       5.922 -23.757  11.934  0.00  0.00     0.084 A 
ATOM      7  O21 CDQ d   1       7.382 -25.612  12.327  0.00  0.00    -0.345 OA
ATOM      8  C22 CDQ d   1       8.265 -26.424  11.535  0.00  0.00     0.046 C 
ATOM      9  C23 CDQ d   1       9.454 -25.597  11.226  0.00  0.00     0.046 C 
ATOM     10  O24 CDQ d   1       9.060 -24.549  10.249  0.00  0.00    -0.346 OA
ATOM     11  H8  CDQ d   1       6.163 -21.165   9.755  0.00  0.00     0.084 H 
ATOM     12  H9  CDQ d   1       8.268 -22.362   9.134  0.00  0.00     0.087 H 
ATOM     13  H10 CDQ d   1       7.765 -26.729  10.604  0.00  0.00     0.078 H 
ATOM     14  H11 CDQ d   1       8.564 -27.319  12.100  0.00  0.00     0.078 H 
ATOM     15  H12 CDQ d   1      10.243 -26.229  10.793  0.00  0.00     0.078 H 
ATOM     16  H13 CDQ d   1       9.826 -25.124  12.147  0.00  0.00     0.078 H 
ENDROOT
BRANCH   1  17
ATOM     17  C11 CDQ d   1       4.314 -21.915  11.658  0.00  0.00     0.028 C 
ATOM     18  H6  CDQ d   1       3.713 -22.642  12.224  0.00  0.00     0.072 H 
ATOM     19  H7  CDQ d   1       4.567 -21.064  12.307  0.00  0.00     0.072 H 
BRANCH  17  20
ATOM     20  N10 CDQ d   1       3.507 -21.421  10.567  0.00  0.00    -0.313 N 
ATOM     21  C4  CDQ d   1       2.754 -22.231   9.704  0.00  0.00     0.044 A 
ATOM     22  C3  CDQ d   1       2.182 -23.466   9.916  0.00  0.00    -0.055 A 
ATOM     23  C5  CDQ d   1       2.589 -21.569   8.518  0.00  0.00    -0.021 A 
ATOM     24  C2  CDQ d   1       1.463 -24.018   8.868  0.00  0.00    -0.060 A 
ATOM     25  H2  CDQ d   1       2.290 -23.984  10.862  0.00  0.00     0.087 H 
ATOM     26  C1  CDQ d   1       1.324 -23.349   7.663  0.00  0.00     0.034 A 
ATOM     27  H1  CDQ d   1       1.001 -24.991   8.993  0.00  0.00     0.086 H 
ATOM     28  C6  CDQ d   1       1.883 -22.103   7.467  0.00  0.00    -0.053 A 
ATOM     29 CL25 CDQ d   1       0.433 -24.050   6.347  0.00  0.00    -0.084 Cl
ATOM     30  H3  CDQ d   1       1.771 -21.571   6.529  0.00  0.00     0.087 H 
ATOM     31  C7  CDQ d   1       3.259 -20.251   8.553  0.00  0.00     0.036 C 
ATOM     32  C8  CDQ d   1       3.709 -20.170   9.995  0.00  0.00     0.229 C 
ATOM     33  H4  CDQ d   1       2.559 -19.439   8.306  0.00  0.00     0.054 H 
ATOM     34  H5  CDQ d   1       4.116 -20.219   7.864  0.00  0.00     0.054 H 
ATOM     35  O9  CDQ d   1       4.152 -19.152  10.520  0.00  0.00    -0.273 OA
ENDBRANCH  17  20
ENDBRANCH   1  17
BRANCH   6  36
ATOM     36  C18 CDQ d   1       4.968 -24.249  12.988  0.00  0.00     0.212 C 
ATOM     37  O19 CDQ d   1       5.180 -23.959  14.198  0.00  0.00    -0.644 OA
ATOM     38  O20 CDQ d   1       3.988 -24.921  12.543  0.00  0.00    -0.644 OA
ENDBRANCH   6  36
TORSDOF 3
