REMARK  3 active torsions:
REMARK  status: ('A' for Active; 'I' for Inactive)
REMARK    1  A    between atoms: N10_10  and  C11_11 
REMARK    2  A    between atoms: C11_11  and  C12_12 
REMARK    3  A    between atoms: C17_17  and  C18_18 
ROOT
ATOM      1  C11 CD9 d   1       9.641 -26.554 -10.031  0.00  0.00     0.028 C 
ATOM      2  H6  CD9 d   1       9.799 -27.540  -9.569  0.00  0.00     0.072 H 
ATOM      3  H7  CD9 d   1      10.332 -25.825  -9.584  0.00  0.00     0.072 H 
ENDROOT
BRANCH   1   4
ATOM      4  N10 CD9 d   1       8.298 -26.134  -9.736  0.00  0.00    -0.313 N 
ATOM      5  C4  CD9 d   1       7.307 -27.048  -9.403  0.00  0.00     0.045 A 
ATOM      6  C3  CD9 d   1       7.401 -28.415  -9.472  0.00  0.00    -0.035 A 
ATOM      7  C5  CD9 d   1       6.179 -26.391  -8.990  0.00  0.00    -0.022 A 
ATOM      8  C2  CD9 d   1       6.294 -29.141  -9.108  0.00  0.00     0.036 A 
ATOM      9  H2  CD9 d   1       8.312 -28.902  -9.800  0.00  0.00     0.089 H 
ATOM     10  C1  CD9 d   1       5.139 -28.494  -8.698  0.00  0.00    -0.061 A 
ATOM     11 CL24 CD9 d   1       6.457 -30.875  -9.199  0.00  0.00    -0.084 Cl
ATOM     12  C6  CD9 d   1       5.065 -27.114  -8.632  0.00  0.00    -0.073 A 
ATOM     13  H1  CD9 d   1       4.272 -29.084  -8.422  0.00  0.00     0.086 H 
ATOM     14  H3  CD9 d   1       4.157 -26.618  -8.308  0.00  0.00     0.084 H 
ATOM     15  C7  CD9 d   1       6.394 -24.921  -9.052  0.00  0.00     0.036 A 
ATOM     16  C8  CD9 d   1       7.818 -24.846  -9.574  0.00  0.00     0.229 A 
ATOM     17  H4  CD9 d   1       6.306 -24.459  -8.057  0.00  0.00     0.054 H 
ATOM     18  H5  CD9 d   1       5.687 -24.440  -9.743  0.00  0.00     0.054 H 
ATOM     19  O9  CD9 d   1       8.421 -23.811  -9.815  0.00  0.00    -0.273 OA
ENDBRANCH   1   4
BRANCH   1  20
ATOM     20  C12 CD9 d   1       9.964 -26.667 -11.491  0.00  0.00    -0.020 A 
ATOM     21  C13 CD9 d   1       8.983 -26.903 -12.446  0.00  0.00    -0.071 A 
ATOM     22  C14 CD9 d   1       9.277 -27.028 -13.804  0.00  0.00    -0.047 A 
ATOM     23  H8  CD9 d   1       7.952 -26.993 -12.124  0.00  0.00     0.084 H 
ATOM     24  C15 CD9 d   1      10.593 -26.900 -14.213  0.00  0.00     0.106 A 
ATOM     25  H9  CD9 d   1       8.491 -27.221 -14.524  0.00  0.00     0.087 H 
ATOM     26  C16 CD9 d   1      11.564 -26.662 -13.295  0.00  0.00     0.122 A 
ATOM     27  O23 CD9 d   1      11.121 -26.971 -15.506  0.00  0.00    -0.323 OA
ATOM     28  C17 CD9 d   1      11.273 -26.549 -11.946  0.00  0.00     0.085 A 
ATOM     29  O21 CD9 d   1      12.813 -26.552 -13.862  0.00  0.00    -0.322 OA
ATOM     30  C22 CD9 d   1      12.488 -26.596 -15.270  0.00  0.00     0.115 C 
ATOM     31  H10 CD9 d   1      13.145 -27.329 -15.761  0.00  0.00     0.118 H 
ATOM     32  H11 CD9 d   1      12.661 -25.600 -15.704  0.00  0.00     0.118 H 
BRANCH  28  33
ATOM     33  C18 CD9 d   1      12.406 -26.326 -11.054  0.00  0.00     0.212 C 
ATOM     34  O19 CD9 d   1      13.376 -25.711 -11.582  0.00  0.00    -0.644 OA
ATOM     35  O20 CD9 d   1      12.284 -26.852  -9.897  0.00  0.00    -0.644 OA
ENDBRANCH  28  33
ENDBRANCH   1  20
TORSDOF 3
