REMARK WARNING: 32 MAX_TORS EXCEEDED!!!
REMARK  58 active torsions:
REMARK  status: ('A' for Active; 'I' for Inactive)
REMARK    1  A    between atoms: N_1  and  CA_2 
REMARK    2  A    between atoms: CA_2  and  C_3 
REMARK    3  A    between atoms: CA_2  and  CB_5 
REMARK       I    between atoms: C_3  and  N_7 
REMARK    4  A    between atoms: CB_5  and  OG_6 
REMARK    5  A    between atoms: N_7  and  CA_8 
REMARK    6  A    between atoms: CA_8  and  C_9 
REMARK    7  A    between atoms: CA_8  and  CB_11 
REMARK       I    between atoms: C_9  and  N_21 
REMARK    8  A    between atoms: CB_11  and  CG_12 
REMARK    9  A    between atoms: N_21  and  CA_22 
REMARK   10  A    between atoms: CA_22  and  C_23 
REMARK   11  A    between atoms: CA_22  and  CB_25 
REMARK       I    between atoms: C_23  and  N_30 
REMARK   12  A    between atoms: CB_25  and  CG_26 
REMARK   13  A    between atoms: CG_26  and  CD_27 
REMARK   14  A    between atoms: N_30  and  CA_31 
REMARK   15  A    between atoms: CA_31  and  C_32 
REMARK   16  A    between atoms: CA_31  and  CB_34 
REMARK       I    between atoms: C_32  and  N_36 
REMARK   17  A    between atoms: CB_34  and  OG_35 
REMARK   18  A    between atoms: N_36  and  CA_37 
REMARK   19  A    between atoms: CA_37  and  C_38 
REMARK   20  A    between atoms: CA_37  and  CB_40 
REMARK       I    between atoms: C_38  and  N_46 
REMARK   21  A    between atoms: CB_40  and  CG_41 
REMARK   22  A    between atoms: N_46  and  CA_47 
REMARK   23  A    between atoms: CA_47  and  C_48 
REMARK   24  A    between atoms: CA_47  and  CB_50 
REMARK       I    between atoms: C_48  and  N_55 
REMARK   25  A    between atoms: CB_50  and  CG_51 
REMARK   26  A    between atoms: CG_51  and  CD_52 
REMARK   27  A    between atoms: CD_52  and  CE_53 
REMARK   28  A    between atoms: CE_53  and  NZ_54 
REMARK   29  A    between atoms: N_55  and  CA_56 
REMARK   30  A    between atoms: CA_56  and  C_57 
REMARK   31  A    between atoms: CA_56  and  CB_59 
REMARK       I    between atoms: C_57  and  N_61 
REMARK   32  A    between atoms: CB_59  and  OG_60 
REMARK   33  A    between atoms: N_61  and  CA_62 
REMARK   34  A    between atoms: CA_62  and  C_63 
REMARK       I    between atoms: C_63  and  N_65 
REMARK   35  A    between atoms: N_65  and  CA_66 
REMARK   36  A    between atoms: CA_66  and  C_67 
REMARK       I    between atoms: C_67  and  N_69 
REMARK   37  A    between atoms: N_69  and  CA_70 
REMARK   38  A    between atoms: CA_70  and  C_71 
REMARK   39  A    between atoms: CA_70  and  CB_73 
REMARK       I    between atoms: C_71  and  N_78 
REMARK   40  A    between atoms: CB_73  and  CG_74 
REMARK   41  A    between atoms: CG_74  and  CD_75 
REMARK   42  A    between atoms: N_78  and  CA_79 
REMARK   43  A    between atoms: CA_79  and  C_80 
REMARK   44  A    between atoms: CA_79  and  CB_82 
REMARK       I    between atoms: C_80  and  N_85 
REMARK   45  A    between atoms: CB_82  and  OG1_83 
REMARK   46  A    between atoms: CB_82  and  CG2_84 
REMARK   47  A    between atoms: N_85  and  CA_86 
REMARK   48  A    between atoms: CA_86  and  C_87 
REMARK   49  A    between atoms: CA_86  and  CB_89 
REMARK       I    between atoms: C_87  and  N_96 
REMARK   50  A    between atoms: CB_89  and  CG_90 
REMARK   51  A    between atoms: CG_90  and  CD_91 
REMARK   52  A    between atoms: CD_91  and  NE_92 
REMARK       I    between atoms: NE_92  and  CZ_93 
REMARK       I    between atoms: CZ_93  and  NH1_94 
REMARK   53  A    between atoms: N_96  and  CA_97 
REMARK   54  A    between atoms: CA_97  and  C_98 
REMARK   55  A    between atoms: CA_97  and  CB_100 
REMARK   56  A    between atoms: CB_100  and  CG_101 
REMARK   57  A    between atoms: CG_101  and  CD1_102 
REMARK   58  A    between atoms: CG_101  and  CD2_103 
ROOT
ATOM      1  CA  LYS d   1      23.840  -7.924  20.843  0.00  0.00     0.089 C 
ATOM      2  H   LYS d   1      24.357  -8.875  20.970  0.00  0.00     0.087 H 
ENDROOT
BRANCH   1   3
ATOM      3  N   LYS d   1      22.717  -8.076  19.931  0.00  0.00    -0.346 N 
ATOM      4  C   HIS d   1      22.427  -9.209  19.294  0.00  0.00     0.241 C 
ATOM      5  O   HIS d   1      23.092 -10.246  19.411  0.00  0.00    -0.271 OA
ATOM      6  H   LYS d   1      22.116  -7.267  19.770  0.00  0.00     0.163 HD
BRANCH   4   7
ATOM      7  CA  HIS d   1      21.204  -9.194  18.421  0.00  0.00     0.094 C 
ATOM      8  H   HIS d   1      20.853  -8.167  18.325  0.00  0.00     0.088 H 
BRANCH   7   9
ATOM      9  N   HIS d   1      21.507  -9.684  17.083  0.00  0.00    -0.346 N 
ATOM     10  C   SER d   1      22.243  -9.005  16.220  0.00  0.00     0.243 C 
ATOM     11  O   SER d   1      22.721  -7.891  16.488  0.00  0.00    -0.271 OA
ATOM     12  H   HIS d   1      21.135 -10.591  16.800  0.00  0.00     0.163 HD
BRANCH  10  13
ATOM     13  CA  SER d   1      22.433  -9.631  14.843  0.00  0.00     0.109 C 
ATOM     14  H   SER d   1      21.617 -10.321  14.631  0.00  0.00     0.090 H 
BRANCH  13  15
ATOM     15  N   SER d   1      22.446  -8.543  13.877  0.00  0.00    -0.344 N 
ATOM     16  C   GLU d   1      21.601  -8.485  12.844  0.00  0.00     0.241 C 
ATOM     17  O   GLU d   1      20.785  -9.369  12.600  0.00  0.00    -0.271 OA
ATOM     18  H   SER d   1      23.128  -7.794  13.993  0.00  0.00     0.163 HD
BRANCH  16  19
ATOM     19  CA  GLU d   1      21.674  -7.226  11.990  0.00  0.00     0.090 C 
ATOM     20  H   GLU d   1      20.964  -6.543  12.456  0.00  0.00     0.087 H 
BRANCH  19  21
ATOM     21  N   GLU d   1      22.950  -6.500  12.058  0.00  0.00    -0.346 N 
ATOM     22  C   TRP d   1      24.118  -7.007  11.639  0.00  0.00     0.241 C 
ATOM     23  O   TRP d   1      24.220  -8.139  11.184  0.00  0.00    -0.271 OA
ATOM     24  H   GLU d   1      22.947  -5.557  12.446  0.00  0.00     0.163 HD
BRANCH  22  25
ATOM     25  CA  TRP d   1      25.342  -6.098  11.757  0.00  0.00     0.093 C 
ATOM     26  H   TRP d   1      25.278  -5.373  10.945  0.00  0.00     0.088 H 
BRANCH  25  27
ATOM     27  N   TRP d   1      25.340  -5.376  13.025  0.00  0.00    -0.346 N 
ATOM     28  C   SER d   1      25.254  -6.046  14.207  0.00  0.00     0.251 C 
ATOM     29  O   SER d   1      25.083  -7.273  14.299  0.00  0.00    -0.271 OA
ATOM     30  H   TRP d   1      25.404  -4.358  13.026  0.00  0.00     0.163 HD
BRANCH  28  31
ATOM     31  CA  SER d   1      25.278  -5.205  15.460  0.00  0.00     0.195 C 
ATOM     32  H   SER d   1      24.547  -4.400  15.387  0.00  0.00     0.102 H 
BRANCH  31  33
ATOM     33  N   SER d   1      24.947  -6.077  16.597  0.00  0.00    -0.064 N 
ATOM     34  H   SER d   1      24.032  -6.502  16.443  0.00  0.00     0.275 HD
ATOM     35  H   SER d   1      25.653  -6.808  16.680  0.00  0.00     0.275 HD
ATOM     36  H   SER d   1      24.927  -5.524  17.454  0.00  0.00     0.275 HD
ENDBRANCH  31  33
BRANCH  31  37
ATOM     37  CB  SER d   1      26.643  -4.546  15.647  0.00  0.00     0.051 C 
ATOM     38  H   SER d   1      26.816  -3.811  14.861  0.00  0.00     0.077 H 
ATOM     39  H   SER d   1      27.433  -5.295  15.590  0.00  0.00     0.077 H 
BRANCH  37  40
ATOM     40  OG  SER d   1      26.659  -3.914  16.921  0.00  0.00    -0.398 OA
ATOM     41  H   SER d   1      27.511  -3.493  17.057  0.00  0.00     0.209 HD
ENDBRANCH  37  40
ENDBRANCH  31  37
ENDBRANCH  28  31
ENDBRANCH  25  27
BRANCH  25  42
ATOM     42  CB  TRP d   1      26.671  -6.884  11.580  0.00  0.00    -0.012 C 
ATOM     43  H   TRP d   1      26.631  -7.388  10.614  0.00  0.00     0.044 H 
ATOM     44  H   TRP d   1      26.762  -7.573  12.420  0.00  0.00     0.044 H 
BRANCH  42  45
ATOM     45  CG  TRP d   1      27.889  -5.997  11.582  0.00  0.00    -0.028 A 
ATOM     46  CD1 TRP d   1      28.900  -5.986  12.500  0.00  0.00    -0.015 A 
ATOM     47  NE1 TRP d   1      29.805  -4.996  12.192  0.00  0.00    -0.365 N 
ATOM     48  H   TRP d   1      28.979  -6.662  13.351  0.00  0.00     0.112 H 
ATOM     49  CE2 TRP d   1      29.409  -4.370  11.032  0.00  0.00     0.042 A 
ATOM     50  H   TRP d   1      30.636  -4.763  12.736  0.00  0.00     0.165 HD
ATOM     51  CD2 TRP d   1      28.185  -4.958  10.642  0.00  0.00    -0.002 A 
ATOM     52  CZ2 TRP d   1      29.989  -3.310  10.333  0.00  0.00    -0.056 A 
ATOM     53  CE3 TRP d   1      27.569  -4.511   9.466  0.00  0.00    -0.070 A 
ATOM     54  CZ3 TRP d   1      28.162  -3.487   8.745  0.00  0.00    -0.082 A 
ATOM     55  H   TRP d   1      26.638  -4.962   9.123  0.00  0.00     0.084 H 
ATOM     56  CH2 TRP d   1      29.360  -2.893   9.177  0.00  0.00    -0.081 A 
ATOM     57  H   TRP d   1      27.691  -3.136   7.827  0.00  0.00     0.083 H 
ATOM     58  H   TRP d   1      29.801  -2.088   8.589  0.00  0.00     0.083 H 
ATOM     59  H   TRP d   1      30.902  -2.831  10.686  0.00  0.00     0.086 H 
ENDBRANCH  42  45
ENDBRANCH  25  42
ENDBRANCH  22  25
ENDBRANCH  19  21
BRANCH  19  60
ATOM     60  CB  GLU d   1      21.181  -7.456  10.545  0.00  0.00    -0.029 C 
ATOM     61  H   GLU d   1      20.197  -7.922  10.606  0.00  0.00     0.037 H 
ATOM     62  H   GLU d   1      21.926  -8.071  10.040  0.00  0.00     0.037 H 
BRANCH  60  63
ATOM     63  CG  GLU d   1      21.028  -6.171   9.738  0.00  0.00     0.018 C 
ATOM     64  H   GLU d   1      20.958  -6.475   8.694  0.00  0.00     0.049 H 
ATOM     65  H   GLU d   1      21.879  -5.543  10.003  0.00  0.00     0.049 H 
BRANCH  63  66
ATOM     66  CD  GLU d   1      19.791  -5.344  10.019  0.00  0.00     0.172 C 
ATOM     67  OE1 GLU d   1      18.832  -5.435   9.219  0.00  0.00    -0.648 OA
ATOM     68  OE2 GLU d   1      19.800  -4.561  10.996  0.00  0.00    -0.648 OA
ENDBRANCH  63  66
ENDBRANCH  60  63
ENDBRANCH  19  60
ENDBRANCH  16  19
ENDBRANCH  13  15
BRANCH  13  69
ATOM     69  CB  SER d   1      23.699 -10.473  14.762  0.00  0.00     0.044 C 
ATOM     70  H   SER d   1      23.893 -10.913  15.740  0.00  0.00     0.077 H 
ATOM     71  H   SER d   1      24.528  -9.835  14.456  0.00  0.00     0.077 H 
BRANCH  69  72
ATOM     72  OG  SER d   1      23.547 -11.520  13.808  0.00  0.00    -0.398 OA
ATOM     73  H   SER d   1      24.354 -12.038  13.772  0.00  0.00     0.209 HD
ENDBRANCH  69  72
ENDBRANCH  13  69
ENDBRANCH  10  13
ENDBRANCH   7   9
BRANCH   7  74
ATOM     74  CB  HIS d   1      20.108 -10.060  19.072  0.00  0.00     0.002 C 
ATOM     75  H   HIS d   1      20.564 -11.002  19.379  0.00  0.00     0.046 H 
ATOM     76  H   HIS d   1      19.311 -10.196  18.341  0.00  0.00     0.046 H 
BRANCH  74  77
ATOM     77  CG  HIS d   1      19.512  -9.421  20.287  0.00  0.00     0.030 A 
ATOM     78  ND1 HIS d   1      19.868  -9.822  21.563  0.00  0.00    -0.353 N 
ATOM     79  CE1 HIS d   1      19.135  -9.078  22.388  0.00  0.00     0.063 A 
ATOM     80  H   HIS d   1      20.549 -10.537  21.818  0.00  0.00     0.166 HD
ATOM     81  NE2 HIS d   1      18.406  -8.179  21.724  0.00  0.00    -0.254 NA
ATOM     82  H   HIS d   1      19.131  -9.189  23.472  0.00  0.00     0.143 H 
ATOM     83  CD2 HIS d   1      18.633  -8.391  20.378  0.00  0.00     0.025 A 
ATOM     84  H   HIS d   1      18.191  -7.838  19.549  0.00  0.00     0.117 H 
ENDBRANCH  74  77
ENDBRANCH   7  74
ENDBRANCH   4   7
ENDBRANCH   1   3
BRANCH   1  85
ATOM     85  C   LYS d   1      23.286  -7.452  22.188  0.00  0.00     0.241 C 
ATOM     86  O   LYS d   1      22.502  -6.488  22.244  0.00  0.00    -0.271 OA
ATOM     87  N   SER d   1      23.699  -8.123  23.263  0.00  0.00    -0.344 N 
ATOM     88  H   SER d   1      24.365  -8.888  23.153  0.00  0.00     0.163 HD
BRANCH  87  89
ATOM     89  CA  SER d   1      23.213  -7.780  24.590  0.00  0.00     0.109 C 
ATOM     90  H   SER d   1      23.026  -6.711  24.694  0.00  0.00     0.090 H 
BRANCH  89  91
ATOM     91  C   SER d   1      24.296  -8.242  25.574  0.00  0.00     0.242 C 
ATOM     92  O   SER d   1      24.798  -9.381  25.423  0.00  0.00    -0.271 OA
ATOM     93  N   GLY d   1      24.675  -7.399  26.533  0.00  0.00    -0.350 N 
ATOM     94  H   GLY d   1      24.238  -6.480  26.603  0.00  0.00     0.163 HD
BRANCH  93  95
ATOM     95  CA  GLY d   1      25.714  -7.783  27.486  0.00  0.00     0.069 C 
ATOM     96  H   GLY d   1      25.384  -8.687  27.998  0.00  0.00     0.078 H 
ATOM     97  H   GLY d   1      25.868  -6.949  28.171  0.00  0.00     0.078 H 
BRANCH  95  98
ATOM     98  C   GLY d   1      27.041  -8.085  26.807  0.00  0.00     0.235 C 
ATOM     99  O   GLY d   1      27.843  -8.862  27.331  0.00  0.00    -0.272 OA
ATOM    100  N   GLY d   1      27.280  -7.479  25.645  0.00  0.00    -0.351 N 
ATOM    101  H   GLY d   1      26.582  -6.843  25.261  0.00  0.00     0.163 HD
BRANCH 100 102
ATOM    102  CA  GLY d   1      28.520  -7.707  24.911  0.00  0.00     0.069 C 
ATOM    103  H   GLY d   1      29.338  -7.667  25.630  0.00  0.00     0.078 H 
ATOM    104  H   GLY d   1      28.585  -6.945  24.134  0.00  0.00     0.078 H 
BRANCH 102 105
ATOM    105  C   GLY d   1      28.580  -9.057  24.229  0.00  0.00     0.236 C 
ATOM    106  O   GLY d   1      29.650  -9.500  23.826  0.00  0.00    -0.272 OA
ATOM    107  N   GLU d   1      27.421  -9.720  24.068  0.00  0.00    -0.346 N 
ATOM    108  H   GLU d   1      26.562  -9.277  24.395  0.00  0.00     0.163 HD
BRANCH 107 109
ATOM    109  CA  GLU d   1      27.325 -11.049  23.445  0.00  0.00     0.090 C 
ATOM    110  H   GLU d   1      28.303 -11.435  23.158  0.00  0.00     0.087 H 
BRANCH 109 111
ATOM    111  C   GLU d   1      26.442 -10.938  22.215  0.00  0.00     0.241 C 
ATOM    112  O   GLU d   1      25.350 -10.355  22.324  0.00  0.00    -0.271 OA
ATOM    113  N   THR d   1      26.869 -11.509  21.084  0.00  0.00    -0.344 N 
ATOM    114  H   THR d   1      27.763 -12.001  21.081  0.00  0.00     0.163 HD
BRANCH 113 115
ATOM    115  CA  THR d   1      26.091 -11.446  19.858  0.00  0.00     0.113 C 
ATOM    116  H   THR d   1      25.208 -10.829  20.024  0.00  0.00     0.091 H 
BRANCH 115 117
ATOM    117  C   THR d   1      25.655 -12.831  19.473  0.00  0.00     0.243 C 
ATOM    118  O   THR d   1      26.442 -13.770  19.601  0.00  0.00    -0.271 OA
ATOM    119  N   ARG d   1      24.404 -12.965  18.985  0.00  0.00    -0.346 N 
ATOM    120  H   ARG d   1      23.808 -12.137  18.972  0.00  0.00     0.163 HD
BRANCH 119 121
ATOM    121  CA  ARG d   1      23.850 -14.204  18.479  0.00  0.00     0.089 C 
ATOM    122  H   ARG d   1      24.330 -15.038  18.990  0.00  0.00     0.087 H 
BRANCH 121 123
ATOM    123  C   ARG d   1      24.091 -14.285  16.976  0.00  0.00     0.241 C 
ATOM    124  O   ARG d   1      23.651 -13.394  16.231  0.00  0.00    -0.271 OA
ATOM    125  N   LEU d   1      24.722 -15.366  16.526  0.00  0.00    -0.345 N 
ATOM    126  H   LEU d   1      24.976 -16.082  17.206  0.00  0.00     0.163 HD
BRANCH 125 127
ATOM    127  CA  LEU d   1      25.082 -15.606  15.115  0.00  0.00     0.096 C 
ATOM    128  H   LEU d   1      24.789 -14.694  14.595  0.00  0.00     0.089 H 
BRANCH 127 129
ATOM    129  C   LEU d   1      24.369 -16.785  14.532  0.00  0.00     0.196 C 
ATOM    130  O   LEU d   1      23.742 -17.577  15.294  0.00  0.00    -0.646 OA
ATOM    131  OXT LEU d   1      24.497 -16.988  13.313  0.00  0.00    -0.646 OA
ENDBRANCH 127 129
BRANCH 127 132
ATOM    132  CB  LEU d   1      26.619 -15.883  14.943  0.00  0.00    -0.034 C 
ATOM    133  H   LEU d   1      26.731 -16.234  13.917  0.00  0.00     0.037 H 
ATOM    134  H   LEU d   1      26.878 -16.559  15.758  0.00  0.00     0.037 H 
BRANCH 132 135
ATOM    135  CG  LEU d   1      27.592 -14.714  15.072  0.00  0.00    -0.059 C 
ATOM    136  H   LEU d   1      28.561 -15.023  14.680  0.00  0.00     0.038 H 
BRANCH 135 137
ATOM    137  CD1 LEU d   1      27.246 -13.548  14.138  0.00  0.00    -0.073 C 
ATOM    138  H   LEU d   1      27.273 -13.892  13.104  0.00  0.00     0.028 H 
ATOM    139  H   LEU d   1      26.248 -13.179  14.374  0.00  0.00     0.028 H 
ATOM    140  H   LEU d   1      27.972 -12.747  14.274  0.00  0.00     0.028 H 
ENDBRANCH 135 137
BRANCH 135 141
ATOM    141  CD2 LEU d   1      27.933 -14.398  16.511  0.00  0.00    -0.073 C 
ATOM    142  H   LEU d   1      27.022 -14.137  17.050  0.00  0.00     0.028 H 
ATOM    143  H   LEU d   1      28.394 -15.271  16.974  0.00  0.00     0.028 H 
ATOM    144  H   LEU d   1      28.628 -13.559  16.543  0.00  0.00     0.028 H 
ENDBRANCH 135 141
ENDBRANCH 132 135
ENDBRANCH 127 132
ENDBRANCH 125 127
ENDBRANCH 121 123
BRANCH 121 145
ATOM    145  CB  ARG d   1      22.337 -14.246  18.727  0.00  0.00    -0.036 C 
ATOM    146  H   ARG d   1      21.990 -15.196  18.321  0.00  0.00     0.036 H 
ATOM    147  H   ARG d   1      21.930 -13.345  18.268  0.00  0.00     0.036 H 
BRANCH 145 148
ATOM    148  CG  ARG d   1      21.896 -14.219  20.159  0.00  0.00    -0.048 C 
ATOM    149  H   ARG d   1      22.209 -13.291  20.637  0.00  0.00     0.035 H 
ATOM    150  H   ARG d   1      22.349 -15.041  20.713  0.00  0.00     0.035 H 
BRANCH 148 151
ATOM    151  CD  ARG d   1      20.382 -14.340  20.172  0.00  0.00     0.009 C 
ATOM    152  H   ARG d   1      20.130 -15.391  20.028  0.00  0.00     0.064 H 
ATOM    153  H   ARG d   1      19.989 -13.699  19.383  0.00  0.00     0.064 H 
BRANCH 151 154
ATOM    154  NE  ARG d   1      19.790 -13.907  21.435  0.00  0.00    -0.227 N 
ATOM    155  CZ  ARG d   1      18.654 -13.221  21.526  0.00  0.00     0.665 C 
ATOM    156  NH1 ARG d   1      18.002 -12.852  20.429  0.00  0.00    -0.235 N 
ATOM    157  NH2 ARG d   1      18.174 -12.878  22.713  0.00  0.00    -0.235 N 
ATOM    158  H   ARG d   1      18.372 -13.095  19.510  0.00  0.00     0.174 HD
ATOM    159  H   ARG d   1      17.131 -12.326  20.506  0.00  0.00     0.174 HD
ATOM    160  H   ARG d   1      18.676 -13.140  23.561  0.00  0.00     0.174 HD
ATOM    161  H   ARG d   1      17.302 -12.352  22.778  0.00  0.00     0.174 HD
ATOM    162  H   ARG d   1      20.277 -14.145  22.299  0.00  0.00     0.177 HD
ENDBRANCH 151 154
ENDBRANCH 148 151
ENDBRANCH 145 148
ENDBRANCH 121 145
ENDBRANCH 119 121
ENDBRANCH 115 117
BRANCH 115 163
ATOM    163  CB  THR d   1      26.910 -10.800  18.733  0.00  0.00     0.060 C 
ATOM    164  H   THR d   1      27.783 -11.426  18.546  0.00  0.00     0.086 H 
BRANCH 163 165
ATOM    165  OG1 THR d   1      27.257  -9.469  19.154  0.00  0.00    -0.393 OA
ATOM    166  H   THR d   1      27.775  -9.515  19.961  0.00  0.00     0.210 HD
ENDBRANCH 163 165
BRANCH 163 167
ATOM    167  CG2 THR d   1      26.119 -10.683  17.430  0.00  0.00    -0.050 C 
ATOM    168  H   THR d   1      25.817 -11.677  17.099  0.00  0.00     0.031 H 
ATOM    169  H   THR d   1      25.234 -10.070  17.598  0.00  0.00     0.031 H 
ATOM    170  H   THR d   1      26.744 -10.220  16.667  0.00  0.00     0.031 H 
ENDBRANCH 163 167
ENDBRANCH 115 163
ENDBRANCH 113 115
ENDBRANCH 109 111
BRANCH 109 171
ATOM    171  CB  GLU d   1      26.637 -11.976  24.482  0.00  0.00    -0.029 C 
ATOM    172  H   GLU d   1      25.679 -11.521  24.735  0.00  0.00     0.037 H 
ATOM    173  H   GLU d   1      27.320 -12.078  25.325  0.00  0.00     0.037 H 
BRANCH 171 174
ATOM    174  CG  GLU d   1      26.346 -13.377  23.969  0.00  0.00     0.018 C 
ATOM    175  H   GLU d   1      27.306 -13.836  23.733  0.00  0.00     0.049 H 
ATOM    176  H   GLU d   1      25.673 -13.271  23.118  0.00  0.00     0.049 H 
BRANCH 174 177
ATOM    177  CD  GLU d   1      25.654 -14.286  24.971  0.00  0.00     0.172 C 
ATOM    178  OE1 GLU d   1      24.901 -13.783  25.838  0.00  0.00    -0.648 OA
ATOM    179  OE2 GLU d   1      25.849 -15.513  24.884  0.00  0.00    -0.648 OA
ENDBRANCH 174 177
ENDBRANCH 171 174
ENDBRANCH 109 171
ENDBRANCH 107 109
ENDBRANCH 102 105
ENDBRANCH 100 102
ENDBRANCH  95  98
ENDBRANCH  93  95
ENDBRANCH  89  91
BRANCH  89 180
ATOM    180  CB  SER d   1      21.900  -8.501  24.853  0.00  0.00     0.044 C 
ATOM    181  H   SER d   1      22.072  -9.576  24.797  0.00  0.00     0.077 H 
ATOM    182  H   SER d   1      21.171  -8.185  24.107  0.00  0.00     0.077 H 
BRANCH 180 183
ATOM    183  OG  SER d   1      21.400  -8.185  26.144  0.00  0.00    -0.398 OA
ATOM    184  H   SER d   1      20.573  -8.650  26.288  0.00  0.00     0.209 HD
ENDBRANCH 180 183
ENDBRANCH  89 180
ENDBRANCH  87  89
ENDBRANCH   1  85
BRANCH   1 185
ATOM    185  CB  LYS d   1      24.869  -6.945  20.285  0.00  0.00    -0.038 C 
ATOM    186  H   LYS d   1      24.401  -5.961  20.252  0.00  0.00     0.036 H 
ATOM    187  H   LYS d   1      25.175  -7.313  19.306  0.00  0.00     0.036 H 
BRANCH 185 188
ATOM    188  CG  LYS d   1      26.126  -6.828  21.146  0.00  0.00    -0.061 C 
ATOM    189  H   LYS d   1      26.514  -7.832  21.321  0.00  0.00     0.033 H 
ATOM    190  H   LYS d   1      25.857  -6.326  22.075  0.00  0.00     0.033 H 
BRANCH 188 191
ATOM    191  CD  LYS d   1      27.225  -6.002  20.454  0.00  0.00    -0.043 C 
ATOM    192  H   LYS d   1      26.840  -4.991  20.318  0.00  0.00     0.035 H 
ATOM    193  H   LYS d   1      27.470  -6.501  19.517  0.00  0.00     0.035 H 
BRANCH 191 194
ATOM    194  CE  LYS d   1      28.489  -5.901  21.257  0.00  0.00     0.080 C 
ATOM    195  H   LYS d   1      28.878  -6.898  21.462  0.00  0.00     0.075 H 
ATOM    196  H   LYS d   1      28.287  -5.403  22.205  0.00  0.00     0.075 H 
BRANCH 194 197
ATOM    197  NZ  LYS d   1      29.505  -5.105  20.464  0.00  0.00    -0.079 N 
ATOM    198  H   LYS d   1      30.369  -5.029  21.000  0.00  0.00     0.274 HD
ATOM    199  H   LYS d   1      29.692  -5.579  19.580  0.00  0.00     0.274 HD
ATOM    200  H   LYS d   1      29.135  -4.172  20.279  0.00  0.00     0.274 HD
ENDBRANCH 194 197
ENDBRANCH 191 194
ENDBRANCH 188 191
ENDBRANCH 185 188
ENDBRANCH   1 185
TORSDOF 58
