REMARK  3 active torsions:
REMARK  status: ('A' for Active; 'I' for Inactive)
REMARK    1  A    between atoms: C5_5  and  C23_23 
REMARK    2  A    between atoms: C10_10  and  N15_15 
REMARK    3  A    between atoms: N15_15  and  C16_16 
ROOT
ATOM      1  C1  3NG d   1      46.187  -4.719  37.631  0.00  0.00     0.071 A 
ATOM      2  C2  3NG d   1      45.151  -5.553  38.122  0.00  0.00     0.005 A 
ATOM      3  C3  3NG d   1      44.811  -5.515  39.498  0.00  0.00    -0.069 A 
ATOM      4  C4  3NG d   1      45.465  -4.655  40.364  0.00  0.00    -0.066 A 
ATOM      5  C5  3NG d   1      46.495  -3.837  39.886  0.00  0.00     0.043 A 
ATOM      6  C6  3NG d   1      46.865  -3.889  38.544  0.00  0.00    -0.038 A 
ATOM      7  C7  3NG d   1      44.920  -6.345  35.823  0.00  0.00     0.024 A 
ATOM      8  C8  3NG d   1      44.509  -6.391  37.188  0.00  0.00     0.008 A 
ATOM      9  N9  3NG d   1      46.570  -4.675  36.335  0.00  0.00    -0.230 NA
ATOM     10  C10 3NG d   1      45.974  -5.454  35.449  0.00  0.00     0.140 A 
ATOM     11  C11 3NG d   1      43.242  -8.008  35.348  0.00  0.00     0.003 A 
ATOM     12  N12 3NG d   1      42.843  -8.085  36.637  0.00  0.00    -0.272 NA
ATOM     13  C13 3NG d   1      43.465  -7.271  37.514  0.00  0.00     0.013 A 
ATOM     14  C14 3NG d   1      44.267  -7.194  34.899  0.00  0.00    -0.051 A 
ATOM     15  H   3NG d   1      44.027  -6.170  39.878  0.00  0.00     0.085 H 
ATOM     16  H   3NG d   1      45.178  -4.615  41.415  0.00  0.00     0.085 H 
ATOM     17  H   3NG d   1      47.695  -3.275  38.194  0.00  0.00     0.088 H 
ATOM     18  H   3NG d   1      42.723  -8.627  34.615  0.00  0.00     0.114 H 
ATOM     19  H   3NG d   1      43.133  -7.298  38.552  0.00  0.00     0.116 H 
ATOM     20  H   3NG d   1      44.566  -7.207  33.851  0.00  0.00     0.087 H 
ENDROOT
BRANCH  10  21
ATOM     21  N15 3NG d   1      46.375  -5.396  34.165  0.00  0.00    -0.340 N 
ATOM     22  H   3NG d   1      45.874  -6.029  33.542  0.00  0.00     0.167 HD
BRANCH  21  23
ATOM     23  C16 3NG d   1      47.354  -4.625  33.530  0.00  0.00     0.035 A 
ATOM     24  C17 3NG d   1      48.582  -4.283  34.091  0.00  0.00    -0.036 A 
ATOM     25  C18 3NG d   1      49.485  -3.524  33.333  0.00  0.00     0.036 A 
ATOM     26  H   3NG d   1      48.837  -4.600  35.102  0.00  0.00     0.089 H 
ATOM     27  C19 3NG d   1      49.202  -3.136  32.028  0.00  0.00    -0.062 A 
ATOM     28 CL22 3NG d   1      50.988  -3.052  34.007  0.00  0.00    -0.084 Cl
ATOM     29  C20 3NG d   1      47.979  -3.473  31.475  0.00  0.00    -0.079 A 
ATOM     30  H   3NG d   1      49.934  -2.574  31.448  0.00  0.00     0.086 H 
ATOM     31  C21 3NG d   1      47.067  -4.218  32.216  0.00  0.00    -0.057 A 
ATOM     32  H   3NG d   1      47.731  -3.156  30.462  0.00  0.00     0.083 H 
ATOM     33  H   3NG d   1      46.111  -4.491  31.769  0.00  0.00     0.086 H 
ENDBRANCH  21  23
ENDBRANCH  10  21
BRANCH   5  34
ATOM     34  C23 3NG d   1      47.178  -2.882  40.776  0.00  0.00     0.209 C 
ATOM     35  O24 3NG d   1      48.302  -2.438  40.351  0.00  0.00    -0.644 OA
ATOM     36  O25 3NG d   1      46.556  -2.546  41.845  0.00  0.00    -0.644 OA
ENDBRANCH   5  34
TORSDOF 3
