REMARK  3 active torsions:
REMARK  status: ('A' for Active; 'I' for Inactive)
REMARK    1  A    between atoms: C1_1  and  C6_13 
REMARK    2  A    between atoms: N5_12  and  C3_7 
REMARK    3  A    between atoms: C6_13  and  C7_14 
ROOT
ATOM      1  C1  NIF d   1      51.440 108.970  73.507  0.00  0.00     0.099 A 
ATOM      2  N1  NIF d   1      52.431 108.193  73.059  0.00  0.00    -0.160 NA
ATOM      3  O1  NIF d   1      54.085 106.115  72.412  0.00  0.00    -0.266 OA
ATOM      4  S1  NIF d   1      50.143 107.976  74.373  0.00  0.00    -0.033 SA
ATOM      5  C2  NIF d   1      51.066 106.565  74.040  0.00  0.00     0.201 A 
ATOM      6  N2  NIF d   1      52.219 106.824  73.365  0.00  0.00    -0.171 N 
ATOM      7  C3  NIF d   1      51.652 104.198  74.013  0.00  0.00     0.134 A 
ATOM      8  N3  NIF d   1      50.746 105.349  74.378  0.00  0.00    -0.205 NA
ATOM      9  C4  NIF d   1      52.791 104.454  73.362  0.00  0.00     0.029 A 
ATOM     10  C5  NIF d   1      53.103 105.835  73.009  0.00  0.00     0.274 A 
ATOM     11  H1  NIF d   1      53.474 103.647  73.100  0.00  0.00     0.098 H 
ENDROOT
BRANCH   7  12
ATOM     12  N5  NIF d   1      51.165 102.916  74.485  0.00  0.00    -0.362 N 
ATOM     13  C8  NIF d   1      49.977 102.938  75.291  0.00  0.00     0.019 C 
ATOM     14  C9  NIF d   1      49.159 101.675  75.093  0.00  0.00     0.096 C 
ATOM     15  H9  NIF d   1      49.367 103.809  75.008  0.00  0.00     0.066 H 
ATOM     16  H10 NIF d   1      50.263 103.019  76.350  0.00  0.00     0.066 H 
ATOM     17  N4  NIF d   1      50.042 100.501  75.381  0.00  0.00    -0.072 N 
ATOM     18  H11 NIF d   1      48.301 101.674  75.781  0.00  0.00     0.078 H 
ATOM     19  H12 NIF d   1      48.797 101.624  74.056  0.00  0.00     0.078 H 
ATOM     20  C10 NIF d   1      51.010 100.453  74.273  0.00  0.00     0.096 C 
ATOM     21  H2  NIF d   1      49.500  99.652  75.412  0.00  0.00     0.277 HD
ATOM     22  H3  NIF d   1      50.519 100.627  76.260  0.00  0.00     0.277 HD
ATOM     23  C11 NIF d   1      51.873 101.720  74.244  0.00  0.00     0.019 C 
ATOM     24  H13 NIF d   1      50.464 100.367  73.322  0.00  0.00     0.078 H 
ATOM     25  H14 NIF d   1      51.662  99.576  74.402  0.00  0.00     0.078 H 
ATOM     26  H15 NIF d   1      52.653 101.622  75.013  0.00  0.00     0.066 H 
ATOM     27  H16 NIF d   1      52.343 101.793  73.252  0.00  0.00     0.066 H 
ENDBRANCH   7  12
BRANCH   1  28
ATOM     28  C6  NIF d   1      51.335 110.481  73.374  0.00  0.00    -0.020 C 
ATOM     29  H4  NIF d   1      51.714 110.790  72.389  0.00  0.00     0.042 H 
ATOM     30  H5  NIF d   1      51.931 110.962  74.164  0.00  0.00     0.042 H 
BRANCH  28  31
ATOM     31  C7  NIF d   1      49.868 110.900  73.513  0.00  0.00    -0.071 C 
ATOM     32  H6  NIF d   1      49.788 111.993  73.417  0.00  0.00     0.028 H 
ATOM     33  H7  NIF d   1      49.490 110.590  74.498  0.00  0.00     0.028 H 
ATOM     34  H8  NIF d   1      49.273 110.418  72.723  0.00  0.00     0.028 H 
ENDBRANCH  28  31
ENDBRANCH   1  28
TORSDOF 3
