REMARK  16 active torsions:
REMARK  status: ('A' for Active; 'I' for Inactive)
REMARK    1  A    between atoms: N_1  and  CA_2 
REMARK    2  A    between atoms: CA_2  and  C_3 
REMARK    3  A    between atoms: CA_2  and  CB_5 
REMARK       I    between atoms: C_3  and  N_10 
REMARK    4  A    between atoms: CB_5  and  CG_6 
REMARK    5  A    between atoms: CG_6  and  CD_7 
REMARK    6  A    between atoms: CD_7  and  CE_8 
REMARK    7  A    between atoms: CE_8  and  NZ_9 
REMARK    8  A    between atoms: N_10  and  CA_11 
REMARK    9  A    between atoms: CA_11  and  C_12 
REMARK   10  A    between atoms: CA_11  and  CB_14 
REMARK       I    between atoms: C_12  and  N_18 
REMARK   11  A    between atoms: CB_14  and  CG1_15 
REMARK   12  A    between atoms: CB_14  and  CG2_16 
REMARK   13  A    between atoms: CG1_15  and  CD1_17 
REMARK   14  A    between atoms: N_18  and  CA_19 
REMARK   15  A    between atoms: CA_19  and  C_20 
REMARK   16  A    between atoms: CA_19  and  CB_22 
ROOT
ATOM      1  CA  ILE d   1      28.403  10.136  -5.528  0.00  0.00     0.092 C 
ATOM      2  H   ILE d   1      28.233  11.089  -5.027  0.00  0.00     0.088 H 
ENDROOT
BRANCH   1   3
ATOM      3  N   ILE d   1      27.791  10.214  -6.852  0.00  0.00    -0.346 N 
ATOM      4  C   LYS d   1      27.426  11.372  -7.398  0.00  0.00     0.249 C 
ATOM      5  O   LYS d   1      27.514  12.451  -6.816  0.00  0.00    -0.271 OA
ATOM      6  H   ILE d   1      27.638   9.352  -7.376  0.00  0.00     0.163 HD
BRANCH   4   7
ATOM      7  CA  LYS d   1      26.869  11.303  -8.812  0.00  0.00     0.176 C 
ATOM      8  H   LYS d   1      26.115  10.517  -8.852  0.00  0.00     0.099 H 
BRANCH   7   9
ATOM      9  N   LYS d   1      26.212  12.589  -9.183  0.00  0.00    -0.067 N 
ATOM     10  H   LYS d   1      25.472  12.797  -8.513  0.00  0.00     0.275 HD
ATOM     11  H   LYS d   1      26.904  13.339  -9.171  0.00  0.00     0.275 HD
ATOM     12  H   LYS d   1      25.812  12.508 -10.118  0.00  0.00     0.275 HD
ENDBRANCH   7   9
BRANCH   7  13
ATOM     13  CB  LYS d   1      27.989  10.960  -9.802  0.00  0.00    -0.030 C 
ATOM     14  H   LYS d   1      28.318   9.948  -9.567  0.00  0.00     0.036 H 
ATOM     15  H   LYS d   1      28.753  11.729  -9.692  0.00  0.00     0.036 H 
BRANCH  13  16
ATOM     16  CG  LYS d   1      27.573  10.959 -11.270  0.00  0.00    -0.061 C 
ATOM     17  H   LYS d   1      28.477  10.917 -11.877  0.00  0.00     0.033 H 
ATOM     18  H   LYS d   1      26.990  11.861 -11.456  0.00  0.00     0.033 H 
BRANCH  16  19
ATOM     19  CD  LYS d   1      26.709   9.757 -11.627  0.00  0.00    -0.043 C 
ATOM     20  H   LYS d   1      25.779   9.815 -11.061  0.00  0.00     0.035 H 
ATOM     21  H   LYS d   1      27.259   8.848 -11.385  0.00  0.00     0.035 H 
BRANCH  19  22
ATOM     22  CE  LYS d   1      26.376   9.744 -13.110  0.00  0.00     0.080 C 
ATOM     23  H   LYS d   1      26.006  10.733 -13.382  0.00  0.00     0.075 H 
ATOM     24  H   LYS d   1      25.635   8.963 -13.284  0.00  0.00     0.075 H 
BRANCH  22  25
ATOM     25  NZ  LYS d   1      27.567   9.447 -13.954  0.00  0.00    -0.079 N 
ATOM     26  H   LYS d   1      27.295   9.449 -14.937  0.00  0.00     0.274 HD
ATOM     27  H   LYS d   1      28.280  10.159 -13.796  0.00  0.00     0.274 HD
ATOM     28  H   LYS d   1      27.939   8.530 -13.705  0.00  0.00     0.274 HD
ENDBRANCH  22  25
ENDBRANCH  19  22
ENDBRANCH  16  19
ENDBRANCH  13  16
ENDBRANCH   7  13
ENDBRANCH   4   7
ENDBRANCH   1   3
BRANCH   1  29
ATOM     29  C   ILE d   1      29.911   9.926  -5.641  0.00  0.00     0.241 C 
ATOM     30  O   ILE d   1      30.373   9.036  -6.361  0.00  0.00    -0.271 OA
ATOM     31  N   ALA d   1      30.666  10.766  -4.935  0.00  0.00    -0.345 N 
ATOM     32  H   ALA d   1      30.209  11.507  -4.403  0.00  0.00     0.163 HD
BRANCH  31  33
ATOM     33  CA  ALA d   1      32.123  10.668  -4.893  0.00  0.00     0.093 C 
ATOM     34  H   ALA d   1      32.435   9.946  -5.647  0.00  0.00     0.089 H 
BRANCH  33  35
ATOM     35  C   ALA d   1      32.600  10.164  -3.532  0.00  0.00     0.196 C 
ATOM     36  O   ALA d   1      31.987   9.242  -2.931  0.00  0.00    -0.646 OA
ATOM     37  O   ALA d   1      33.621  10.678  -3.003  0.00  0.00    -0.646 OA
ENDBRANCH  33  35
BRANCH  33  38
ATOM     38  CB  ALA d   1      32.757  12.014  -5.218  0.00  0.00    -0.048 C 
ATOM     39  H   ALA d   1      32.451  12.327  -6.216  0.00  0.00     0.030 H 
ATOM     40  H   ALA d   1      32.430  12.754  -4.488  0.00  0.00     0.030 H 
ATOM     41  H   ALA d   1      33.842  11.921  -5.182  0.00  0.00     0.030 H 
ENDBRANCH  33  38
ENDBRANCH  31  33
ENDBRANCH   1  29
BRANCH   1  42
ATOM     42  CB  ILE d   1      27.736   9.033  -4.647  0.00  0.00    -0.030 C 
ATOM     43  H   ILE d   1      27.488   8.199  -5.304  0.00  0.00     0.043 H 
BRANCH  42  44
ATOM     44  CG1 ILE d   1      26.437   9.556  -4.011  0.00  0.00    -0.063 C 
ATOM     45  H   ILE d   1      26.063   8.755  -3.373  0.00  0.00     0.033 H 
ATOM     46  H   ILE d   1      25.788   9.850  -4.836  0.00  0.00     0.033 H 
BRANCH  44  47
ATOM     47  CD1 ILE d   1      26.581  10.788  -3.116  0.00  0.00    -0.076 C 
ATOM     48  H   ILE d   1      27.254  10.559  -2.290  0.00  0.00     0.027 H 
ATOM     49  H   ILE d   1      26.988  11.614  -3.699  0.00  0.00     0.027 H 
ATOM     50  H   ILE d   1      25.603  11.067  -2.723  0.00  0.00     0.027 H 
ENDBRANCH  44  47
ENDBRANCH  42  44
BRANCH  42  51
ATOM     51  CG2 ILE d   1      28.695   8.492  -3.574  0.00  0.00    -0.071 C 
ATOM     52  H   ILE d   1      29.571   8.058  -4.057  0.00  0.00     0.028 H 
ATOM     53  H   ILE d   1      29.005   9.308  -2.921  0.00  0.00     0.028 H 
ATOM     54  H   ILE d   1      28.187   7.728  -2.986  0.00  0.00     0.028 H 
ENDBRANCH  42  51
ENDBRANCH   1  42
TORSDOF 16
