REMARK  13 active torsions:
REMARK  status: ('A' for Active; 'I' for Inactive)
REMARK    1  A    between atoms: N_1  and  CA_2 
REMARK    2  A    between atoms: CA_2  and  C_3 
REMARK    3  A    between atoms: CA_2  and  CB_5 
REMARK       I    between atoms: C_3  and  N_11 
REMARK    4  A    between atoms: CB_5  and  CG_6 
REMARK    5  A    between atoms: N_11  and  CA_12 
REMARK    6  A    between atoms: CA_12  and  C_13 
REMARK    7  A    between atoms: CA_12  and  CB_15 
REMARK       I    between atoms: C_13  and  N_19 
REMARK    8  A    between atoms: CB_15  and  CG1_16 
REMARK    9  A    between atoms: CB_15  and  CG2_17 
REMARK   10  A    between atoms: CG1_16  and  CD1_18 
REMARK   11  A    between atoms: N_19  and  CA_20 
REMARK   12  A    between atoms: CA_20  and  C_21 
REMARK   13  A    between atoms: CA_20  and  CB_23 
ROOT
ATOM      1  CA  ILE d   1      28.313   9.891  -5.281  0.00  0.00     0.092 C 
ATOM      2  H   ILE d   1      28.346  10.893  -4.854  0.00  0.00     0.088 H 
ENDROOT
BRANCH   1   3
ATOM      3  N   ILE d   1      27.787   9.986  -6.638  0.00  0.00    -0.346 N 
ATOM      4  C   HIS d   1      27.557  11.158  -7.220  0.00  0.00     0.249 C 
ATOM      5  O   HIS d   1      27.773  12.236  -6.673  0.00  0.00    -0.271 OA
ATOM      6  H   ILE d   1      27.590   9.129  -7.155  0.00  0.00     0.163 HD
BRANCH   4   7
ATOM      7  CA  HIS d   1      26.997  11.107  -8.631  0.00  0.00     0.181 C 
ATOM      8  H   HIS d   1      26.225  10.338  -8.660  0.00  0.00     0.099 H 
BRANCH   7   9
ATOM      9  N   HIS d   1      26.364  12.403  -9.005  0.00  0.00    -0.066 N 
ATOM     10  H   HIS d   1      25.637  12.633  -8.327  0.00  0.00     0.275 HD
ATOM     11  H   HIS d   1      27.072  13.137  -9.009  0.00  0.00     0.275 HD
ATOM     12  H   HIS d   1      25.951  12.323  -9.934  0.00  0.00     0.275 HD
ENDBRANCH   7   9
BRANCH   7  13
ATOM     13  CB  HIS d   1      28.094  10.732  -9.630  0.00  0.00     0.011 C 
ATOM     14  H   HIS d   1      28.563   9.815  -9.272  0.00  0.00     0.046 H 
ATOM     15  H   HIS d   1      28.780  11.577  -9.694  0.00  0.00     0.046 H 
BRANCH  13  16
ATOM     16  CG  HIS d   1      27.582  10.464 -11.010  0.00  0.00     0.053 A 
ATOM     17  ND1 HIS d   1      27.380   9.190 -11.494  0.00  0.00    -0.247 NA
ATOM     18  CE1 HIS d   1      26.916   9.259 -12.729  0.00  0.00     0.064 A 
ATOM     19  NE2 HIS d   1      26.806  10.533 -13.062  0.00  0.00    -0.359 N 
ATOM     20  H   HIS d   1      26.666   8.410 -13.365  0.00  0.00     0.143 H 
ATOM     21  CD2 HIS d   1      27.214  11.307 -12.003  0.00  0.00     0.002 A 
ATOM     22  H   HIS d   1      26.472  10.885 -13.960  0.00  0.00     0.166 HD
ATOM     23  H   HIS d   1      27.237  12.396 -11.969  0.00  0.00     0.114 H 
ENDBRANCH  13  16
ENDBRANCH   7  13
ENDBRANCH   4   7
ENDBRANCH   1   3
BRANCH   1  24
ATOM     24  C   ILE d   1      29.752   9.359  -5.288  0.00  0.00     0.241 C 
ATOM     25  O   ILE d   1      30.222   8.848  -6.309  0.00  0.00    -0.271 OA
ATOM     26  N   ALA d   1      30.442   9.497  -4.155  0.00  0.00    -0.345 N 
ATOM     27  H   ALA d   1      29.968   9.891  -3.342  0.00  0.00     0.163 HD
BRANCH  26  28
ATOM     28  CA  ALA d   1      31.851   9.108  -4.024  0.00  0.00     0.093 C 
ATOM     29  H   ALA d   1      32.408   9.698  -4.752  0.00  0.00     0.089 H 
BRANCH  28  30
ATOM     30  C   ALA d   1      32.105   7.638  -4.370  0.00  0.00     0.196 C 
ATOM     31  O   ALA d   1      32.898   7.325  -5.298  0.00  0.00    -0.646 OA
ATOM     32  O   ALA d   1      31.515   6.733  -3.721  0.00  0.00    -0.646 OA
ENDBRANCH  28  30
BRANCH  28  33
ATOM     33  CB  ALA d   1      32.354   9.417  -2.620  0.00  0.00    -0.048 C 
ATOM     34  H   ALA d   1      32.259  10.486  -2.429  0.00  0.00     0.030 H 
ATOM     35  H   ALA d   1      31.761   8.862  -1.893  0.00  0.00     0.030 H 
ATOM     36  H   ALA d   1      33.400   9.123  -2.538  0.00  0.00     0.030 H 
ENDBRANCH  28  33
ENDBRANCH  26  28
ENDBRANCH   1  24
BRANCH   1  37
ATOM     37  CB  ILE d   1      27.371   9.047  -4.369  0.00  0.00    -0.030 C 
ATOM     38  H   ILE d   1      26.362   9.110  -4.777  0.00  0.00     0.043 H 
BRANCH  37  39
ATOM     39  CG1 ILE d   1      27.315   9.628  -2.952  0.00  0.00    -0.063 C 
ATOM     40  H   ILE d   1      28.323   9.955  -2.695  0.00  0.00     0.033 H 
ATOM     41  H   ILE d   1      26.924   8.850  -2.297  0.00  0.00     0.033 H 
BRANCH  39  42
ATOM     42  CD1 ILE d   1      26.396  10.839  -2.819  0.00  0.00    -0.076 C 
ATOM     43  H   ILE d   1      26.744  11.632  -3.481  0.00  0.00     0.027 H 
ATOM     44  H   ILE d   1      25.380  10.555  -3.093  0.00  0.00     0.027 H 
ATOM     45  H   ILE d   1      26.410  11.193  -1.788  0.00  0.00     0.027 H 
ENDBRANCH  39  42
ENDBRANCH  37  39
BRANCH  37  46
ATOM     46  CG2 ILE d   1      27.738   7.555  -4.390  0.00  0.00    -0.071 C 
ATOM     47  H   ILE d   1      27.657   7.176  -5.409  0.00  0.00     0.028 H 
ATOM     48  H   ILE d   1      28.761   7.429  -4.035  0.00  0.00     0.028 H 
ATOM     49  H   ILE d   1      27.056   7.005  -3.741  0.00  0.00     0.028 H 
ENDBRANCH  37  46
ENDBRANCH   1  37
TORSDOF 13
