REMARK  13 active torsions:
REMARK  status: ('A' for Active; 'I' for Inactive)
REMARK    1  A    between atoms: N_1  and  CA_2 
REMARK    2  A    between atoms: CA_2  and  C_3 
REMARK    3  A    between atoms: CA_2  and  CB_5 
REMARK       I    between atoms: C_3  and  N_12 
REMARK    4  A    between atoms: CB_5  and  CG_6 
REMARK    5  A    between atoms: CG_6  and  CD_7 
REMARK    6  A    between atoms: CD_7  and  NE_8 
REMARK       I    between atoms: NE_8  and  CZ_9 
REMARK       I    between atoms: CZ_9  and  NH1_10 
REMARK    7  A    between atoms: N_12  and  CA_13 
REMARK    8  A    between atoms: CA_13  and  C_14 
REMARK    9  A    between atoms: CA_13  and  CB_16 
REMARK       I    between atoms: C_14  and  N_20 
REMARK   10  A    between atoms: CB_16  and  CG_17 
REMARK   11  A    between atoms: N_20  and  CA_21 
REMARK   12  A    between atoms: CA_21  and  C_22 
REMARK   13  A    between atoms: CA_21  and  CB_24 
ROOT
ATOM      1  C   ARG d   1     -40.566  11.893  -7.228  0.00  0.00     0.249 C 
ATOM      2  O   ARG d   1     -39.879  10.922  -6.903  0.00  0.00    -0.271 OA
ATOM      3  N   ASP d   1     -41.601  11.802  -8.063  0.00  0.00    -0.345 N 
ATOM      4  H   ASP d   1     -42.191  12.620  -8.213  0.00  0.00     0.163 HD
ENDROOT
BRANCH   1   5
ATOM      5  CA  ARG d   1     -40.260  13.281  -6.667  0.00  0.00     0.176 C 
ATOM      6  H   ARG d   1     -41.192  13.730  -6.324  0.00  0.00     0.099 H 
BRANCH   5   7
ATOM      7  N   ARG d   1     -39.340  13.191  -5.495  0.00  0.00    -0.067 N 
ATOM      8  H   ARG d   1     -39.758  12.595  -4.781  0.00  0.00     0.275 HD
ATOM      9  H   ARG d   1     -38.450  12.793  -5.793  0.00  0.00     0.275 HD
ATOM     10  H   ARG d   1     -39.186  14.124  -5.113  0.00  0.00     0.275 HD
ENDBRANCH   5   7
BRANCH   5  11
ATOM     11  CB  ARG d   1     -39.659  14.176  -7.768  0.00  0.00    -0.029 C 
ATOM     12  H   ARG d   1     -40.483  14.439  -8.431  0.00  0.00     0.036 H 
ATOM     13  H   ARG d   1     -38.847  13.604  -8.216  0.00  0.00     0.036 H 
BRANCH  11  14
ATOM     14  CG  ARG d   1     -39.044  15.501  -7.300  0.00  0.00    -0.047 C 
ATOM     15  H   ARG d   1     -38.624  16.005  -8.170  0.00  0.00     0.035 H 
ATOM     16  H   ARG d   1     -38.288  15.276  -6.548  0.00  0.00     0.035 H 
BRANCH  14  17
ATOM     17  CD  ARG d   1     -40.076  16.426  -6.671  0.00  0.00     0.009 C 
ATOM     18  H   ARG d   1     -40.211  16.125  -5.632  0.00  0.00     0.064 H 
ATOM     19  H   ARG d   1     -40.998  16.346  -7.248  0.00  0.00     0.064 H 
BRANCH  17  20
ATOM     20  NE  ARG d   1     -39.650  17.827  -6.687  0.00  0.00    -0.227 N 
ATOM     21  CZ  ARG d   1     -38.910  18.417  -5.751  0.00  0.00     0.665 C 
ATOM     22  NH1 ARG d   1     -38.484  17.741  -4.682  0.00  0.00    -0.235 N 
ATOM     23  NH2 ARG d   1     -38.593  19.697  -5.884  0.00  0.00    -0.235 N 
ATOM     24  H   ARG d   1     -38.725  16.756  -4.572  0.00  0.00     0.174 HD
ATOM     25  H   ARG d   1     -37.918  18.209  -3.975  0.00  0.00     0.174 HD
ATOM     26  H   ARG d   1     -38.916  20.220  -6.698  0.00  0.00     0.174 HD
ATOM     27  H   ARG d   1     -38.026  20.159  -5.173  0.00  0.00     0.174 HD
ATOM     28  H   ARG d   1     -39.944  18.397  -7.480  0.00  0.00     0.177 HD
ENDBRANCH  17  20
ENDBRANCH  14  17
ENDBRANCH  11  14
ENDBRANCH   5  11
ENDBRANCH   1   5
BRANCH   3  29
ATOM     29  CA  ASP d   1     -41.914  10.560  -8.771  0.00  0.00     0.098 C 
ATOM     30  H   ASP d   1     -41.400   9.744  -8.263  0.00  0.00     0.088 H 
BRANCH  29  31
ATOM     31  C   ASP d   1     -41.403  10.599 -10.217  0.00  0.00     0.241 C 
ATOM     32  O   ASP d   1     -41.627  11.573 -10.942  0.00  0.00    -0.271 OA
ATOM     33  N   ALA d   1     -40.723   9.524 -10.619  0.00  0.00    -0.345 N 
ATOM     34  H   ALA d   1     -40.593   8.756  -9.960  0.00  0.00     0.163 HD
BRANCH  33  35
ATOM     35  CA  ALA d   1     -40.156   9.396 -11.961  0.00  0.00     0.093 C 
ATOM     36  H   ALA d   1     -40.400  10.307 -12.507  0.00  0.00     0.089 H 
BRANCH  35  37
ATOM     37  C   ALA d   1     -40.771   8.229 -12.741  0.00  0.00     0.196 C 
ATOM     38  O   ALA d   1     -41.444   7.338 -12.157  0.00  0.00    -0.646 OA
ATOM     39  O   ALA d   1     -40.601   8.159 -13.988  0.00  0.00    -0.646 OA
ENDBRANCH  35  37
BRANCH  35  40
ATOM     40  CB  ALA d   1     -38.642   9.254 -11.884  0.00  0.00    -0.048 C 
ATOM     41  H   ALA d   1     -38.220  10.135 -11.401  0.00  0.00     0.030 H 
ATOM     42  H   ALA d   1     -38.391   8.366 -11.305  0.00  0.00     0.030 H 
ATOM     43  H   ALA d   1     -38.236   9.160 -12.891  0.00  0.00     0.030 H 
ENDBRANCH  35  40
ENDBRANCH  33  35
ENDBRANCH  29  31
BRANCH  29  44
ATOM     44  CB  ASP d   1     -43.422  10.279  -8.727  0.00  0.00     0.043 C 
ATOM     45  H   ASP d   1     -43.929  11.124  -9.192  0.00  0.00     0.052 H 
ATOM     46  H   ASP d   1     -43.701  10.133  -7.683  0.00  0.00     0.052 H 
BRANCH  44  47
ATOM     47  CG  ASP d   1     -43.822   9.017  -9.495  0.00  0.00     0.175 C 
ATOM     48  OD1 ASP d   1     -42.969   8.381 -10.150  0.00  0.00    -0.648 OA
ATOM     49  OD2 ASP d   1     -45.010   8.655  -9.449  0.00  0.00    -0.648 OA
ENDBRANCH  44  47
ENDBRANCH  29  44
ENDBRANCH   3  29
TORSDOF 13
