REMARK  7 active torsions:
REMARK  status: ('A' for Active; 'I' for Inactive)
REMARK    1  A    between atoms: C1_1  and  C2_2 
REMARK    2  A    between atoms: C15_12  and  C1_1 
REMARK    3  A    between atoms: C4_4  and  C9_9 
REMARK    4  A    between atoms: C7_7  and  N8_8 
REMARK       I    between atoms: N8_8  and  C28_18 
REMARK    5  A    between atoms: C28_18  and  C30_20 
REMARK    6  A    between atoms: C35_24  and  C37_26 
REMARK    7  A    between atoms: C37_26  and  C41_27 
ROOT
ATOM      1  N8  NJQ d   1       1.561 -33.909 -17.319  0.00  0.00    -0.321 N 
ATOM      2  C28 NJQ d   1       2.187 -34.815 -16.570  0.00  0.00     0.274 C 
ATOM      3  O29 NJQ d   1       3.139 -35.528 -16.895  0.00  0.00    -0.266 OA
ATOM      4  H6  NJQ d   1       0.886 -33.368 -16.816  0.00  0.00     0.169 HD
ENDROOT
BRANCH   2   5
ATOM      5  C30 NJQ d   1       1.624 -34.919 -15.195  0.00  0.00     0.125 A 
ATOM      6  C32 NJQ d   1       2.091 -35.914 -14.355  0.00  0.00    -0.050 A 
ATOM      7  C33 NJQ d   1       1.561 -35.984 -13.099  0.00  0.00    -0.079 A 
ATOM      8  H12 NJQ d   1       2.851 -36.614 -14.683  0.00  0.00     0.087 H 
ATOM      9  C34 NJQ d   1       0.566 -35.104 -12.698  0.00  0.00    -0.059 A 
ATOM     10  H13 NJQ d   1       1.922 -36.736 -12.407  0.00  0.00     0.083 H 
ATOM     11  C35 NJQ d   1       0.119 -34.133 -13.592  0.00  0.00     0.035 A 
ATOM     12  H14 NJQ d   1       0.142 -35.171 -11.703  0.00  0.00     0.086 H 
ATOM     13  N36 NJQ d   1       0.655 -34.076 -14.793  0.00  0.00    -0.248 NA
BRANCH  11  14
ATOM     14  C37 NJQ d   1      -0.999 -33.128 -13.238  0.00  0.00    -0.021 C 
ATOM     15  H15 NJQ d   1      -0.913 -32.293 -13.949  0.00  0.00     0.043 H 
ATOM     16  H16 NJQ d   1      -0.791 -32.766 -12.220  0.00  0.00     0.043 H 
BRANCH  14  17
ATOM     17  C41 NJQ d   1      -2.499 -33.588 -13.258  0.00  0.00    -0.049 C 
ATOM     18  C44 NJQ d   1      -2.787 -35.013 -13.791  0.00  0.00    -0.061 C 
ATOM     19  C57 NJQ d   1      -4.103 -35.150 -14.552  0.00  0.00    -0.065 C 
ATOM     20  H18 NJQ d   1      -2.812 -35.702 -12.934  0.00  0.00     0.033 H 
ATOM     21  H19 NJQ d   1      -1.968 -35.299 -14.467  0.00  0.00     0.033 H 
ATOM     22  C47 NJQ d   1      -5.237 -34.282 -13.953  0.00  0.00    -0.065 C 
ATOM     23  H26 NJQ d   1      -4.416 -36.204 -14.525  0.00  0.00     0.033 H 
ATOM     24  H27 NJQ d   1      -3.939 -34.843 -15.595  0.00  0.00     0.033 H 
ATOM     25  C48 NJQ d   1      -4.910 -32.785 -14.192  0.00  0.00    -0.065 C 
ATOM     26  H22 NJQ d   1      -6.190 -34.533 -14.441  0.00  0.00     0.033 H 
ATOM     27  H23 NJQ d   1      -5.316 -34.474 -12.873  0.00  0.00     0.033 H 
ATOM     28  C45 NJQ d   1      -3.445 -32.437 -13.779  0.00  0.00    -0.061 C 
ATOM     29  H24 NJQ d   1      -5.042 -32.558 -15.260  0.00  0.00     0.033 H 
ATOM     30  H25 NJQ d   1      -5.603 -32.170 -13.598  0.00  0.00     0.033 H 
ATOM     31  H20 NJQ d   1      -2.958 -31.995 -14.661  0.00  0.00     0.033 H 
ATOM     32  H21 NJQ d   1      -3.507 -31.684 -12.979  0.00  0.00     0.033 H 
ATOM     33  H17 NJQ d   1      -2.757 -33.674 -12.192  0.00  0.00     0.040 H 
ENDBRANCH  14  17
ENDBRANCH  11  14
ENDBRANCH   2   5
BRANCH   1  34
ATOM     34  C7  NJQ d   1       1.658 -33.580 -18.614  0.00  0.00     0.041 A 
ATOM     35  C2  NJQ d   1       1.392 -32.261 -19.035  0.00  0.00    -0.026 A 
ATOM     36  C3  NJQ d   1       1.398 -31.955 -20.386  0.00  0.00    -0.058 A 
ATOM     37  C4  NJQ d   1       1.636 -32.933 -21.330  0.00  0.00     0.041 A 
ATOM     38  H3  NJQ d   1       1.214 -30.936 -20.705  0.00  0.00     0.086 H 
ATOM     39  C5  NJQ d   1       1.867 -34.263 -20.934  0.00  0.00    -0.064 A 
ATOM     40  C6  NJQ d   1       1.872 -34.555 -19.573  0.00  0.00    -0.056 A 
ATOM     41  H4  NJQ d   1       2.037 -35.041 -21.670  0.00  0.00     0.085 H 
ATOM     42  H5  NJQ d   1       2.049 -35.576 -19.255  0.00  0.00     0.087 H 
BRANCH  35  43
ATOM     43  C1  NJQ d   1       1.162 -31.106 -18.070  0.00  0.00    -0.015 C 
ATOM     44  H1  NJQ d   1       1.421 -30.167 -18.581  0.00  0.00     0.047 H 
ATOM     45  H2  NJQ d   1       1.819 -31.243 -17.199  0.00  0.00     0.047 H 
BRANCH  43  46
ATOM     46  C15 NJQ d   1      -0.251 -31.011 -17.589  0.00  0.00    -0.054 A 
ATOM     47  C20 NJQ d   1      -1.277 -31.609 -18.278  0.00  0.00    -0.077 A 
ATOM     48  C19 NJQ d   1      -2.570 -31.465 -17.800  0.00  0.00    -0.082 A 
ATOM     49  H9  NJQ d   1      -1.080 -32.182 -19.177  0.00  0.00     0.084 H 
ATOM     50  C18 NJQ d   1      -2.842 -30.782 -16.641  0.00  0.00    -0.083 A 
ATOM     51  H8  NJQ d   1      -3.389 -31.904 -18.357  0.00  0.00     0.083 H 
ATOM     52  C22 NJQ d   1      -1.808 -30.197 -15.950  0.00  0.00    -0.082 A 
ATOM     53  H7  NJQ d   1      -3.860 -30.705 -16.275  0.00  0.00     0.083 H 
ATOM     54  C21 NJQ d   1      -0.511 -30.306 -16.426  0.00  0.00    -0.077 A 
ATOM     55  H11 NJQ d   1      -2.006 -29.651 -15.035  0.00  0.00     0.083 H 
ATOM     56  H10 NJQ d   1       0.303 -29.837 -15.886  0.00  0.00     0.084 H 
ENDBRANCH  43  46
ENDBRANCH  35  43
BRANCH  37  57
ATOM     57  C9  NJQ d   1       1.607 -32.587 -22.792  0.00  0.00     0.209 C 
ATOM     58  O10 NJQ d   1       1.718 -33.535 -23.584  0.00  0.00    -0.644 OA
ATOM     59  O11 NJQ d   1       1.426 -31.403 -23.132  0.00  0.00    -0.644 OA
ENDBRANCH  37  57
ENDBRANCH   1  34
TORSDOF 7
