REMARK  2 active torsions:
REMARK  status: ('A' for Active; 'I' for Inactive)
REMARK    1  A    between atoms: CAK_11  and  OAC_3 
REMARK    2  A    between atoms: CAL_12  and  CAJ_10 
ROOT
ATOM      1  CAD 8XQ d   1      24.851 -19.256  -7.263  0.00  0.00    -0.065 A 
ATOM      2  CAE 8XQ d   1      26.069 -19.198  -7.905  0.00  0.00     0.003 A 
ATOM      3  CAF 8XQ d   1      27.823 -22.733  -5.234  0.00  0.00    -0.048 A 
ATOM      4  CAG 8XQ d   1      26.604 -22.813  -4.557  0.00  0.00    -0.063 A 
ATOM      5  CAH 8XQ d   1      24.663 -20.180  -6.256  0.00  0.00    -0.068 A 
ATOM      6  NAI 8XQ d   1      27.046 -20.015  -7.569  0.00  0.00    -0.257 NA
ATOM      7  CAK 8XQ d   1      27.975 -21.794  -6.246  0.00  0.00     0.095 A 
ATOM      8  CAL 8XQ d   1      25.550 -21.963  -4.887  0.00  0.00     0.053 A 
ATOM      9  CAM 8XQ d   1      25.709 -21.028  -5.904  0.00  0.00     0.012 A 
ATOM     10  CAN 8XQ d   1      26.921 -20.933  -6.588  0.00  0.00     0.100 A 
ATOM     11  H   8XQ d   1      24.045 -18.579  -7.548  0.00  0.00     0.085 H 
ATOM     12  H   8XQ d   1      26.226 -18.468  -8.699  0.00  0.00     0.114 H 
ATOM     13  H   8XQ d   1      28.645 -23.399  -4.971  0.00  0.00     0.087 H 
ATOM     14  H   8XQ d   1      26.476 -23.548  -3.762  0.00  0.00     0.085 H 
ATOM     15  H   8XQ d   1      23.705 -20.245  -5.741  0.00  0.00     0.085 H 
ENDROOT
BRANCH   8  16
ATOM     16  CAJ 8XQ d   1      24.231 -22.083  -4.137  0.00  0.00     0.210 C 
ATOM     17  OAA 8XQ d   1      24.125 -22.942  -3.233  0.00  0.00    -0.644 OA
ATOM     18  OAB 8XQ d   1      23.304 -21.321  -4.466  0.00  0.00    -0.644 OA
ENDBRANCH   8  16
BRANCH   7  19
ATOM     19  OAC 8XQ d   1      29.162 -21.744  -6.871  0.00  0.00    -0.358 OA
ATOM     20  H   8XQ d   1      29.140 -21.060  -7.544  0.00  0.00     0.217 HD
ENDBRANCH   7  19
TORSDOF 2
