REMARK  1 active torsions:
REMARK  status: ('A' for Active; 'I' for Inactive)
REMARK    1  A    between atoms: C2_2  and  C5_5 
ROOT
ATOM      1  C5  JKZ d   1      28.859  13.446  18.280  0.00  0.00     0.060 A 
ATOM      2  C6  JKZ d   1      29.095  14.327  17.214  0.00  0.00    -0.020 A 
ATOM      3  C7  JKZ d   1      29.790  13.870  16.104  0.00  0.00     0.018 A 
ATOM      4  N8  JKZ d   1      30.246  12.608  16.019  0.00  0.00    -0.338 N 
ATOM      5  C9  JKZ d   1      30.039  11.738  17.038  0.00  0.00     0.179 A 
ATOM      6  C10 JKZ d   1      29.346  12.136  18.184  0.00  0.00    -0.016 A 
ATOM      7  O12 JKZ d   1      30.522  10.440  16.956  0.00  0.00    -0.172 OA
ATOM      8  C14 JKZ d   1      29.967  14.950  15.051  0.00  0.00    -0.026 C 
ATOM      9  C17 JKZ d   1      28.905  15.981  15.477  0.00  0.00    -0.056 C 
ATOM     10  C20 JKZ d   1      28.709  15.790  17.009  0.00  0.00    -0.038 C 
ATOM     11  H1  JKZ d   1      30.739  12.310  15.202  0.00  0.00     0.168 HD
ATOM     12  H2  JKZ d   1      29.185  11.431  18.999  0.00  0.00     0.091 H 
ATOM     13  H3  JKZ d   1      29.766  14.562  14.041  0.00  0.00     0.042 H 
ATOM     14  H4  JKZ d   1      30.979  15.380  15.084  0.00  0.00     0.042 H 
ATOM     15  H5  JKZ d   1      27.960  15.797  14.945  0.00  0.00     0.034 H 
ATOM     16  H6  JKZ d   1      29.255  17.001  15.261  0.00  0.00     0.034 H 
ATOM     17  H7  JKZ d   1      29.369  16.459  17.580  0.00  0.00     0.040 H 
ATOM     18  H8  JKZ d   1      27.664  15.970  17.301  0.00  0.00     0.040 H 
ENDROOT
BRANCH   1  19
ATOM     19  C2  JKZ d   1      28.109  13.857  19.539  0.00  0.00     0.418 C 
ATOM     20  F1  JKZ d   1      26.865  14.278  19.264  0.00  0.00    -0.166 F 
ATOM     21  F3  JKZ d   1      28.688  14.930  20.084  0.00  0.00    -0.166 F 
ATOM     22  F4  JKZ d   1      28.073  12.857  20.457  0.00  0.00    -0.166 F 
ENDBRANCH   1  19
TORSDOF 1
