REMARK WARNING: 32 MAX_TORS EXCEEDED!!!
REMARK  39 active torsions:
REMARK  status: ('A' for Active; 'I' for Inactive)
REMARK    1  A    between atoms: N_1  and  CA_2 
REMARK    2  A    between atoms: CA_2  and  C_3 
REMARK    3  A    between atoms: CA_2  and  CB_5 
REMARK       I    between atoms: C_3  and  N_12 
REMARK    4  A    between atoms: CB_5  and  CG_6 
REMARK    5  A    between atoms: CG_6  and  CD_7 
REMARK    6  A    between atoms: CD_7  and  NE_8 
REMARK       I    between atoms: NE_8  and  CZ_9 
REMARK       I    between atoms: CZ_9  and  NH1_10 
REMARK    7  A    between atoms: N_12  and  CA_13 
REMARK    8  A    between atoms: CA_13  and  C_14 
REMARK    9  A    between atoms: CA_13  and  CB_16 
REMARK       I    between atoms: C_14  and  N_18 
REMARK   10  A    between atoms: CB_16  and  OG_17 
REMARK   11  A    between atoms: N_18  and  CA_19 
REMARK   12  A    between atoms: CA_19  and  C_20 
REMARK   13  A    between atoms: CA_19  and  CB_22 
REMARK       I    between atoms: C_20  and  N_25 
REMARK   14  A    between atoms: CB_22  and  OG1_23 
REMARK   15  A    between atoms: CB_22  and  CG2_24 
REMARK   16  A    between atoms: N_25  and  CA_26 
REMARK   17  A    between atoms: CA_26  and  CB_27 
REMARK   18  A    between atoms: CA_26  and  C_29 
REMARK   19  A    between atoms: CB_27  and  OG_28 
REMARK   20  A    between atoms: OG_28  and  P_31 
REMARK       I    between atoms: C_29  and  N_35 
REMARK   21  A    between atoms: N_35  and  CA_36 
REMARK   22  A    between atoms: CA_36  and  C_37 
REMARK   23  A    between atoms: CA_36  and  CB_39 
REMARK       I    between atoms: C_37  and  N_42 
REMARK   24  A    between atoms: CB_39  and  OG1_40 
REMARK   25  A    between atoms: CB_39  and  CG2_41 
REMARK   26  A    between atoms: CA_43  and  C_44 
REMARK       I    between atoms: C_44  and  N_49 
REMARK   27  A    between atoms: N_49  and  CA_50 
REMARK   28  A    between atoms: CA_50  and  C_51 
REMARK   29  A    between atoms: CA_50  and  CB_53 
REMARK       I    between atoms: C_51  and  N_57 
REMARK   30  A    between atoms: CB_53  and  CG_54 
REMARK       I    between atoms: CG_54  and  ND2_56 
REMARK   31  A    between atoms: N_57  and  CA_58 
REMARK   32  A    between atoms: CA_58  and  C_59 
REMARK   33  A    between atoms: CA_58  and  CB_61 
REMARK       I    between atoms: C_59  and  N_64 
REMARK   34  A    between atoms: CB_61  and  CG1_62 
REMARK   35  A    between atoms: CB_61  and  CG2_63 
REMARK   36  A    between atoms: N_64  and  CA_65 
REMARK   37  A    between atoms: CA_65  and  C_66 
REMARK   38  A    between atoms: CA_65  and  CB_68 
REMARK   39  A    between atoms: CB_68  and  CG_69 
ROOT
ATOM      1  CA  THR d   1      51.132  -5.904   8.387  0.00  0.00     0.114 C 
ATOM      2  H33 THR d   1      51.057  -6.938   8.755  0.00  0.00     0.091 H 
ENDROOT
BRANCH   1   3
ATOM      3  N   THR d   1      51.921  -5.887   7.165  0.00  0.00    -0.344 N 
ATOM      4  C   SEP d   1      51.622  -6.604   6.105  0.00  0.00     0.243 C 
ATOM      5  O   SEP d   1      50.620  -7.302   6.053  0.00  0.00    -0.271 OA
ATOM      6  H32 THR d   1      52.731  -5.301   7.130  0.00  0.00     0.163 HD
BRANCH   4   7
ATOM      7  CA  SEP d   1      52.629  -6.546   4.953  0.00  0.00     0.110 C 
ATOM      8  H29 SEP d   1      53.584  -6.959   5.311  0.00  0.00     0.090 H 
BRANCH   7   9
ATOM      9  N   SEP d   1      52.189  -7.329   3.811  0.00  0.00    -0.344 N 
ATOM     10  C   THR d   1      52.708  -8.533   3.599  0.00  0.00     0.243 C 
ATOM     11  O   THR d   1      53.640  -8.996   4.277  0.00  0.00    -0.271 OA
ATOM     12  H28 SEP d   1      51.498  -6.963   3.187  0.00  0.00     0.163 HD
BRANCH  10  13
ATOM     13  CA  THR d   1      52.058  -9.357   2.505  0.00  0.00     0.113 C 
ATOM     14  H22 THR d   1      51.366  -8.713   1.943  0.00  0.00     0.091 H 
BRANCH  13  15
ATOM     15  N   THR d   1      53.060  -9.848   1.613  0.00  0.00    -0.344 N 
ATOM     16  C   SER d   1      53.290  -9.237   0.463  0.00  0.00     0.243 C 
ATOM     17  O   SER d   1      52.728  -8.195   0.112  0.00  0.00    -0.271 OA
ATOM     18  H21 THR d   1      53.591 -10.659   1.860  0.00  0.00     0.163 HD
BRANCH  16  19
ATOM     19  CA  SER d   1      54.329  -9.876  -0.409  0.00  0.00     0.109 C 
ATOM     20  H17 SER d   1      54.277 -10.972  -0.336  0.00  0.00     0.090 H 
BRANCH  19  21
ATOM     21  N   SER d   1      54.069  -9.444  -1.769  0.00  0.00    -0.344 N 
ATOM     22  C   ARG d   1      53.109  -9.989  -2.527  0.00  0.00     0.249 C 
ATOM     23  O   ARG d   1      52.346 -10.896  -2.132  0.00  0.00    -0.271 OA
ATOM     24  H16 SER d   1      54.628  -8.711  -2.156  0.00  0.00     0.163 HD
BRANCH  22  25
ATOM     25  CA  ARG d   1      53.040  -9.421  -3.972  0.00  0.00     0.176 C 
ATOM     26  H4  ARG d   1      53.884  -8.721  -4.062  0.00  0.00     0.099 H 
BRANCH  25  27
ATOM     27  N   ARG d   1      53.233 -10.448  -5.050  0.00  0.00    -0.067 N 
ATOM     28  H1  ARG d   1      53.175 -10.003  -5.952  0.00  0.00     0.275 HD
ATOM     29  H2  ARG d   1      52.516 -11.152  -4.976  0.00  0.00     0.275 HD
ATOM     30  H3  ARG d   1      54.138 -10.879  -4.946  0.00  0.00     0.275 HD
ENDBRANCH  25  27
BRANCH  25  31
ATOM     31  CB  ARG d   1      51.766  -8.602  -4.207  0.00  0.00    -0.029 C 
ATOM     32  H5  ARG d   1      51.273  -8.438  -3.237  0.00  0.00     0.036 H 
ATOM     33  H6  ARG d   1      51.098  -9.177  -4.866  0.00  0.00     0.036 H 
BRANCH  31  34
ATOM     34  CG  ARG d   1      52.036  -7.210  -4.867  0.00  0.00    -0.047 C 
ATOM     35  H7  ARG d   1      51.287  -7.040  -5.654  0.00  0.00     0.035 H 
ATOM     36  H8  ARG d   1      53.041  -7.218  -5.313  0.00  0.00     0.035 H 
BRANCH  34  37
ATOM     37  CD  ARG d   1      51.954  -6.043  -3.834  0.00  0.00     0.009 C 
ATOM     38  H9  ARG d   1      52.312  -5.121  -4.316  0.00  0.00     0.064 H 
ATOM     39  H10 ARG d   1      52.602  -6.285  -2.979  0.00  0.00     0.064 H 
BRANCH  37  40
ATOM     40  NE  ARG d   1      50.584  -5.813  -3.337  0.00  0.00    -0.227 N 
ATOM     41  CZ  ARG d   1      50.264  -5.495  -2.071  0.00  0.00     0.665 C 
ATOM     42  NH1 ARG d   1      51.206  -5.355  -1.136  0.00  0.00    -0.235 N 
ATOM     43  NH2 ARG d   1      48.994  -5.323  -1.724  0.00  0.00    -0.235 N 
ATOM     44  H12 ARG d   1      50.941  -5.111  -0.171  0.00  0.00     0.174 HD
ATOM     45  H13 ARG d   1      52.197  -5.491  -1.379  0.00  0.00     0.174 HD
ATOM     46  H14 ARG d   1      48.249  -5.426  -2.428  0.00  0.00     0.174 HD
ATOM     47  H15 ARG d   1      48.754  -5.087  -0.751  0.00  0.00     0.174 HD
ATOM     48  H11 ARG d   1      49.812  -5.903  -4.013  0.00  0.00     0.177 HD
ENDBRANCH  37  40
ENDBRANCH  34  37
ENDBRANCH  31  34
ENDBRANCH  25  31
ENDBRANCH  22  25
ENDBRANCH  19  21
BRANCH  19  49
ATOM     49  CB  SER d   1      55.698  -9.385   0.030  0.00  0.00     0.044 C 
ATOM     50  H18 SER d   1      56.018  -9.939   0.925  0.00  0.00     0.077 H 
ATOM     51  H19 SER d   1      55.646  -8.311   0.262  0.00  0.00     0.077 H 
BRANCH  49  52
ATOM     52  OG  SER d   1      56.626  -9.598  -1.013  0.00  0.00    -0.398 OA
ATOM     53  H20 SER d   1      56.348  -9.119  -1.785  0.00  0.00     0.209 HD
ENDBRANCH  49  52
ENDBRANCH  19  49
ENDBRANCH  16  19
ENDBRANCH  13  15
BRANCH  13  54
ATOM     54  CB  THR d   1      51.271 -10.520   3.092  0.00  0.00     0.060 C 
ATOM     55  H23 THR d   1      51.925 -11.106   3.754  0.00  0.00     0.086 H 
BRANCH  54  56
ATOM     56  OG1 THR d   1      50.808 -11.331   2.013  0.00  0.00    -0.393 OA
ATOM     57  H24 THR d   1      51.552 -11.655   1.520  0.00  0.00     0.210 HD
ENDBRANCH  54  56
BRANCH  54  58
ATOM     58  CG2 THR d   1      50.042 -10.038   3.882  0.00  0.00    -0.050 C 
ATOM     59  H25 THR d   1      49.503 -10.907   4.288  0.00  0.00     0.031 H 
ATOM     60  H26 THR d   1      49.376  -9.473   3.214  0.00  0.00     0.031 H 
ATOM     61  H27 THR d   1      50.368  -9.390   4.709  0.00  0.00     0.031 H 
ENDBRANCH  54  58
ENDBRANCH  13  54
ENDBRANCH  10  13
ENDBRANCH   7   9
BRANCH   7  62
ATOM     62  CB  SEP d   1      52.853  -5.108   4.514  0.00  0.00     0.059 C 
ATOM     63  H30 SEP d   1      53.654  -5.077   3.760  0.00  0.00     0.079 H 
ATOM     64  H31 SEP d   1      53.145  -4.502   5.384  0.00  0.00     0.079 H 
BRANCH  62  65
ATOM     65  OG  SEP d   1      51.666  -4.588   3.958  0.00  0.00    -0.280 OA
BRANCH  65  66
ATOM     66  P   SEP d   1      51.777  -3.149   3.356  0.00  0.00     0.422 P 
ATOM     67  O1P SEP d   1      52.605  -3.072   2.001  0.00  0.00    -0.617 OA
ATOM     68  O2P SEP d   1      52.354  -2.034   4.308  0.00  0.00    -0.617 OA
ATOM     69  O3P SEP d   1      50.276  -2.757   2.989  0.00  0.00    -0.617 OA
ENDBRANCH  65  66
ENDBRANCH  62  65
ENDBRANCH   7  62
ENDBRANCH   4   7
ENDBRANCH   1   3
BRANCH   1  70
ATOM     70  C   THR d   1      49.751  -5.371   8.138  0.00  0.00     0.245 C 
ATOM     71  O   THR d   1      49.630  -4.163   7.800  0.00  0.00    -0.271 OA
ATOM     72  N   PRO d   1      48.705  -6.214   8.361  0.00  0.00    -0.337 N 
ATOM     73  CA  PRO d   1      47.306  -5.759   8.200  0.00  0.00     0.091 C 
ATOM     74  CD  PRO d   1      48.793  -7.566   8.951  0.00  0.00    -0.001 C 
ATOM     75  CB  PRO d   1      46.494  -7.052   8.249  0.00  0.00    -0.036 C 
ATOM     76  H39 PRO d   1      47.170  -5.215   7.254  0.00  0.00     0.087 H 
ATOM     77  CG  PRO d   1      47.342  -7.984   9.168  0.00  0.00    -0.048 C 
ATOM     78  H40 PRO d   1      46.385  -7.485   7.244  0.00  0.00     0.036 H 
ATOM     79  H41 PRO d   1      45.498  -6.874   8.682  0.00  0.00     0.036 H 
ATOM     80  H42 PRO d   1      47.199  -9.037   8.883  0.00  0.00     0.035 H 
ATOM     81  H43 PRO d   1      47.057  -7.847  10.222  0.00  0.00     0.035 H 
ATOM     82  H44 PRO d   1      49.337  -7.538   9.907  0.00  0.00     0.064 H 
ATOM     83  H45 PRO d   1      49.298  -8.259   8.262  0.00  0.00     0.064 H 
BRANCH  73  84
ATOM     84  C   PRO d   1      46.846  -4.918   9.372  0.00  0.00     0.241 C 
ATOM     85  O   PRO d   1      47.474  -4.937  10.411  0.00  0.00    -0.271 OA
ATOM     86  N   ASN d   1      45.739  -4.210   9.224  0.00  0.00    -0.346 N 
ATOM     87  H46 ASN d   1      45.371  -4.048   8.309  0.00  0.00     0.163 HD
BRANCH  86  88
ATOM     88  CA  ASN d   1      45.049  -3.662  10.396  0.00  0.00     0.097 C 
ATOM     89  H47 ASN d   1      45.703  -2.909  10.861  0.00  0.00     0.088 H 
BRANCH  88  90
ATOM     90  C   ASN d   1      44.704  -4.721  11.450  0.00  0.00     0.241 C 
ATOM     91  O   ASN d   1      44.347  -5.842  11.094  0.00  0.00    -0.271 OA
ATOM     92  N   VAL d   1      44.776  -4.358  12.737  0.00  0.00    -0.346 N 
ATOM     93  H52 VAL d   1      45.130  -3.452  12.970  0.00  0.00     0.163 HD
BRANCH  92  94
ATOM     94  CA  VAL d   1      44.337  -5.281  13.838  0.00  0.00     0.092 C 
ATOM     95  H53 VAL d   1      44.916  -6.198  13.652  0.00  0.00     0.088 H 
BRANCH  94  96
ATOM     96  C   VAL d   1      42.830  -5.781  13.753  0.00  0.00     0.241 C 
ATOM     97  O   VAL d   1      42.591  -7.006  13.943  0.00  0.00    -0.271 OA
ATOM     98  N   HIS d   1      41.795  -4.937  13.511  0.00  0.00    -0.344 N 
ATOM     99  H61 HIS d   1      40.972  -5.387  13.164  0.00  0.00     0.163 HD
BRANCH  98 100
ATOM    100  CA  HIS d   1      41.660  -3.438  13.671  0.00  0.00     0.101 C 
ATOM    101  H62 HIS d   1      40.806  -3.284  14.347  0.00  0.00     0.090 H 
BRANCH 100 102
ATOM    102  C   HIS d   1      41.294  -2.715  12.342  0.00  0.00     0.197 C 
ATOM    103  O   HIS d   1      40.128  -2.710  11.864  0.00  0.00    -0.646 OA
ATOM    104  O   HIS d   1      42.204  -2.108  11.717  0.00  0.00    -0.646 OA
ENDBRANCH 100 102
BRANCH 100 105
ATOM    105  CB  HIS d   1      42.877  -2.792  14.368  0.00  0.00     0.005 C 
ATOM    106  H63 HIS d   1      43.707  -2.760  13.647  0.00  0.00     0.046 H 
ATOM    107  H64 HIS d   1      43.158  -3.425  15.223  0.00  0.00     0.046 H 
BRANCH 105 108
ATOM    108  CG  HIS d   1      42.644  -1.396  14.876  0.00  0.00     0.053 A 
ATOM    109  ND1 HIS d   1      41.380  -0.868  15.094  0.00  0.00    -0.247 NA
ATOM    110  CE1 HIS d   1      41.487   0.380  15.534  0.00  0.00     0.064 A 
ATOM    111  NE2 HIS d   1      42.774   0.672  15.629  0.00  0.00    -0.359 N 
ATOM    112  H66 HIS d   1      40.660   1.047  15.775  0.00  0.00     0.143 H 
ATOM    113  CD2 HIS d   1      43.518  -0.424  15.235  0.00  0.00     0.002 A 
ATOM    114  H67 HIS d   1      43.160   1.573  15.946  0.00  0.00     0.166 HD
ATOM    115  H65 HIS d   1      44.605  -0.494  15.216  0.00  0.00     0.114 H 
ENDBRANCH 105 108
ENDBRANCH 100 105
ENDBRANCH  98 100
ENDBRANCH  94  96
BRANCH  94 116
ATOM    116  CB  VAL d   1      44.829  -4.813  15.289  0.00  0.00    -0.033 C 
ATOM    117  H54 VAL d   1      44.265  -3.909  15.560  0.00  0.00     0.042 H 
BRANCH 116 118
ATOM    118  CG1 VAL d   1      44.575  -5.876  16.358  0.00  0.00    -0.071 C 
ATOM    119  H55 VAL d   1      44.929  -5.508  17.332  0.00  0.00     0.028 H 
ATOM    120  H56 VAL d   1      45.116  -6.797  16.095  0.00  0.00     0.028 H 
ATOM    121  H57 VAL d   1      43.497  -6.088  16.416  0.00  0.00     0.028 H 
ENDBRANCH 116 118
BRANCH 116 122
ATOM    122  CG2 VAL d   1      46.326  -4.470  15.282  0.00  0.00    -0.071 C 
ATOM    123  H58 VAL d   1      46.523  -3.705  14.516  0.00  0.00     0.028 H 
ATOM    124  H59 VAL d   1      46.908  -5.375  15.055  0.00  0.00     0.028 H 
ATOM    125  H60 VAL d   1      46.618  -4.084  16.270  0.00  0.00     0.028 H 
ENDBRANCH 116 122
ENDBRANCH  94 116
ENDBRANCH  92  94
ENDBRANCH  88  90
BRANCH  88 126
ATOM    126  CB  ASN d   1      43.768  -3.001   9.947  0.00  0.00     0.036 C 
ATOM    127  H48 ASN d   1      43.142  -2.804  10.830  0.00  0.00     0.051 H 
ATOM    128  H49 ASN d   1      43.237  -3.682   9.266  0.00  0.00     0.051 H 
BRANCH 126 129
ATOM    129  CG  ASN d   1      44.025  -1.687   9.225  0.00  0.00     0.217 C 
ATOM    130  OD1 ASN d   1      44.892  -0.923   9.617  0.00  0.00    -0.274 OA
ATOM    131  ND2 ASN d   1      43.318  -1.450   8.156  0.00  0.00    -0.370 N 
ATOM    132  H50 ASN d   1      43.451  -0.600   7.647  0.00  0.00     0.159 HD
ATOM    133  H51 ASN d   1      42.643  -2.119   7.845  0.00  0.00     0.159 HD
ENDBRANCH 126 129
ENDBRANCH  88 126
ENDBRANCH  86  88
ENDBRANCH  73  84
ENDBRANCH   1  70
BRANCH   1 134
ATOM    134  CB  THR d   1      51.836  -5.031   9.447  0.00  0.00     0.060 C 
ATOM    135  H34 THR d   1      51.998  -4.011   9.069  0.00  0.00     0.086 H 
BRANCH 134 136
ATOM    136  OG1 THR d   1      53.053  -5.690   9.790  0.00  0.00    -0.393 OA
ATOM    137  H35 THR d   1      53.594  -5.778   9.014  0.00  0.00     0.210 HD
ENDBRANCH 134 136
BRANCH 134 138
ATOM    138  CG2 THR d   1      51.135  -5.028  10.666  0.00  0.00    -0.050 C 
ATOM    139  H36 THR d   1      51.667  -4.397  11.393  0.00  0.00     0.031 H 
ATOM    140  H37 THR d   1      51.068  -6.056  11.053  0.00  0.00     0.031 H 
ATOM    141  H38 THR d   1      50.122  -4.629  10.506  0.00  0.00     0.031 H 
ENDBRANCH 134 138
ENDBRANCH   1 134
TORSDOF 39
