REMARK  8 active torsions:
REMARK  status: ('A' for Active; 'I' for Inactive)
REMARK    1  A    between atoms: C3_3  and  C2_2 
REMARK    2  A    between atoms: C9_9  and  C4_4 
REMARK    3  A    between atoms: C5_5  and  C8_8 
REMARK       I    between atoms: N11_11  and  C9_9 
REMARK    4  A    between atoms: C12_12  and  N11_11 
REMARK    5  A    between atoms: N14_14  and  C28_28 
REMARK    6  A    between atoms: C22_22  and  C25_25 
REMARK    7  A    between atoms: C25_25  and  C26_26 
REMARK    8  A    between atoms: C25_25  and  C27_27 
ROOT
ATOM      1  C3  5BE d   1       3.670  -2.662  19.327  0.00  0.00     0.140 A 
ATOM      2  C4  5BE d   1       4.707  -3.297  18.692  0.00  0.00     0.089 A 
ATOM      3  C5  5BE d   1       5.778  -2.430  18.888  0.00  0.00     0.042 A 
ATOM      4  N6  5BE d   1       5.383  -1.394  19.631  0.00  0.00    -0.281 N 
ATOM      5  N7  5BE d   1       4.169  -1.534  19.911  0.00  0.00    -0.170 NA
ATOM      6  H   5BE d   1       5.973  -0.615  19.924  0.00  0.00     0.189 HD
ENDROOT
BRANCH   1   7
ATOM      7  C2  5BE d   1       2.351  -3.124  19.451  0.00  0.00     0.160 A 
ATOM      8  N17 5BE d   1       1.480  -2.460  20.203  0.00  0.00    -0.227 NA
ATOM      9  C20 5BE d   1       0.352  -3.137  20.190  0.00  0.00     0.086 A 
ATOM     10  C19 5BE d   1       0.523  -4.250  19.380  0.00  0.00     0.062 A 
ATOM     11  C21 5BE d   1      -0.852  -2.920  20.866  0.00  0.00    -0.046 A 
ATOM     12  N18 5BE d   1       1.774  -4.217  18.923  0.00  0.00    -0.337 N 
ATOM     13  C24 5BE d   1      -0.551  -5.138  19.191  0.00  0.00    -0.054 A 
ATOM     14  H   5BE d   1       2.210  -4.891  18.294  0.00  0.00     0.167 HD
ATOM     15  C23 5BE d   1      -1.765  -4.899  19.861  0.00  0.00    -0.074 A 
ATOM     16  H   5BE d   1      -0.444  -6.001  18.534  0.00  0.00     0.087 H 
ATOM     17  C22 5BE d   1      -1.912  -3.791  20.703  0.00  0.00    -0.052 A 
ATOM     18  H   5BE d   1      -2.601  -5.585  19.723  0.00  0.00     0.084 H 
ATOM     19  H   5BE d   1      -0.955  -2.058  21.526  0.00  0.00     0.088 H 
BRANCH  17  20
ATOM     20  C25 5BE d   1      -3.220  -3.441  21.463  0.00  0.00    -0.035 C 
ATOM     21  H   5BE d   1      -3.154  -2.400  21.779  0.00  0.00     0.046 H 
BRANCH  20  22
ATOM     22  C26 5BE d   1      -3.326  -4.364  22.709  0.00  0.00    -0.069 C 
ATOM     23  H   5BE d   1      -3.348  -5.405  22.387  0.00  0.00     0.028 H 
ATOM     24  H   5BE d   1      -2.464  -4.200  23.355  0.00  0.00     0.028 H 
ATOM     25  H   5BE d   1      -4.240  -4.131  23.255  0.00  0.00     0.028 H 
ENDBRANCH  20  22
BRANCH  20  26
ATOM     26  C27 5BE d   1      -4.491  -3.454  20.597  0.00  0.00    -0.069 C 
ATOM     27  H   5BE d   1      -4.389  -2.725  19.793  0.00  0.00     0.028 H 
ATOM     28  H   5BE d   1      -4.630  -4.448  20.172  0.00  0.00     0.028 H 
ATOM     29  H   5BE d   1      -5.352  -3.198  21.214  0.00  0.00     0.028 H 
ENDBRANCH  20  26
ENDBRANCH  17  20
ENDBRANCH   1   7
BRANCH   2  30
ATOM     30  C9  5BE d   1       4.807  -4.565  17.818  0.00  0.00     0.256 C 
ATOM     31  O10 5BE d   1       5.905  -4.848  17.321  0.00  0.00    -0.267 OA
ATOM     32  N11 5BE d   1       3.712  -5.226  17.500  0.00  0.00    -0.352 N 
ATOM     33  H   5BE d   1       2.821  -4.943  17.909  0.00  0.00     0.163 HD
BRANCH  32  34
ATOM     34  C12 5BE d   1       3.748  -6.378  16.556  0.00  0.00     0.015 C 
ATOM     35  C13 5BE d   1       3.726  -5.837  15.100  0.00  0.00    -0.021 C 
ATOM     36  C1  5BE d   1       3.730  -6.951  14.055  0.00  0.00     0.115 C 
ATOM     37  H   5BE d   1       2.809  -5.262  14.971  0.00  0.00     0.038 H 
ATOM     38  H   5BE d   1       4.625  -5.238  14.953  0.00  0.00     0.038 H 
ATOM     39  N14 5BE d   1       2.536  -7.815  14.290  0.00  0.00     0.084 N 
ATOM     40  H   5BE d   1       4.642  -7.541  14.140  0.00  0.00     0.080 H 
ATOM     41  H   5BE d   1       3.693  -6.525  13.053  0.00  0.00     0.080 H 
ATOM     42  C15 5BE d   1       2.576  -8.438  15.631  0.00  0.00     0.115 C 
ATOM     43  C16 5BE d   1       2.549  -7.331  16.755  0.00  0.00    -0.021 C 
ATOM     44  H   5BE d   1       3.495  -9.017  15.726  0.00  0.00     0.080 H 
ATOM     45  H   5BE d   1       1.705  -9.083  15.748  0.00  0.00     0.080 H 
ATOM     46  H   5BE d   1       1.618  -6.767  16.692  0.00  0.00     0.038 H 
ATOM     47  H   5BE d   1       2.615  -7.803  17.735  0.00  0.00     0.038 H 
ATOM     48  H   5BE d   1       4.660  -6.943  16.752  0.00  0.00     0.072 H 
BRANCH  39  49
ATOM     49  C28 5BE d   1       2.423  -8.908  13.261  0.00  0.00     0.095 C 
ATOM     50  H   5BE d   1       3.285  -9.570  13.340  0.00  0.00     0.071 H 
ATOM     51  H   5BE d   1       1.510  -9.477  13.436  0.00  0.00     0.071 H 
ATOM     52  H   5BE d   1       2.392  -8.466  12.265  0.00  0.00     0.071 H 
ENDBRANCH  39  49
ENDBRANCH  32  34
ENDBRANCH   2  30
BRANCH   3  53
ATOM     53  C8  5BE d   1       7.213  -2.606  18.378  0.00  0.00    -0.035 C 
ATOM     54  H   5BE d   1       7.632  -3.525  18.787  0.00  0.00     0.035 H 
ATOM     55  H   5BE d   1       7.206  -2.661  17.289  0.00  0.00     0.035 H 
ATOM     56  H   5BE d   1       7.817  -1.757  18.697  0.00  0.00     0.035 H 
ENDBRANCH   3  53
TORSDOF 8
