REMARK  7 active torsions:
REMARK  status: ('A' for Active; 'I' for Inactive)
REMARK    1  A    between atoms: C_1  and  C1_2 
REMARK    2  A    between atoms: C_1  and  C2_3 
REMARK    3  A    between atoms: C_1  and  C3_4 
REMARK    4  A    between atoms: C_1  and  N_5 
REMARK    5  A    between atoms: C1_2  and  O1_6 
REMARK    6  A    between atoms: C2_3  and  O2_7 
REMARK    7  A    between atoms: C3_4  and  O3_8 
ROOT
ATOM      1  C   NON d   1      38.588  -4.733  65.956  0.00  0.00     0.186 C 
ENDROOT
BRANCH   1   2
ATOM      2  C1  NON d   1      40.103  -5.057  65.899  0.00  0.00     0.052 C 
ATOM      3  H1  NON d   1      40.261  -6.025  65.400  0.00  0.00     0.078 H 
ATOM      4  H2  NON d   1      40.516  -5.098  66.918  0.00  0.00     0.078 H 
BRANCH   2   5
ATOM      5  O1  NON d   1      40.741  -4.020  65.158  0.00  0.00    -0.398 OA
ATOM      6  H10 NON d   1      40.597  -3.187  65.592  0.00  0.00     0.209 HD
ENDBRANCH   2   5
ENDBRANCH   1   2
BRANCH   1   7
ATOM      7  C2  NON d   1      37.795  -5.994  66.343  0.00  0.00     0.052 C 
ATOM      8  H3  NON d   1      36.749  -5.742  66.574  0.00  0.00     0.078 H 
ATOM      9  H4  NON d   1      38.252  -6.492  67.210  0.00  0.00     0.078 H 
BRANCH   7  10
ATOM     10  O2  NON d   1      37.871  -6.803  65.211  0.00  0.00    -0.398 OA
ATOM     11  H11 NON d   1      38.782  -6.997  65.022  0.00  0.00     0.209 HD
ENDBRANCH   7  10
ENDBRANCH   1   7
BRANCH   1  12
ATOM     12  C3  NON d   1      38.160  -3.717  67.031  0.00  0.00     0.052 C 
ATOM     13  H5  NON d   1      38.363  -4.134  68.028  0.00  0.00     0.078 H 
ATOM     14  H6  NON d   1      37.084  -3.513  66.931  0.00  0.00     0.078 H 
BRANCH  12  15
ATOM     15  O3  NON d   1      38.871  -2.531  66.874  0.00  0.00    -0.398 OA
ATOM     16  H12 NON d   1      39.801  -2.707  66.961  0.00  0.00     0.209 HD
ENDBRANCH  12  15
ENDBRANCH   1  12
BRANCH   1  17
ATOM     17  N   NON d   1      38.227  -4.154  64.652  0.00  0.00    -0.064 N 
ATOM     18  H7  NON d   1      38.492  -4.791  63.917  0.00  0.00     0.275 HD
ATOM     19  H8  NON d   1      38.710  -3.278  64.528  0.00  0.00     0.275 HD
ATOM     20  H9  NON d   1      37.232  -3.997  64.618  0.00  0.00     0.275 HD
ENDBRANCH   1  17
TORSDOF 7
