REMARK  13 active torsions:
REMARK  status: ('A' for Active; 'I' for Inactive)
REMARK    1  A    between atoms: C21_4  and  N4_5 
REMARK    2  A    between atoms: N1_9  and  C11_10 
REMARK    3  A    between atoms: C11_10  and  C12_11 
REMARK    4  A    between atoms: C18_12  and  C19_13 
REMARK    5  A    between atoms: C16_14  and  O2_15 
REMARK    6  A    between atoms: O2_15  and  C17_16 
REMARK    7  A    between atoms: C14_17  and  C15_18 
REMARK    8  A    between atoms: C3_22  and  C4_23 
REMARK    9  A    between atoms: C5_24  and  C6_25 
REMARK   10  A    between atoms: C6_25  and  C7_26 
REMARK   11  A    between atoms: C7_26  and  C9_27 
REMARK   12  A    between atoms: C7_26  and  C8_28 
REMARK   13  A    between atoms: C7_26  and  O1_29 
ROOT
ATOM      1 CL   7PP d   1      -1.008   9.180  28.085  0.00  0.00    -0.061 Cl
ATOM      2  C1  7PP d   1      -0.704   9.868  26.461  0.00  0.00     0.160 A 
ATOM      3  N5  7PP d   1      -1.683  10.440  25.760  0.00  0.00    -0.050 NA
ATOM      4  C21 7PP d   1      -1.438  10.980  24.548  0.00  0.00     0.723 A 
ATOM      5  N3  7PP d   1      -0.186  10.985  24.035  0.00  0.00    -0.044 NA
ATOM      6  C20 7PP d   1       0.818  10.440  24.703  0.00  0.00     0.164 A 
ATOM      7  C2  7PP d   1       0.560   9.859  25.947  0.00  0.00     0.072 A 
ATOM      8  N1  7PP d   1       2.119  10.328  24.389  0.00  0.00    -0.333 N 
ATOM      9  C10 7PP d   1       2.729   9.665  25.383  0.00  0.00     0.001 A 
ATOM     10  C3  7PP d   1       1.780   9.419  26.358  0.00  0.00     0.050 A 
ATOM     11  H15 7PP d   1       3.778   9.374  25.416  0.00  0.00     0.114 H 
ENDROOT
BRANCH   8  12
ATOM     12  C11 7PP d   1       2.769  10.864  23.163  0.00  0.00     0.041 C 
ATOM     13  H3  7PP d   1       2.022  11.348  22.517  0.00  0.00     0.074 H 
ATOM     14  H4  7PP d   1       3.263  10.053  22.608  0.00  0.00     0.074 H 
BRANCH  12  15
ATOM     15  C12 7PP d   1       3.829  11.913  23.648  0.00  0.00     0.061 A 
ATOM     16  C18 7PP d   1       3.536  13.193  24.152  0.00  0.00    -0.002 A 
ATOM     17  C16 7PP d   1       4.606  14.067  24.560  0.00  0.00     0.083 A 
ATOM     18  C14 7PP d   1       5.939  13.657  24.427  0.00  0.00    -0.011 A 
ATOM     19  C13 7PP d   1       6.162  12.387  23.921  0.00  0.00     0.011 A 
ATOM     20  N2  7PP d   1       5.151  11.588  23.570  0.00  0.00    -0.263 NA
ATOM     21  H14 7PP d   1       7.180  12.034  23.807  0.00  0.00     0.115 H 
BRANCH  16  22
ATOM     22  C19 7PP d   1       2.127  13.726  24.272  0.00  0.00    -0.047 C 
ATOM     23  H5  7PP d   1       1.415  12.961  23.929  0.00  0.00     0.033 H 
ATOM     24  H6  7PP d   1       2.022  14.629  23.652  0.00  0.00     0.033 H 
ATOM     25  H7  7PP d   1       1.918  13.976  25.323  0.00  0.00     0.033 H 
ENDBRANCH  16  22
BRANCH  17  26
ATOM     26  O2  7PP d   1       4.338  15.314  25.037  0.00  0.00    -0.355 OA
BRANCH  26  27
ATOM     27  C17 7PP d   1       4.623  15.699  26.368  0.00  0.00     0.010 C 
ATOM     28  H8  7PP d   1       4.321  16.746  26.520  0.00  0.00     0.066 H 
ATOM     29  H9  7PP d   1       5.702  15.598  26.556  0.00  0.00     0.066 H 
ATOM     30  H10 7PP d   1       4.068  15.053  27.064  0.00  0.00     0.066 H 
ENDBRANCH  26  27
ENDBRANCH  17  26
BRANCH  18  31
ATOM     31  C15 7PP d   1       7.103  14.546  24.833  0.00  0.00    -0.047 C 
ATOM     32  H11 7PP d   1       8.050  14.021  24.640  0.00  0.00     0.033 H 
ATOM     33  H12 7PP d   1       7.027  14.784  25.904  0.00  0.00     0.033 H 
ATOM     34  H13 7PP d   1       7.075  15.477  24.248  0.00  0.00     0.033 H 
ENDBRANCH  18  31
ENDBRANCH  12  15
ENDBRANCH   8  12
BRANCH  10  35
ATOM     35  C4  7PP d   1       2.083   8.744  27.485  0.00  0.00    -0.064 C 
ATOM     36  C5  7PP d   1       2.345   8.104  28.439  0.00  0.00    -0.098 C 
BRANCH  36  37
ATOM     37  C6  7PP d   1       2.733   7.283  29.635  0.00  0.00     0.019 C 
ATOM     38  H16 7PP d   1       2.525   7.881  30.534  0.00  0.00     0.056 H 
ATOM     39  H17 7PP d   1       3.813   7.083  29.569  0.00  0.00     0.056 H 
BRANCH  37  40
ATOM     40  C7  7PP d   1       2.014   5.929  29.795  0.00  0.00     0.061 C 
BRANCH  40  41
ATOM     41  C9  7PP d   1       2.457   5.221  31.096  0.00  0.00    -0.047 C 
ATOM     42  H18 7PP d   1       1.931   4.259  31.187  0.00  0.00     0.031 H 
ATOM     43  H19 7PP d   1       2.213   5.856  31.960  0.00  0.00     0.031 H 
ATOM     44  H20 7PP d   1       3.542   5.044  31.066  0.00  0.00     0.031 H 
ENDBRANCH  40  41
BRANCH  40  45
ATOM     45  C8  7PP d   1       2.209   5.025  28.585  0.00  0.00    -0.047 C 
ATOM     46  H21 7PP d   1       1.886   5.554  27.676  0.00  0.00     0.031 H 
ATOM     47  H22 7PP d   1       1.610   4.111  28.710  0.00  0.00     0.031 H 
ATOM     48  H23 7PP d   1       3.272   4.757  28.495  0.00  0.00     0.031 H 
ENDBRANCH  40  45
BRANCH  40  49
ATOM     49  O1  7PP d   1       0.604   6.169  29.942  0.00  0.00    -0.390 OA
ATOM     50  H24 7PP d   1       0.455   6.719  30.703  0.00  0.00     0.210 HD
ENDBRANCH  40  49
ENDBRANCH  37  40
ENDBRANCH  36  37
ENDBRANCH  10  35
BRANCH   4  51
ATOM     51  N4  7PP d   1      -2.457  11.535  23.854  0.00  0.00    -0.231 N 
ATOM     52  H1  7PP d   1      -3.410  11.530  24.246  0.00  0.00     0.174 HD
ATOM     53  H2  7PP d   1      -2.281  11.962  22.934  0.00  0.00     0.174 HD
ENDBRANCH   4  51
TORSDOF 13
