REMARK  5 active torsions:
REMARK  status: ('A' for Active; 'I' for Inactive)
REMARK    1  A    between atoms: N42_21  and  C6_6 
REMARK    2  A    between atoms: C47_24  and  C13_7 
REMARK    3  A    between atoms: C15_9  and  N36_18 
REMARK    4  A    between atoms: C25_14  and  C56_27 
REMARK       I    between atoms: N36_18  and  C38_19 
REMARK       I    between atoms: C38_19  and  N42_21 
REMARK    5  A    between atoms: C56_27  and  C58_28 
REMARK       I    between atoms: C58_28  and  N62_30 
ROOT
ATOM      1  C13 EDB d   1      15.974  15.604  23.785  0.00  0.00     0.098 A 
ATOM      2  C14 EDB d   1      16.091  14.589  24.726  0.00  0.00    -0.008 A 
ATOM      3  C15 EDB d   1      15.834  15.243  25.933  0.00  0.00     0.135 A 
ATOM      4  N16 EDB d   1      15.581  16.559  25.653  0.00  0.00    -0.217 N 
ATOM      5  N17 EDB d   1      15.654  16.817  24.285  0.00  0.00    -0.164 NA
ATOM      6  C23 EDB d   1      15.333  17.575  26.515  0.00  0.00     0.061 C 
ATOM      7  C24 EDB d   1      14.000  18.576  26.280  0.00  0.00    -0.049 C 
ATOM      8  C25 EDB d   1      14.130  19.635  27.171  0.00  0.00    -0.047 C 
ATOM      9  C26 EDB d   1      14.857  19.761  28.359  0.00  0.00    -0.076 C 
ATOM     10  C27 EDB d   1      15.826  18.798  28.624  0.00  0.00    -0.080 C 
ATOM     11  C28 EDB d   1      16.038  17.752  27.721  0.00  0.00    -0.055 C 
ATOM     12  H4  EDB d   1      16.326  13.538  24.562  0.00  0.00     0.093 H 
ATOM     13  H5  EDB d   1      13.195  18.424  25.570  0.00  0.00     0.087 H 
ATOM     14  H6  EDB d   1      14.673  20.578  29.047  0.00  0.00     0.084 H 
ATOM     15  H7  EDB d   1      16.417  18.859  29.531  0.00  0.00     0.083 H 
ATOM     16  H8  EDB d   1      16.802  17.023  27.968  0.00  0.00     0.087 H 
ENDROOT
BRANCH   3  17
ATOM     17  N36 EDB d   1      15.835  14.809  27.228  0.00  0.00    -0.293 N 
ATOM     18  C38 EDB d   1      16.582  13.778  27.630  0.00  0.00     0.326 C 
ATOM     19  O40 EDB d   1      17.303  13.163  26.862  0.00  0.00    -0.247 OA
ATOM     20  N42 EDB d   1      16.499  13.434  28.910  0.00  0.00    -0.307 N 
ATOM     21  H10 EDB d   1      15.827  13.937  29.453  0.00  0.00     0.170 HD
ATOM     22  H9  EDB d   1      15.258  15.278  27.896  0.00  0.00     0.172 HD
BRANCH  20  23
ATOM     23  C6  EDB d   1      17.215  12.479  29.582  0.00  0.00     0.059 A 
ATOM     24  C1  EDB d   1      18.619  12.339  29.457  0.00  0.00    -0.055 A 
ATOM     25  C2  EDB d   1      19.307  11.380  30.212  0.00  0.00    -0.079 A 
ATOM     26  H1  EDB d   1      19.165  12.978  28.773  0.00  0.00     0.087 H 
ATOM     27  C3  EDB d   1      18.633  10.573  31.138  0.00  0.00    -0.060 A 
ATOM     28  H2  EDB d   1      20.376  11.261  30.078  0.00  0.00     0.083 H 
ATOM     29  C4  EDB d   1      17.257  10.730  31.276  0.00  0.00     0.058 A 
ATOM     30  H3  EDB d   1      19.171   9.844  31.733  0.00  0.00     0.086 H 
ATOM     31  C5  EDB d   1      16.578  11.684  30.516  0.00  0.00     0.082 A 
ATOM     32 CL66 EDB d   1      16.299   9.736  32.420  0.00  0.00    -0.082 Cl
ATOM     33 CL64 EDB d   1      14.821  11.879  30.673  0.00  0.00    -0.080 Cl
ENDBRANCH  20  23
ENDBRANCH   3  17
BRANCH   1  34
ATOM     34  C47 EDB d   1      16.111  15.363  22.312  0.00  0.00     0.035 A 
ATOM     35  S46 EDB d   1      15.934  16.614  21.101  0.00  0.00    -0.100 SA
ATOM     36  C45 EDB d   1      16.224  15.502  19.801  0.00  0.00    -0.044 A 
ATOM     37  C49 EDB d   1      16.446  14.232  20.395  0.00  0.00    -0.075 A 
ATOM     38  H11 EDB d   1      16.234  15.733  18.737  0.00  0.00     0.095 H 
ATOM     39  C48 EDB d   1      16.396  14.116  21.770  0.00  0.00    -0.064 A 
ATOM     40  H13 EDB d   1      16.653  13.361  19.775  0.00  0.00     0.084 H 
ATOM     41  H12 EDB d   1      16.554  13.199  22.336  0.00  0.00     0.085 H 
ENDBRANCH   1  34
BRANCH   8  42
ATOM     42  C56 EDB d   1      13.060  20.661  26.848  0.00  0.00     0.033 C 
ATOM     43  H14 EDB d   1      12.508  20.902  27.768  0.00  0.00     0.054 H 
ATOM     44  H15 EDB d   1      12.369  20.234  26.107  0.00  0.00     0.054 H 
BRANCH  42  45
ATOM     45  C58 EDB d   1      13.656  21.934  26.286  0.00  0.00     0.219 C 
ATOM     46  O60 EDB d   1      13.271  23.028  26.672  0.00  0.00    -0.273 OA
ATOM     47  N62 EDB d   1      14.592  21.790  25.363  0.00  0.00    -0.370 N 
ATOM     48  H16 EDB d   1      15.021  22.596  24.956  0.00  0.00     0.159 HD
ATOM     49  H17 EDB d   1      14.870  20.875  25.072  0.00  0.00     0.159 HD
ENDBRANCH  42  45
ENDBRANCH   8  42
TORSDOF 5
