REMARK  9 active torsions:
REMARK  status: ('A' for Active; 'I' for Inactive)
REMARK    1  A    between atoms: C6_6  and  N7_7 
REMARK       I    between atoms: N7_7  and  C8_8 
REMARK       I    between atoms: C8_8  and  N10_10 
REMARK    2  A    between atoms: N10_10  and  C11_11 
REMARK    3  A    between atoms: C13_13  and  C14_14 
REMARK    4  A    between atoms: C14_14  and  C15_15 
REMARK    5  A    between atoms: C14_14  and  C16_16 
REMARK    6  A    between atoms: C14_14  and  C17_17 
REMARK    7  A    between atoms: N19_19  and  C20_20 
REMARK    8  A    between atoms: C24_24  and  C25_25 
REMARK    9  A    between atoms: C25_25  and  O27_27 
ROOT
ATOM      1  C11 437 d   1      15.571  15.043  25.287  0.00  0.00     0.135 A 
ATOM      2  C12 437 d   1      15.903  14.343  24.123  0.00  0.00    -0.012 A 
ATOM      3  C13 437 d   1      15.686  15.281  23.105  0.00  0.00     0.066 A 
ATOM      4  N18 437 d   1      15.225  16.469  23.539  0.00  0.00    -0.169 NA
ATOM      5  N19 437 d   1      15.164  16.284  24.910  0.00  0.00    -0.217 N 
ATOM      6  H6  437 d   1      16.248  13.314  24.030  0.00  0.00     0.092 H 
ENDROOT
BRANCH   1   7
ATOM      7  N10 437 d   1      15.563  14.688  26.614  0.00  0.00    -0.293 N 
ATOM      8  C8  437 d   1      16.396  13.760  27.135  0.00  0.00     0.326 C 
ATOM      9  N7  437 d   1      16.265  13.483  28.436  0.00  0.00    -0.308 N 
ATOM     10  O9  437 d   1      17.236  13.186  26.438  0.00  0.00    -0.247 OA
ATOM     11  H4  437 d   1      15.527  13.958  28.915  0.00  0.00     0.170 HD
ATOM     12  H5  437 d   1      14.910  15.137  27.223  0.00  0.00     0.172 HD
BRANCH   9  13
ATOM     13  C6  437 d   1      17.033  12.612  29.205  0.00  0.00     0.047 A 
ATOM     14  C3  437 d   1      18.436  12.796  29.225  0.00  0.00    -0.056 A 
ATOM     15  C2  437 d   1      19.277  12.004  30.019  0.00  0.00    -0.080 A 
ATOM     16  H3  437 d   1      18.873  13.572  28.608  0.00  0.00     0.086 H 
ATOM     17  C1  437 d   1      18.722  10.989  30.809  0.00  0.00    -0.072 A 
ATOM     18  H2  437 d   1      20.347  12.175  30.022  0.00  0.00     0.083 H 
ATOM     19  C4  437 d   1      17.347  10.776  30.795  0.00  0.00    -0.024 A 
ATOM     20  H1  437 d   1      19.362  10.371  31.429  0.00  0.00     0.084 H 
ATOM     21  C5  437 d   1      16.499  11.579  30.007  0.00  0.00     0.001 A 
ATOM     22  C31 437 d   1      16.834   9.753  31.594  0.00  0.00    -0.072 A 
ATOM     23  C28 437 d   1      15.130  11.317  30.040  0.00  0.00    -0.070 A 
ATOM     24  C29 437 d   1      14.624  10.263  30.820  0.00  0.00    -0.082 A 
ATOM     25  H23 437 d   1      14.451  11.931  29.460  0.00  0.00     0.084 H 
ATOM     26  C30 437 d   1      15.471   9.486  31.606  0.00  0.00    -0.082 A 
ATOM     27  H24 437 d   1      13.561  10.052  30.810  0.00  0.00     0.083 H 
ATOM     28  H25 437 d   1      15.073   8.685  32.218  0.00  0.00     0.083 H 
ATOM     29  H26 437 d   1      17.504   9.163  32.209  0.00  0.00     0.084 H 
ENDBRANCH   9  13
ENDBRANCH   1   7
BRANCH   5  30
ATOM     30  C20 437 d   1      14.756  17.336  25.654  0.00  0.00     0.060 A 
ATOM     31  C21 437 d   1      15.330  17.759  26.855  0.00  0.00    -0.054 A 
ATOM     32  C26 437 d   1      14.875  18.874  27.563  0.00  0.00    -0.073 A 
ATOM     33  H16 437 d   1      16.166  17.197  27.256  0.00  0.00     0.087 H 
ATOM     34  C24 437 d   1      13.792  19.627  27.067  0.00  0.00    -0.035 A 
ATOM     35  H21 437 d   1      15.354  19.160  28.492  0.00  0.00     0.084 H 
ATOM     36  C23 437 d   1      13.191  19.245  25.886  0.00  0.00    -0.073 A 
ATOM     37  C22 437 d   1      13.679  18.128  25.205  0.00  0.00    -0.054 A 
ATOM     38  H18 437 d   1      12.351  19.805  25.491  0.00  0.00     0.084 H 
ATOM     39  H17 437 d   1      13.200  17.852  24.273  0.00  0.00     0.087 H 
BRANCH  34  40
ATOM     40  C25 437 d   1      13.253  20.832  27.816  0.00  0.00     0.040 C 
ATOM     41  H19 437 d   1      14.039  21.228  28.476  0.00  0.00     0.081 H 
ATOM     42  H20 437 d   1      12.387  20.524  28.421  0.00  0.00     0.081 H 
BRANCH  40  43
ATOM     43  O27 437 d   1      12.846  21.859  26.900  0.00  0.00    -0.396 OA
ATOM     44  H22 437 d   1      12.512  22.603  27.388  0.00  0.00     0.209 HD
ENDBRANCH  40  43
ENDBRANCH  34  40
ENDBRANCH   5  30
BRANCH   3  45
ATOM     45  C14 437 d   1      15.878  14.988  21.630  0.00  0.00    -0.005 C 
BRANCH  45  46
ATOM     46  C15 437 d   1      17.191  14.229  21.351  0.00  0.00    -0.064 C 
ATOM     47  H7  437 d   1      17.284  14.041  20.271  0.00  0.00     0.028 H 
ATOM     48  H8  437 d   1      17.182  13.271  21.891  0.00  0.00     0.028 H 
ATOM     49  H9  437 d   1      18.044  14.834  21.692  0.00  0.00     0.028 H 
ENDBRANCH  45  46
BRANCH  45  50
ATOM     50  C16 437 d   1      15.845  16.242  20.737  0.00  0.00    -0.064 C 
ATOM     51  H10 437 d   1      14.914  16.799  20.921  0.00  0.00     0.028 H 
ATOM     52  H11 437 d   1      15.889  15.941  19.680  0.00  0.00     0.028 H 
ATOM     53  H12 437 d   1      16.708  16.882  20.972  0.00  0.00     0.028 H 
ENDBRANCH  45  50
BRANCH  45  54
ATOM     54  C17 437 d   1      14.696  14.105  21.250  0.00  0.00    -0.064 C 
ATOM     55  H13 437 d   1      14.698  13.200  21.876  0.00  0.00     0.028 H 
ATOM     56  H14 437 d   1      14.778  13.818  20.191  0.00  0.00     0.028 H 
ATOM     57  H15 437 d   1      13.759  14.659  21.409  0.00  0.00     0.028 H 
ENDBRANCH  45  54
ENDBRANCH   3  45
TORSDOF 9
