REMARK  9 active torsions:
REMARK  status: ('A' for Active; 'I' for Inactive)
REMARK    1  A    between atoms: C1_1  and  N21_11 
REMARK    2  A    between atoms: C5_5  and  C13_7 
REMARK    3  A    between atoms: C13_7  and  C14_8 
REMARK       I    between atoms: C14_8  and  N15_9 
REMARK    4  A    between atoms: C24_13  and  C32_16 
REMARK    5  A    between atoms: C26_15  and  N40_20 
REMARK    6  A    between atoms: C32_16  and  C34_17 
REMARK    7  A    between atoms: C32_16  and  C36_18 
REMARK    8  A    between atoms: C32_16  and  C38_19 
REMARK       I    between atoms: N40_20  and  C42_21 
REMARK       I    between atoms: C42_21  and  N43_22 
REMARK    9  A    between atoms: N43_22  and  C44_23 
ROOT
ATOM      1  N21 EDD d   1      15.407  16.257  25.414  0.00  0.00    -0.217 N 
ATOM      2  N23 EDD d   1      15.424  16.525  24.033  0.00  0.00    -0.169 NA
ATOM      3  C24 EDD d   1      15.680  15.333  23.498  0.00  0.00     0.066 A 
ATOM      4  C25 EDD d   1      15.820  14.336  24.436  0.00  0.00    -0.012 A 
ATOM      5  C26 EDD d   1      15.660  14.955  25.659  0.00  0.00     0.135 A 
ATOM      6  H9  EDD d   1      16.016  13.281  24.252  0.00  0.00     0.092 H 
ENDROOT
BRANCH   1   7
ATOM      7  C1  EDD d   1      15.184  17.274  26.283  0.00  0.00     0.061 A 
ATOM      8  C2  EDD d   1      15.884  17.472  27.465  0.00  0.00    -0.055 A 
ATOM      9  C3  EDD d   1      15.639  18.520  28.348  0.00  0.00    -0.080 A 
ATOM     10  H1  EDD d   1      16.669  16.768  27.716  0.00  0.00     0.087 H 
ATOM     11  C4  EDD d   1      14.667  19.450  28.049  0.00  0.00    -0.076 A 
ATOM     12  H2  EDD d   1      16.210  18.604  29.266  0.00  0.00     0.083 H 
ATOM     13  C5  EDD d   1      13.951  19.307  26.874  0.00  0.00    -0.047 A 
ATOM     14  H3  EDD d   1      14.467  20.277  28.721  0.00  0.00     0.084 H 
ATOM     15  C6  EDD d   1      14.219  18.251  26.016  0.00  0.00    -0.049 A 
ATOM     16  H4  EDD d   1      13.653  18.179  25.094  0.00  0.00     0.087 H 
BRANCH  13  17
ATOM     17  C13 EDD d   1      12.905  20.329  26.526  0.00  0.00     0.033 C 
ATOM     18  H5  EDD d   1      12.329  20.573  27.431  0.00  0.00     0.054 H 
ATOM     19  H6  EDD d   1      12.232  19.907  25.765  0.00  0.00     0.054 H 
BRANCH  17  20
ATOM     20  C14 EDD d   1      13.533  21.607  25.978  0.00  0.00     0.219 C 
ATOM     21  N15 EDD d   1      14.448  21.482  25.017  0.00  0.00    -0.370 N 
ATOM     22  H7  EDD d   1      14.883  22.296  24.632  0.00  0.00     0.159 HD
ATOM     23  H8  EDD d   1      14.700  20.574  24.681  0.00  0.00     0.159 HD
ATOM     24  O19 EDD d   1      13.170  22.688  26.399  0.00  0.00    -0.273 OA
ENDBRANCH  17  20
ENDBRANCH  13  17
ENDBRANCH   1   7
BRANCH   5  25
ATOM     25  N40 EDD d   1      15.673  14.455  26.934  0.00  0.00    -0.293 N 
ATOM     26  C42 EDD d   1      16.485  13.490  27.372  0.00  0.00     0.326 C 
ATOM     27  N43 EDD d   1      16.310  13.158  28.688  0.00  0.00    -0.307 N 
ATOM     28  O48 EDD d   1      17.296  12.929  26.623  0.00  0.00    -0.247 OA
ATOM     29  H20 EDD d   1      15.546  13.595  29.163  0.00  0.00     0.170 HD
ATOM     30  H19 EDD d   1      15.024  14.843  27.588  0.00  0.00     0.172 HD
BRANCH  27  31
ATOM     31  C44 EDD d   1      17.073  12.289  29.420  0.00  0.00     0.059 A 
ATOM     32  C50 EDD d   1      18.463  12.143  29.264  0.00  0.00    -0.055 A 
ATOM     33  C51 EDD d   1      19.192  11.248  30.063  0.00  0.00    -0.079 A 
ATOM     34  H21 EDD d   1      18.980  12.731  28.515  0.00  0.00     0.087 H 
ATOM     35  C52 EDD d   1      18.556  10.459  31.016  0.00  0.00    -0.060 A 
ATOM     36  H22 EDD d   1      20.266  11.171  29.936  0.00  0.00     0.083 H 
ATOM     37  C53 EDD d   1      17.191  10.595  31.179  0.00  0.00     0.058 A 
ATOM     38  H23 EDD d   1      19.119   9.754  31.617  0.00  0.00     0.086 H 
ATOM     39  C54 EDD d   1      16.468  11.498  30.403  0.00  0.00     0.082 A 
ATOM     40 CL63 EDD d   1      16.274   9.639  32.403  0.00  0.00    -0.082 Cl
ATOM     41 CL61 EDD d   1      14.698  11.590  30.656  0.00  0.00    -0.080 Cl
ENDBRANCH  27  31
ENDBRANCH   5  25
BRANCH   3  42
ATOM     42  C32 EDD d   1      15.762  15.104  21.995  0.00  0.00    -0.005 C 
BRANCH  42  43
ATOM     43  C34 EDD d   1      15.807  16.490  21.321  0.00  0.00    -0.064 C 
ATOM     44  H10 EDD d   1      15.867  16.365  20.230  0.00  0.00     0.028 H 
ATOM     45  H11 EDD d   1      16.690  17.042  21.676  0.00  0.00     0.028 H 
ATOM     46  H12 EDD d   1      14.896  17.052  21.576  0.00  0.00     0.028 H 
ENDBRANCH  42  43
BRANCH  42  47
ATOM     47  C36 EDD d   1      14.524  14.336  21.532  0.00  0.00    -0.064 C 
ATOM     48  H13 EDD d   1      14.501  13.350  22.018  0.00  0.00     0.028 H 
ATOM     49  H14 EDD d   1      14.560  14.206  20.440  0.00  0.00     0.028 H 
ATOM     50  H15 EDD d   1      13.620  14.900  21.804  0.00  0.00     0.028 H 
ENDBRANCH  42  47
BRANCH  42  51
ATOM     51  C38 EDD d   1      16.972  14.238  21.645  0.00  0.00    -0.064 C 
ATOM     52  H16 EDD d   1      17.893  14.750  21.960  0.00  0.00     0.028 H 
ATOM     53  H17 EDD d   1      17.000  14.069  20.558  0.00  0.00     0.028 H 
ATOM     54  H18 EDD d   1      16.894  13.272  22.165  0.00  0.00     0.028 H 
ENDBRANCH  42  51
ENDBRANCH   3  42
TORSDOF 9
