REMARK  9 active torsions:
REMARK  status: ('A' for Active; 'I' for Inactive)
REMARK    1  A    between atoms: C1_1  and  N21_11 
REMARK    2  A    between atoms: C5_5  and  C13_7 
REMARK    3  A    between atoms: C13_7  and  C14_8 
REMARK       I    between atoms: C14_8  and  N15_9 
REMARK    4  A    between atoms: C24_13  and  C32_16 
REMARK    5  A    between atoms: C26_15  and  N40_20 
REMARK    6  A    between atoms: C32_16  and  C34_17 
REMARK    7  A    between atoms: C32_16  and  C36_18 
REMARK    8  A    between atoms: C32_16  and  C38_19 
REMARK       I    between atoms: N40_20  and  C42_21 
REMARK       I    between atoms: C42_21  and  N43_22 
REMARK    9  A    between atoms: N43_22  and  C44_23 
ROOT
ATOM      1  N21 EDD d   1       6.759 -36.907 -25.223  0.00  0.00    -0.217 N 
ATOM      2  N23 EDD d   1       7.172 -35.871 -26.015  0.00  0.00    -0.169 NA
ATOM      3  C24 EDD d   1       7.124 -34.863 -25.136  0.00  0.00     0.066 A 
ATOM      4  C25 EDD d   1       6.710 -35.189 -23.857  0.00  0.00    -0.012 A 
ATOM      5  C26 EDD d   1       6.475 -36.546 -23.952  0.00  0.00     0.135 A 
ATOM      6  H9  EDD d   1       6.598 -34.538 -22.991  0.00  0.00     0.092 H 
ENDROOT
BRANCH   1   7
ATOM      7  C1  EDD d   1       6.648 -38.100 -25.767  0.00  0.00     0.061 A 
ATOM      8  C2  EDD d   1       5.557 -38.921 -25.568  0.00  0.00    -0.055 A 
ATOM      9  C3  EDD d   1       5.449 -40.181 -26.158  0.00  0.00    -0.080 A 
ATOM     10  H1  EDD d   1       4.753 -38.574 -24.929  0.00  0.00     0.087 H 
ATOM     11  C4  EDD d   1       6.449 -40.634 -27.008  0.00  0.00    -0.076 A 
ATOM     12  H2  EDD d   1       4.586 -40.805 -25.953  0.00  0.00     0.083 H 
ATOM     13  C5  EDD d   1       7.541 -39.819 -27.256  0.00  0.00    -0.047 A 
ATOM     14  H3  EDD d   1       6.376 -41.611 -27.471  0.00  0.00     0.084 H 
ATOM     15  C6  EDD d   1       7.637 -38.585 -26.630  0.00  0.00    -0.049 A 
ATOM     16  H4  EDD d   1       8.512 -37.973 -26.817  0.00  0.00     0.087 H 
BRANCH  13  17
ATOM     17  C13 EDD d   1       8.620 -40.295 -28.176  0.00  0.00     0.033 C 
ATOM     18  H5  EDD d   1       8.806 -41.365 -28.002  0.00  0.00     0.054 H 
ATOM     19  H6  EDD d   1       9.542 -39.727 -27.986  0.00  0.00     0.054 H 
BRANCH  17  20
ATOM     20  C14 EDD d   1       8.181 -40.084 -29.617  0.00  0.00     0.219 C 
ATOM     21  N15 EDD d   1       7.686 -38.917 -30.014  0.00  0.00    -0.370 N 
ATOM     22  H7  EDD d   1       7.401 -38.792 -30.964  0.00  0.00     0.159 HD
ATOM     23  H8  EDD d   1       7.598 -38.163 -29.363  0.00  0.00     0.159 HD
ATOM     24  O19 EDD d   1       8.333 -40.978 -30.399  0.00  0.00    -0.273 OA
ENDBRANCH  17  20
ENDBRANCH  13  17
ENDBRANCH   1   7
BRANCH   5  25
ATOM     25  N40 EDD d   1       6.080 -37.477 -23.033  0.00  0.00    -0.293 N 
ATOM     26  C42 EDD d   1       5.187 -37.166 -22.099  0.00  0.00     0.326 C 
ATOM     27  N43 EDD d   1       4.753 -38.223 -21.362  0.00  0.00    -0.307 N 
ATOM     28  O48 EDD d   1       4.821 -35.982 -22.029  0.00  0.00    -0.247 OA
ATOM     29  H20 EDD d   1       5.152 -39.116 -21.570  0.00  0.00     0.170 HD
ATOM     30  H19 EDD d   1       6.466 -38.399 -23.063  0.00  0.00     0.172 HD
BRANCH  27  31
ATOM     31  C44 EDD d   1       3.820 -38.175 -20.362  0.00  0.00     0.059 A 
ATOM     32  C50 EDD d   1       2.565 -37.593 -20.582  0.00  0.00    -0.055 A 
ATOM     33  C51 EDD d   1       1.642 -37.554 -19.560  0.00  0.00    -0.079 A 
ATOM     34  H21 EDD d   1       2.321 -37.175 -21.552  0.00  0.00     0.087 H 
ATOM     35  C52 EDD d   1       1.944 -38.088 -18.302  0.00  0.00    -0.060 A 
ATOM     36  H22 EDD d   1       0.671 -37.105 -19.732  0.00  0.00     0.083 H 
ATOM     37  C53 EDD d   1       3.182 -38.690 -18.038  0.00  0.00     0.058 A 
ATOM     38  H23 EDD d   1       1.203 -38.035 -17.513  0.00  0.00     0.086 H 
ATOM     39  C54 EDD d   1       4.098 -38.699 -19.085  0.00  0.00     0.082 A 
ATOM     40 CL63 EDD d   1       3.598 -39.436 -16.396  0.00  0.00    -0.082 Cl
ATOM     41 CL61 EDD d   1       5.671 -39.467 -18.764  0.00  0.00    -0.080 Cl
ENDBRANCH  27  31
ENDBRANCH   5  25
BRANCH   3  42
ATOM     42  C32 EDD d   1       7.526 -33.476 -25.532  0.00  0.00    -0.005 C 
BRANCH  42  43
ATOM     43  C34 EDD d   1       7.561 -33.435 -27.072  0.00  0.00    -0.064 C 
ATOM     44  H10 EDD d   1       7.854 -32.428 -27.405  0.00  0.00     0.028 H 
ATOM     45  H11 EDD d   1       6.564 -33.677 -27.468  0.00  0.00     0.028 H 
ATOM     46  H12 EDD d   1       8.291 -34.170 -27.442  0.00  0.00     0.028 H 
ENDBRANCH  42  43
BRANCH  42  47
ATOM     47  C36 EDD d   1       8.909 -33.142 -24.950  0.00  0.00    -0.064 C 
ATOM     48  H13 EDD d   1       8.863 -33.177 -23.852  0.00  0.00     0.028 H 
ATOM     49  H14 EDD d   1       9.209 -32.134 -25.273  0.00  0.00     0.028 H 
ATOM     50  H15 EDD d   1       9.645 -33.876 -25.309  0.00  0.00     0.028 H 
ENDBRANCH  42  47
BRANCH  42  51
ATOM     51  C38 EDD d   1       6.486 -32.522 -24.962  0.00  0.00    -0.064 C 
ATOM     52  H16 EDD d   1       5.498 -32.764 -25.381  0.00  0.00     0.028 H 
ATOM     53  H17 EDD d   1       6.753 -31.488 -25.226  0.00  0.00     0.028 H 
ATOM     54  H18 EDD d   1       6.455 -32.624 -23.867  0.00  0.00     0.028 H 
ENDBRANCH  42  51
ENDBRANCH   3  42
TORSDOF 9
