REMARK  12 active torsions:
REMARK  status: ('A' for Active; 'I' for Inactive)
REMARK    1  A    between atoms: N1_1  and  CM1_3 
REMARK    2  A    between atoms: N1_1  and  CM2_4 
REMARK    3  A    between atoms: N1_1  and  C1_5 
REMARK    4  A    between atoms: C1_5  and  C2_6 
REMARK    5  A    between atoms: C2_6  and  C3_7 
REMARK    6  A    between atoms: C3_7  and  C4_8 
REMARK    7  A    between atoms: C4_8  and  C5_9 
REMARK    8  A    between atoms: C5_9  and  C6_10 
REMARK    9  A    between atoms: C6_10  and  C7_11 
REMARK   10  A    between atoms: C7_11  and  C8_12 
REMARK   11  A    between atoms: C8_12  and  C9_13 
REMARK   12  A    between atoms: C9_13  and  C10_14 
ROOT
ATOM      1  C4  DDQ d   1       8.108   8.095  18.108  0.00  0.00    -0.065 C 
ATOM      2  H13 DDQ d   1       7.400   7.258  18.017  0.00  0.00     0.033 H 
ATOM      3  H14 DDQ d   1       7.820   8.728  18.960  0.00  0.00     0.033 H 
ENDROOT
BRANCH   1   4
ATOM      4  C3  DDQ d   1       7.987   8.959  16.817  0.00  0.00    -0.063 C 
ATOM      5  H11 DDQ d   1       8.789   9.712  16.818  0.00  0.00     0.033 H 
ATOM      6  H12 DDQ d   1       8.100   8.304  15.941  0.00  0.00     0.033 H 
BRANCH   4   7
ATOM      7  C2  DDQ d   1       6.630   9.680  16.725  0.00  0.00    -0.035 C 
ATOM      8  H9  DDQ d   1       5.837   8.931  16.866  0.00  0.00     0.036 H 
ATOM      9  H10 DDQ d   1       6.583  10.422  17.536  0.00  0.00     0.036 H 
BRANCH   7  10
ATOM     10  C1  DDQ d   1       6.365  10.409  15.398  0.00  0.00     0.132 C 
ATOM     11  H7  DDQ d   1       7.060  11.260  15.352  0.00  0.00     0.089 H 
ATOM     12  H8  DDQ d   1       6.597   9.702  14.588  0.00  0.00     0.089 H 
BRANCH  10  13
ATOM     13  N1  DDQ d   1       4.999  10.943  15.136  0.00  0.00     0.005 N 
ATOM     14  O1  DDQ d   1       4.440   9.830  15.390  0.00  0.00    -0.065 OA
BRANCH  13  15
ATOM     15  CM1 DDQ d   1       4.931  12.138  16.006  0.00  0.00     0.113 C 
ATOM     16  H1  DDQ d   1       5.502  12.959  15.547  0.00  0.00     0.081 H 
ATOM     17  H2  DDQ d   1       5.359  11.899  16.991  0.00  0.00     0.081 H 
ATOM     18  H3  DDQ d   1       3.881  12.444  16.127  0.00  0.00     0.081 H 
ENDBRANCH  13  15
BRANCH  13  19
ATOM     19  CM2 DDQ d   1       5.298  11.227  13.732  0.00  0.00     0.113 C 
ATOM     20  H4  DDQ d   1       5.777  12.214  13.652  0.00  0.00     0.081 H 
ATOM     21  H5  DDQ d   1       4.364  11.224  13.150  0.00  0.00     0.081 H 
ATOM     22  H6  DDQ d   1       5.978  10.457  13.339  0.00  0.00     0.081 H 
ENDBRANCH  13  19
ENDBRANCH  10  13
ENDBRANCH   7  10
ENDBRANCH   4   7
ENDBRANCH   1   4
BRANCH   1  23
ATOM     23  C5  DDQ d   1       9.498   7.499  18.417  0.00  0.00    -0.065 C 
ATOM     24  H15 DDQ d   1      10.226   8.319  18.505  0.00  0.00     0.033 H 
ATOM     25  H16 DDQ d   1       9.792   6.835  17.591  0.00  0.00     0.033 H 
BRANCH  23  26
ATOM     26  C6  DDQ d   1       9.496   6.686  19.739  0.00  0.00    -0.065 C 
ATOM     27  H17 DDQ d   1       8.896   5.780  19.568  0.00  0.00     0.033 H 
ATOM     28  H18 DDQ d   1       9.012   7.307  20.507  0.00  0.00     0.033 H 
BRANCH  26  29
ATOM     29  C7  DDQ d   1      10.861   6.239  20.298  0.00  0.00    -0.065 C 
ATOM     30  H19 DDQ d   1      11.446   7.129  20.575  0.00  0.00     0.033 H 
ATOM     31  H20 DDQ d   1      11.400   5.673  19.524  0.00  0.00     0.033 H 
BRANCH  29  32
ATOM     32  C8  DDQ d   1      10.680   5.348  21.539  0.00  0.00    -0.065 C 
ATOM     33  H21 DDQ d   1      10.325   4.361  21.207  0.00  0.00     0.033 H 
ATOM     34  H22 DDQ d   1       9.923   5.811  22.189  0.00  0.00     0.033 H 
BRANCH  32  35
ATOM     35  C9  DDQ d   1      11.957   5.149  22.355  0.00  0.00    -0.069 C 
ATOM     36  H23 DDQ d   1      12.177   6.094  22.874  0.00  0.00     0.032 H 
ATOM     37  H24 DDQ d   1      12.773   4.918  21.654  0.00  0.00     0.032 H 
BRANCH  35  38
ATOM     38  C10 DDQ d   1      11.910   4.034  23.407  0.00  0.00    -0.077 C 
ATOM     39  H25 DDQ d   1      12.877   3.982  23.930  0.00  0.00     0.027 H 
ATOM     40  H26 DDQ d   1      11.708   3.072  22.913  0.00  0.00     0.027 H 
ATOM     41  H27 DDQ d   1      11.112   4.248  24.133  0.00  0.00     0.027 H 
ENDBRANCH  35  38
ENDBRANCH  32  35
ENDBRANCH  29  32
ENDBRANCH  26  29
ENDBRANCH  23  26
ENDBRANCH   1  23
TORSDOF 12
