REMARK  8 active torsions:
REMARK  status: ('A' for Active; 'I' for Inactive)
REMARK    1  A    between atoms: C1_1  and  O1_2 
REMARK    2  A    between atoms: C2_3  and  C1'_10 
REMARK    3  A    between atoms: C4_5  and  O4_6 
REMARK    4  A    between atoms: C2'_11  and  O2'_12 
REMARK    5  A    between atoms: C3'_13  and  O3'_14 
REMARK    6  A    between atoms: C4'_15  and  O4'_16 
REMARK    7  A    between atoms: C5'_17  and  C6'_19 
REMARK    8  A    between atoms: C6'_19  and  O6'_20 
ROOT
ATOM      1  C1' Z57 d   1      33.344  22.960  27.946  0.00  0.00     0.094 C 
ATOM      2  C2' Z57 d   1      33.739  23.186  26.473  0.00  0.00     0.091 C 
ATOM      3  C3' Z57 d   1      32.656  22.575  25.549  0.00  0.00     0.090 C 
ATOM      4  C4' Z57 d   1      32.378  21.103  25.919  0.00  0.00     0.089 C 
ATOM      5  C5' Z57 d   1      32.191  20.927  27.445  0.00  0.00     0.087 C 
ATOM      6  O5' Z57 d   1      33.312  21.517  28.143  0.00  0.00    -0.368 OA
ATOM      7  H5  Z57 d   1      32.350  23.401  28.112  0.00  0.00     0.095 H 
ATOM      8  H6  Z57 d   1      34.687  22.661  26.284  0.00  0.00     0.091 H 
ATOM      9  H8  Z57 d   1      31.726  23.148  25.680  0.00  0.00     0.091 H 
ATOM     10  H10 Z57 d   1      33.242  20.500  25.603  0.00  0.00     0.091 H 
ATOM     11  H12 Z57 d   1      31.263  21.438  27.742  0.00  0.00     0.090 H 
ENDROOT
BRANCH   1  12
ATOM     12  C2  Z57 d   1      34.305  23.492  29.023  0.00  0.00     0.009 A 
ATOM     13  C1  Z57 d   1      33.811  24.187  30.134  0.00  0.00     0.076 A 
ATOM     14  C6  Z57 d   1      34.688  24.653  31.120  0.00  0.00    -0.031 A 
ATOM     15  C5  Z57 d   1      36.057  24.421  30.989  0.00  0.00     0.046 A 
ATOM     16  H4  Z57 d   1      34.306  25.191  31.980  0.00  0.00     0.090 H 
ATOM     17  C4  Z57 d   1      36.544  23.724  29.891  0.00  0.00     0.083 A 
ATOM     18 BR5  Z57 d   1      37.282  25.040  32.305  0.00  0.00    -0.048 Br
ATOM     19  C3  Z57 d   1      35.674  23.253  28.910  0.00  0.00    -0.038 A 
ATOM     20  H2  Z57 d   1      36.061  22.702  28.061  0.00  0.00     0.088 H 
BRANCH  13  21
ATOM     21  O1  Z57 d   1      32.474  24.419  30.262  0.00  0.00    -0.360 OA
ATOM     22  H1  Z57 d   1      32.312  24.899  31.066  0.00  0.00     0.217 HD
ENDBRANCH  13  21
BRANCH  17  23
ATOM     23  O4  Z57 d   1      37.875  23.495  29.785  0.00  0.00    -0.359 OA
ATOM     24  H3  Z57 d   1      38.034  22.558  29.768  0.00  0.00     0.217 HD
ENDBRANCH  17  23
ENDBRANCH   1  12
BRANCH   2  25
ATOM     25  O2' Z57 d   1      33.949  24.585  26.207  0.00  0.00    -0.390 OA
ATOM     26  H7  Z57 d   1      34.191  24.700  25.296  0.00  0.00     0.210 HD
ENDBRANCH   2  25
BRANCH   3  27
ATOM     27  O3' Z57 d   1      33.059  22.666  24.178  0.00  0.00    -0.390 OA
ATOM     28  H9  Z57 d   1      33.185  23.579  23.946  0.00  0.00     0.210 HD
ENDBRANCH   3  27
BRANCH   5  29
ATOM     29  C6' Z57 d   1      32.104  19.456  27.875  0.00  0.00     0.043 C 
ATOM     30  H13 Z57 d   1      31.156  19.024  27.521  0.00  0.00     0.078 H 
ATOM     31  H14 Z57 d   1      32.151  19.389  28.972  0.00  0.00     0.078 H 
BRANCH  29  32
ATOM     32  O6' Z57 d   1      33.201  18.737  27.304  0.00  0.00    -0.398 OA
ATOM     33  H15 Z57 d   1      34.018  19.113  27.610  0.00  0.00     0.209 HD
ENDBRANCH  29  32
ENDBRANCH   5  29
BRANCH   4  34
ATOM     34  O4' Z57 d   1      31.210  20.622  25.236  0.00  0.00    -0.390 OA
ATOM     35  H11 Z57 d   1      30.460  21.149  25.484  0.00  0.00     0.210 HD
ENDBRANCH   4  34
TORSDOF 8
