REMARK  0 active torsions:
REMARK  status: ('A' for Active; 'I' for Inactive)
ROOT
ATOM      1  N1  HPA d   1      37.764  22.061  17.917  0.00  0.00    -0.203 NA
ATOM      2  C2  HPA d   1      38.406  21.576  19.029  0.00  0.00     0.069 A 
ATOM      3  N3  HPA d   1      38.501  20.234  19.312  0.00  0.00    -0.333 N 
ATOM      4  C4  HPA d   1      37.907  19.408  18.399  0.00  0.00     0.162 A 
ATOM      5  C5  HPA d   1      37.259  19.873  17.301  0.00  0.00     0.150 A 
ATOM      6  C6  HPA d   1      37.169  21.197  17.030  0.00  0.00     0.298 A 
ATOM      7  O6  HPA d   1      36.551  21.492  15.973  0.00  0.00    -0.263 OA
ATOM      8  N7  HPA d   1      36.758  18.833  16.599  0.00  0.00    -0.343 N 
ATOM      9  C8  HPA d   1      37.049  17.798  17.290  0.00  0.00     0.067 A 
ATOM     10  N9  HPA d   1      37.756  18.066  18.332  0.00  0.00    -0.224 NA
ATOM     11  H   HPA d   1      38.861  22.287  19.719  0.00  0.00     0.143 H 
ATOM     12  H   HPA d   1      38.979  19.881  20.141  0.00  0.00     0.168 HD
ATOM     13  H   HPA d   1      36.257  18.867  15.711  0.00  0.00     0.167 HD
ATOM     14  H   HPA d   1      36.731  16.790  17.024  0.00  0.00     0.143 H 
ENDROOT
TORSDOF 0
