REMARK  15 active torsions:
REMARK  status: ('A' for Active; 'I' for Inactive)
REMARK    1  A    between atoms: C2_2  and  C1_1 
REMARK    2  A    between atoms: C1_1  and  N4_11 
REMARK    3  A    between atoms: N1_3  and  C2_2 
REMARK       I    between atoms: C3_14  and  N1_3 
REMARK    4  A    between atoms: C20_12  and  C21_13 
REMARK    5  A    between atoms: C4_16  and  C3_14 
REMARK    6  A    between atoms: C5_17  and  C4_16 
REMARK    7  A    between atoms: C5_17  and  C6_18 
REMARK    8  A    between atoms: C7_19  and  C5_17 
REMARK    9  A    between atoms: C6_18  and  C8_21 
REMARK   10  A    between atoms: C6_18  and  C9_22 
REMARK       I    between atoms: N2_24  and  C7_19 
REMARK   11  A    between atoms: C13_23  and  O5_25 
REMARK   12  A    between atoms: C10_26  and  C13_23 
REMARK   13  A    between atoms: N2_24  and  C10_26 
REMARK   14  A    between atoms: C10_26  and  C11_27 
REMARK   15  A    between atoms: C11_27  and  C12_28 
ROOT
ATOM      1  C4  3NS d   1      32.122   0.557  48.258  0.00  0.00     0.021 C 
ATOM      2  H   3NS d   1      31.908  -0.173  47.478  0.00  0.00     0.048 H 
ATOM      3  H   3NS d   1      32.380   0.045  49.185  0.00  0.00     0.048 H 
ENDROOT
BRANCH   1   4
ATOM      4  C3  3NS d   1      30.887   1.424  48.488  0.00  0.00     0.218 C 
ATOM      5  N1  3NS d   1      29.998   0.830  49.302  0.00  0.00    -0.359 N 
ATOM      6  H   3NS d   1      30.239  -0.057  49.744  0.00  0.00     0.162 HD
ATOM      7  O1  3NS d   1      30.787   2.561  48.043  0.00  0.00    -0.274 OA
BRANCH   5   8
ATOM      8  C2  3NS d   1      28.702   1.426  49.564  0.00  0.00     0.010 C 
ATOM      9  H   3NS d   1      28.752   2.498  49.370  0.00  0.00     0.066 H 
ATOM     10  H   3NS d   1      27.956   0.968  48.914  0.00  0.00     0.066 H 
BRANCH   8  11
ATOM     11  C1  3NS d   1      28.311   1.193  51.027  0.00  0.00     0.016 C 
ATOM     12  H   3NS d   1      29.075   1.649  51.657  0.00  0.00     0.067 H 
ATOM     13  H   3NS d   1      28.228   0.118  51.187  0.00  0.00     0.067 H 
BRANCH  11  14
ATOM     14  N4  3NS d   1      27.010   1.808  51.368  0.00  0.00    -0.332 N 
ATOM     15  C19 3NS d   1      26.745   3.167  51.249  0.00  0.00     0.065 A 
ATOM     16  C14 3NS d   1      25.398   3.375  51.654  0.00  0.00     0.085 A 
ATOM     17  C18 3NS d   1      27.502   4.241  50.862  0.00  0.00    -0.055 A 
ATOM     18  C15 3NS d   1      24.856   4.629  51.604  0.00  0.00    -0.053 A 
ATOM     19  N3  3NS d   1      24.876   2.138  51.973  0.00  0.00    -0.234 NA
ATOM     20  C16 3NS d   1      25.628   5.713  51.194  0.00  0.00    -0.081 A 
ATOM     21  H   3NS d   1      23.814   4.781  51.886  0.00  0.00     0.087 H 
ATOM     22  C17 3NS d   1      26.952   5.518  50.810  0.00  0.00    -0.081 A 
ATOM     23  H   3NS d   1      25.196   6.713  51.174  0.00  0.00     0.083 H 
ATOM     24  H   3NS d   1      27.554   6.361  50.471  0.00  0.00     0.083 H 
ATOM     25  C20 3NS d   1      25.860   1.247  51.783  0.00  0.00     0.103 A 
ATOM     26  H   3NS d   1      28.548   4.093  50.592  0.00  0.00     0.087 H 
BRANCH  25  27
ATOM     27  C21 3NS d   1      25.649  -0.246  51.947  0.00  0.00    -0.021 C 
ATOM     28  H   3NS d   1      25.329  -0.457  52.968  0.00  0.00     0.037 H 
ATOM     29  H   3NS d   1      24.883  -0.582  51.248  0.00  0.00     0.037 H 
ATOM     30  H   3NS d   1      26.584  -0.768  51.743  0.00  0.00     0.037 H 
ENDBRANCH  25  27
ENDBRANCH  11  14
ENDBRANCH   8  11
ENDBRANCH   5   8
ENDBRANCH   1   4
BRANCH   1  31
ATOM     31  C5  3NS d   1      33.307   1.437  47.818  0.00  0.00     0.034 C 
ATOM     32  H   3NS d   1      33.138   2.458  48.160  0.00  0.00     0.055 H 
BRANCH  31  33
ATOM     33  C6  3NS d   1      34.632   1.033  48.511  0.00  0.00    -0.049 C 
ATOM     34  H   3NS d   1      35.432   1.431  47.886  0.00  0.00     0.040 H 
BRANCH  33  35
ATOM     35  C8  3NS d   1      34.894  -0.486  48.562  0.00  0.00    -0.072 C 
ATOM     36  H   3NS d   1      34.089  -0.974  49.111  0.00  0.00     0.028 H 
ATOM     37  H   3NS d   1      34.935  -0.881  47.547  0.00  0.00     0.028 H 
ATOM     38  H   3NS d   1      35.843  -0.673  49.065  0.00  0.00     0.028 H 
ENDBRANCH  33  35
BRANCH  33  39
ATOM     39  C9  3NS d   1      34.706   1.660  49.917  0.00  0.00    -0.072 C 
ATOM     40  H   3NS d   1      34.662   2.746  49.832  0.00  0.00     0.028 H 
ATOM     41  H   3NS d   1      33.866   1.307  50.516  0.00  0.00     0.028 H 
ATOM     42  H   3NS d   1      35.642   1.369  50.394  0.00  0.00     0.028 H 
ENDBRANCH  33  39
ENDBRANCH  31  33
BRANCH  31  43
ATOM     43  C7  3NS d   1      33.376   1.501  46.282  0.00  0.00     0.223 C 
ATOM     44  O2  3NS d   1      32.701   0.760  45.564  0.00  0.00    -0.273 OA
ATOM     45  N2  3NS d   1      34.206   2.455  45.827  0.00  0.00    -0.354 N 
ATOM     46  H   3NS d   1      34.727   3.006  46.510  0.00  0.00     0.163 HD
BRANCH  45  47
ATOM     47  C10 3NS d   1      34.405   2.748  44.409  0.00  0.00     0.041 C 
ATOM     48  H   3NS d   1      34.192   1.873  43.794  0.00  0.00     0.076 H 
BRANCH  47  49
ATOM     49  C13 3NS d   1      35.864   3.158  44.187  0.00  0.00     0.036 C 
ATOM     50  H   3NS d   1      35.937   3.659  43.222  0.00  0.00     0.077 H 
ATOM     51  H   3NS d   1      36.165   3.813  45.005  0.00  0.00     0.077 H 
BRANCH  49  52
ATOM     52  O5  3NS d   1      36.728   2.033  44.173  0.00  0.00    -0.399 OA
ATOM     53  H   3NS d   1      36.468   1.440  43.464  0.00  0.00     0.209 HD
ENDBRANCH  49  52
ENDBRANCH  47  49
BRANCH  47  54
ATOM     54  C11 3NS d   1      33.452   3.888  44.014  0.00  0.00     0.036 C 
ATOM     55  H   3NS d   1      33.934   4.832  44.271  0.00  0.00     0.052 H 
ATOM     56  H   3NS d   1      32.512   3.738  44.545  0.00  0.00     0.052 H 
BRANCH  54  57
ATOM     57  C12 3NS d   1      33.147   3.908  42.516  0.00  0.00     0.174 C 
ATOM     58  O3  3NS d   1      32.367   3.122  42.039  0.00  0.00    -0.648 OA
ATOM     59  O4  3NS d   1      33.586   4.857  41.876  0.00  0.00    -0.648 OA
ENDBRANCH  54  57
ENDBRANCH  47  54
ENDBRANCH  45  47
ENDBRANCH  31  43
ENDBRANCH   1  31
TORSDOF 15
