REMARK  13 active torsions:
REMARK  status: ('A' for Active; 'I' for Inactive)
REMARK    1  A    between atoms: C5_5  and  N18_18 
REMARK    2  A    between atoms: C8_8  and  C26_26 
REMARK    3  A    between atoms: N10_10  and  C11_11 
REMARK    4  A    between atoms: C11_11  and  C12_12 
REMARK    5  A    between atoms: N18_18  and  C19_19 
REMARK    6  A    between atoms: C19_19  and  C20_20 
REMARK    7  A    between atoms: C19_19  and  C23_23 
REMARK    8  A    between atoms: C20_20  and  C21_21 
REMARK    9  A    between atoms: C20_20  and  O25_25 
REMARK   10  A    between atoms: C21_21  and  O22_22 
REMARK   11  A    between atoms: C23_23  and  O24_24 
REMARK   12  A    between atoms: C26_26  and  C27_27 
REMARK   13  A    between atoms: C26_26  and  C28_28 
ROOT
ATOM      1  N1  NS9 d   1       1.643  -4.801 -29.255  0.00  0.00    -0.176 NA
ATOM      2  N2  NS9 d   1       1.525  -5.940 -28.713  0.00  0.00    -0.199 N 
ATOM      3  C3  NS9 d   1       2.442  -6.966 -28.596  0.00  0.00     0.131 A 
ATOM      4  C4  NS9 d   1       2.080  -8.099 -27.833  0.00  0.00     0.005 A 
ATOM      5  C5  NS9 d   1       0.766  -8.202 -27.237  0.00  0.00     0.130 A 
ATOM      6  N6  NS9 d   1      -0.135  -7.161 -27.320  0.00  0.00    -0.211 NA
ATOM      7  C7  NS9 d   1       0.253  -6.065 -28.056  0.00  0.00     0.163 A 
ATOM      8  C8  NS9 d   1      -0.364  -4.851 -28.380  0.00  0.00     0.013 A 
ATOM      9  C9  NS9 d   1       0.503  -4.116 -29.101  0.00  0.00     0.032 A 
ATOM     10  N10 NS9 d   1       3.652  -6.804 -29.188  0.00  0.00    -0.370 N 
ATOM     11  H1  NS9 d   1       2.799  -8.905 -27.692  0.00  0.00     0.095 H 
ATOM     12  H2  NS9 d   1       0.308  -3.120 -29.497  0.00  0.00     0.118 H 
ATOM     13  H3  NS9 d   1       3.799  -5.996 -29.810  0.00  0.00     0.161 HD
ENDROOT
BRANCH   5  14
ATOM     14  N18 NS9 d   1       0.492  -9.312 -26.519  0.00  0.00    -0.365 N 
ATOM     15  H11 NS9 d   1       1.243  -9.987 -26.317  0.00  0.00     0.161 HD
BRANCH  14  16
ATOM     16  C19 NS9 d   1      -0.902  -9.572 -26.010  0.00  0.00     0.058 C 
ATOM     17  H12 NS9 d   1      -1.614  -8.983 -26.607  0.00  0.00     0.079 H 
BRANCH  16  18
ATOM     18  C20 NS9 d   1      -1.083  -9.212 -24.550  0.00  0.00     0.077 C 
ATOM     19  H13 NS9 d   1      -0.422  -9.860 -23.956  0.00  0.00     0.089 H 
BRANCH  18  20
ATOM     20  C21 NS9 d   1      -0.731  -7.724 -24.180  0.00  0.00     0.042 C 
ATOM     21  H14 NS9 d   1       0.319  -7.503 -24.423  0.00  0.00     0.077 H 
ATOM     22  H15 NS9 d   1      -0.907  -7.539 -23.110  0.00  0.00     0.077 H 
BRANCH  20  23
ATOM     23  O22 NS9 d   1      -1.592  -6.946 -24.962  0.00  0.00    -0.398 OA
ATOM     24  H16 NS9 d   1      -1.434  -7.127 -25.881  0.00  0.00     0.209 HD
ENDBRANCH  20  23
ENDBRANCH  18  20
BRANCH  18  25
ATOM     25  O25 NS9 d   1      -2.485  -9.519 -24.210  0.00  0.00    -0.391 OA
ATOM     26  H20 NS9 d   1      -2.618  -9.395 -23.277  0.00  0.00     0.210 HD
ENDBRANCH  18  25
ENDBRANCH  16  18
BRANCH  16  27
ATOM     27  C23 NS9 d   1      -1.195 -11.098 -26.193  0.00  0.00     0.038 C 
ATOM     28  H17 NS9 d   1      -1.520 -11.281 -27.228  0.00  0.00     0.077 H 
ATOM     29  H18 NS9 d   1      -1.994 -11.397 -25.499  0.00  0.00     0.077 H 
BRANCH  27  30
ATOM     30  O24 NS9 d   1      -0.009 -11.887 -25.921  0.00  0.00    -0.399 OA
ATOM     31  H19 NS9 d   1       0.274 -11.734 -25.027  0.00  0.00     0.209 HD
ENDBRANCH  27  30
ENDBRANCH  16  27
ENDBRANCH  14  16
ENDBRANCH   5  14
BRANCH  10  32
ATOM     32  C11 NS9 d   1       4.783  -7.764 -28.966  0.00  0.00     0.018 C 
ATOM     33  H4  NS9 d   1       4.695  -8.211 -27.965  0.00  0.00     0.071 H 
ATOM     34  H5  NS9 d   1       5.741  -7.229 -29.046  0.00  0.00     0.071 H 
BRANCH  32  35
ATOM     35  C12 NS9 d   1       4.723  -8.855 -30.014  0.00  0.00    -0.041 A 
ATOM     36  C13 NS9 d   1       4.735  -8.486 -31.365  0.00  0.00    -0.075 A 
ATOM     37  C14 NS9 d   1       4.681  -9.450 -32.365  0.00  0.00    -0.082 A 
ATOM     38  H6  NS9 d   1       4.787  -7.437 -31.634  0.00  0.00     0.084 H 
ATOM     39  C15 NS9 d   1       4.615 -10.813 -32.008  0.00  0.00    -0.083 A 
ATOM     40  H7  NS9 d   1       4.689  -9.157 -33.409  0.00  0.00     0.083 H 
ATOM     41  C16 NS9 d   1       4.622 -11.141 -30.674  0.00  0.00    -0.082 A 
ATOM     42  H8  NS9 d   1       4.560 -11.584 -32.768  0.00  0.00     0.083 H 
ATOM     43  C17 NS9 d   1       4.665 -10.190 -29.646  0.00  0.00    -0.075 A 
ATOM     44  H9  NS9 d   1       4.593 -12.190 -30.403  0.00  0.00     0.083 H 
ATOM     45  H10 NS9 d   1       4.653 -10.487 -28.604  0.00  0.00     0.084 H 
ENDBRANCH  32  35
ENDBRANCH  10  32
BRANCH   8  46
ATOM     46  C26 NS9 d   1      -1.746  -4.411 -27.963  0.00  0.00    -0.030 C 
ATOM     47  H21 NS9 d   1      -2.002  -3.510 -28.540  0.00  0.00     0.046 H 
BRANCH  46  48
ATOM     48  C27 NS9 d   1      -1.753  -4.071 -26.449  0.00  0.00    -0.069 C 
ATOM     49  H22 NS9 d   1      -2.762  -3.751 -26.150  0.00  0.00     0.028 H 
ATOM     50  H23 NS9 d   1      -1.037  -3.259 -26.252  0.00  0.00     0.028 H 
ATOM     51  H24 NS9 d   1      -1.465  -4.962 -25.872  0.00  0.00     0.028 H 
ENDBRANCH  46  48
BRANCH  46  52
ATOM     52  C28 NS9 d   1      -2.867  -5.487 -28.199  0.00  0.00    -0.069 C 
ATOM     53  H25 NS9 d   1      -2.897  -5.758 -29.265  0.00  0.00     0.028 H 
ATOM     54  H26 NS9 d   1      -3.841  -5.074 -27.898  0.00  0.00     0.028 H 
ATOM     55  H27 NS9 d   1      -2.648  -6.383 -27.599  0.00  0.00     0.028 H 
ENDBRANCH  46  52
ENDBRANCH   8  46
TORSDOF 13
