REMARK  15 active torsions:
REMARK  status: ('A' for Active; 'I' for Inactive)
REMARK    1  A    between atoms: C1_1  and  C2_2 
REMARK       I    between atoms: C2_2  and  N3_3 
REMARK    2  A    between atoms: N3_3  and  C4_4 
REMARK    3  A    between atoms: C4_4  and  C5_5 
REMARK    4  A    between atoms: C4_4  and  C20_20 
REMARK    5  A    between atoms: C5_5  and  C6_6 
REMARK    6  A    between atoms: C5_5  and  O29_29 
REMARK    7  A    between atoms: C6_6  and  N7_7 
REMARK    8  A    between atoms: N7_7  and  C8_8 
REMARK    9  A    between atoms: C8_8  and  C9_9 
REMARK   10  A    between atoms: C11_11  and  C14_14 
REMARK   11  A    between atoms: C14_14  and  C15_15 
REMARK   12  A    between atoms: C15_15  and  C16_16 
REMARK   13  A    between atoms: C15_15  and  C17_17 
REMARK   14  A    between atoms: C15_15  and  C18_18 
REMARK   15  A    between atoms: C20_20  and  C21_21 
ROOT
ATOM      1  N7  957 d   1      -3.258  30.154  35.391  0.00  0.00    -0.059 N 
ATOM      2  H9  957 d   1      -3.428  29.483  34.658  0.00  0.00     0.278 HD
ATOM      3  H10 957 d   1      -4.138  30.475  35.763  0.00  0.00     0.278 HD
ENDROOT
BRANCH   1   4
ATOM      4  C6  957 d   1      -2.565  31.295  34.813  0.00  0.00     0.108 C 
ATOM      5  H7  957 d   1      -1.976  31.805  35.589  0.00  0.00     0.079 H 
ATOM      6  H8  957 d   1      -1.895  30.956  34.009  0.00  0.00     0.079 H 
BRANCH   4   7
ATOM      7  C5  957 d   1      -3.605  32.245  34.249  0.00  0.00     0.078 C 
ATOM      8  H6  957 d   1      -3.967  31.838  33.293  0.00  0.00     0.088 H 
BRANCH   7   9
ATOM      9  C4  957 d   1      -3.101  33.638  34.005  0.00  0.00     0.042 C 
ATOM     10  H5  957 d   1      -2.828  34.108  34.961  0.00  0.00     0.077 H 
BRANCH   9  11
ATOM     11  N3  957 d   1      -1.948  33.527  33.146  0.00  0.00    -0.354 N 
ATOM     12  C2  957 d   1      -0.705  33.673  33.601  0.00  0.00     0.214 C 
ATOM     13  O19 957 d   1      -0.463  33.792  34.800  0.00  0.00    -0.274 OA
ATOM     14  H4  957 d   1      -2.087  33.334  32.175  0.00  0.00     0.162 HD
BRANCH  12  15
ATOM     15  C1  957 d   1       0.383  33.666  32.571  0.00  0.00    -0.003 C 
ATOM     16  H1  957 d   1       1.357  33.794  33.066  0.00  0.00     0.040 H 
ATOM     17  H2  957 d   1       0.222  34.491  31.861  0.00  0.00     0.040 H 
ATOM     18  H3  957 d   1       0.369  32.709  32.030  0.00  0.00     0.040 H 
ENDBRANCH  12  15
ENDBRANCH   9  11
BRANCH   9  19
ATOM     19  C20 957 d   1      -4.124  34.487  33.296  0.00  0.00    -0.020 C 
ATOM     20  H24 957 d   1      -5.004  34.642  33.937  0.00  0.00     0.043 H 
ATOM     21  H25 957 d   1      -4.435  34.008  32.356  0.00  0.00     0.043 H 
BRANCH  19  22
ATOM     22  C21 957 d   1      -3.427  35.827  33.010  0.00  0.00    -0.050 A 
ATOM     23  C22 957 d   1      -3.321  36.284  31.691  0.00  0.00    -0.039 A 
ATOM     24  C23 957 d   1      -2.670  37.490  31.438  0.00  0.00     0.119 A 
ATOM     25  H26 957 d   1      -3.741  35.706  30.875  0.00  0.00     0.089 H 
ATOM     26  C24 957 d   1      -2.104  38.227  32.476  0.00  0.00    -0.009 A 
ATOM     27  F27 957 d   1      -2.544  38.056  30.110  0.00  0.00    -0.206 F 
ATOM     28  C25 957 d   1      -2.201  37.770  33.790  0.00  0.00     0.119 A 
ATOM     29  H27 957 d   1      -1.588  39.156  32.262  0.00  0.00     0.092 H 
ATOM     30  C26 957 d   1      -2.876  36.565  34.057  0.00  0.00    -0.039 A 
ATOM     31  F28 957 d   1      -1.571  38.643  34.831  0.00  0.00    -0.206 F 
ATOM     32  H28 957 d   1      -2.968  36.210  35.077  0.00  0.00     0.089 H 
ENDBRANCH  19  22
ENDBRANCH   9  19
ENDBRANCH   7   9
BRANCH   7  33
ATOM     33  O29 957 d   1      -4.677  32.302  35.180  0.00  0.00    -0.392 OA
ATOM     34  H29 957 d   1      -5.347  32.891  34.854  0.00  0.00     0.210 HD
ENDBRANCH   7  33
ENDBRANCH   4   7
ENDBRANCH   1   4
BRANCH   1  35
ATOM     35  C8  957 d   1      -2.515  29.474  36.478  0.00  0.00     0.159 A 
ATOM     36  C30 957 d   1      -1.231  28.709  36.121  0.00  0.00    -0.027 A 
ATOM     37  C31 957 d   1      -2.477  27.945  36.596  0.00  0.00    -0.027 A 
ATOM     38  H30 957 d   1      -0.348  28.781  36.773  0.00  0.00     0.037 H 
ATOM     39  H31 957 d   1      -0.907  28.636  35.072  0.00  0.00     0.037 H 
ATOM     40  H32 957 d   1      -3.045  27.325  35.887  0.00  0.00     0.037 H 
ATOM     41  H33 957 d   1      -2.486  27.470  37.588  0.00  0.00     0.037 H 
BRANCH  35  42
ATOM     42  C9  957 d   1      -2.460  30.215  37.780  0.00  0.00     0.019 A 
ATOM     43  C10 957 d   1      -3.550  30.816  38.351  0.00  0.00    -0.061 A 
ATOM     44  C11 957 d   1      -3.209  31.476  39.548  0.00  0.00    -0.050 A 
ATOM     45  H11 957 d   1      -4.555  30.787  37.932  0.00  0.00     0.086 H 
ATOM     46  C12 957 d   1      -1.855  31.421  39.852  0.00  0.00    -0.038 A 
ATOM     47  S13 957 d   1      -1.007  30.530  38.633  0.00  0.00    -0.103 SA
ATOM     48  H12 957 d   1      -1.394  31.872  40.729  0.00  0.00     0.095 H 
BRANCH  44  49
ATOM     49  C14 957 d   1      -4.219  32.209  40.383  0.00  0.00    -0.035 C 
ATOM     50  H13 957 d   1      -4.950  32.664  39.698  0.00  0.00     0.041 H 
ATOM     51  H14 957 d   1      -3.687  33.001  40.930  0.00  0.00     0.041 H 
BRANCH  49  52
ATOM     52  C15 957 d   1      -4.986  31.394  41.392  0.00  0.00    -0.048 C 
BRANCH  52  53
ATOM     53  C16 957 d   1      -4.031  30.841  42.438  0.00  0.00    -0.069 C 
ATOM     54  H15 957 d   1      -4.595  30.247  43.172  0.00  0.00     0.028 H 
ATOM     55  H16 957 d   1      -3.526  31.673  42.950  0.00  0.00     0.028 H 
ATOM     56  H17 957 d   1      -3.281  30.203  41.949  0.00  0.00     0.028 H 
ENDBRANCH  52  53
BRANCH  52  57
ATOM     57  C17 957 d   1      -5.790  30.328  40.649  0.00  0.00    -0.069 C 
ATOM     58  H18 957 d   1      -6.451  30.812  39.916  0.00  0.00     0.028 H 
ATOM     59  H19 957 d   1      -6.396  29.758  41.369  0.00  0.00     0.028 H 
ATOM     60  H20 957 d   1      -5.102  29.646  40.128  0.00  0.00     0.028 H 
ENDBRANCH  52  57
BRANCH  52  61
ATOM     61  C18 957 d   1      -5.929  32.299  42.192  0.00  0.00    -0.069 C 
ATOM     62  H21 957 d   1      -5.342  33.062  42.723  0.00  0.00     0.028 H 
ATOM     63  H22 957 d   1      -6.487  31.694  42.921  0.00  0.00     0.028 H 
ATOM     64  H23 957 d   1      -6.635  32.791  41.506  0.00  0.00     0.028 H 
ENDBRANCH  52  61
ENDBRANCH  49  52
ENDBRANCH  44  49
ENDBRANCH  35  42
ENDBRANCH   1  35
TORSDOF 15
