REMARK  2 active torsions:
REMARK  status: ('A' for Active; 'I' for Inactive)
REMARK    1  A    between atoms: CAK_7  and  OAC_8 
REMARK    2  A    between atoms: CAL_17  and  OAD_18 
ROOT
ATOM      1  OAA CHZ d   1      52.709 -16.092   6.992  0.00  0.00    -0.287 OA
ATOM      2  CAM CHZ d   1      53.536 -16.478   7.816  0.00  0.00     0.194 A 
ATOM      3  CAO CHZ d   1      54.496 -17.418   7.459  0.00  0.00     0.032 A 
ATOM      4  CAI CHZ d   1      54.529 -17.929   6.167  0.00  0.00    -0.068 A 
ATOM      5  CAE CHZ d   1      55.490 -18.871   5.816  0.00  0.00    -0.079 A 
ATOM      6  CAG CHZ d   1      56.420 -19.300   6.755  0.00  0.00    -0.050 A 
ATOM      7  CAK CHZ d   1      56.384 -18.784   8.045  0.00  0.00     0.080 A 
ATOM      8  CAQ CHZ d   1      55.426 -17.846   8.397  0.00  0.00     0.062 A 
ATOM      9  CAN CHZ d   1      55.401 -17.339   9.691  0.00  0.00     0.199 A 
ATOM     10  OAB CHZ d   1      56.226 -17.720  10.522  0.00  0.00    -0.286 OA
ATOM     11  CAR CHZ d   1      54.440 -16.399  10.045  0.00  0.00     0.062 A 
ATOM     12  CAP CHZ d   1      53.510 -15.969   9.107  0.00  0.00     0.032 A 
ATOM     13  CAJ CHZ d   1      52.548 -15.031   9.456  0.00  0.00    -0.068 A 
ATOM     14  CAF CHZ d   1      52.520 -14.523  10.746  0.00  0.00    -0.079 A 
ATOM     15  CAH CHZ d   1      53.450 -14.950  11.686  0.00  0.00    -0.050 A 
ATOM     16  CAL CHZ d   1      54.412 -15.889  11.336  0.00  0.00     0.080 A 
ATOM     17  H   CHZ d   1      53.802 -17.591   5.429  0.00  0.00     0.085 H 
ATOM     18  H   CHZ d   1      55.514 -19.273   4.803  0.00  0.00     0.083 H 
ATOM     19  H   CHZ d   1      57.174 -20.038   6.481  0.00  0.00     0.087 H 
ATOM     20  H   CHZ d   1      51.818 -14.695   8.719  0.00  0.00     0.085 H 
ATOM     21  H   CHZ d   1      51.766 -13.786  11.024  0.00  0.00     0.083 H 
ATOM     22  H   CHZ d   1      53.425 -14.548  12.699  0.00  0.00     0.087 H 
ENDROOT
BRANCH   7  23
ATOM     23  OAC CHZ d   1      57.286 -19.194   8.970  0.00  0.00    -0.360 OA
ATOM     24  H   CHZ d   1      57.120 -18.741   9.800  0.00  0.00     0.217 HD
ENDBRANCH   7  23
BRANCH  16  25
ATOM     25  OAD CHZ d   1      55.325 -16.308  12.254  0.00  0.00    -0.360 OA
ATOM     26  H   CHZ d   1      55.911 -16.952  11.850  0.00  0.00     0.217 HD
ENDBRANCH  16  25
TORSDOF 2
