REMARK  27 active torsions:
REMARK  status: ('A' for Active; 'I' for Inactive)
REMARK    1  A    between atoms: N_1  and  CA_2 
REMARK    2  A    between atoms: CA_2  and  C_3 
REMARK    3  A    between atoms: CA_2  and  CB_5 
REMARK       I    between atoms: C_3  and  N_6 
REMARK    4  A    between atoms: N_6  and  CA_7 
REMARK    5  A    between atoms: CA_7  and  C_8 
REMARK    6  A    between atoms: CA_7  and  CB_10 
REMARK       I    between atoms: C_8  and  N_17 
REMARK    7  A    between atoms: CB_10  and  CG_11 
REMARK    8  A    between atoms: CG_11  and  CD_12 
REMARK    9  A    between atoms: CD_12  and  NE_13 
REMARK       I    between atoms: NE_13  and  CZ_14 
REMARK       I    between atoms: CZ_14  and  NH1_15 
REMARK       I    between atoms: CZ_14  and  NH2_16 
REMARK   10  A    between atoms: N_17  and  CA_18 
REMARK   11  A    between atoms: CA_18  and  C_19 
REMARK       I    between atoms: C_19  and  N_21 
REMARK   12  A    between atoms: N_21  and  CA_22 
REMARK   13  A    between atoms: CA_22  and  CB_23 
REMARK   14  A    between atoms: CA_22  and  C_32 
REMARK   15  A    between atoms: CB_23  and  CG_24 
REMARK   16  A    between atoms: CG_24  and  CD_25 
REMARK   17  A    between atoms: CD_25  and  NE_26 
REMARK       I    between atoms: NE_26  and  CZ_27 
REMARK       I    between atoms: CZ_27  and  NH1_28 
REMARK   18  A    between atoms: NH1_28  and  CQ1_29 
REMARK   19  A    between atoms: NH2_30  and  CQ2_31 
REMARK       I    between atoms: C_32  and  N_34 
REMARK   20  A    between atoms: N_34  and  CA_35 
REMARK   21  A    between atoms: CA_35  and  C_36 
REMARK       I    between atoms: C_36  and  N_38 
REMARK   22  A    between atoms: N_38  and  CA_39 
REMARK   23  A    between atoms: CA_39  and  C_40 
REMARK   24  A    between atoms: CA_39  and  CB_42 
REMARK   25  A    between atoms: CB_42  and  CG_43 
REMARK   26  A    between atoms: CG_43  and  CD_44 
REMARK   27  A    between atoms: CD_44  and  NE_45 
REMARK       I    between atoms: NE_45  and  CZ_46 
REMARK       I    between atoms: CZ_46  and  NH1_47 
REMARK       I    between atoms: CZ_46  and  NH2_48 
ROOT
ATOM      1  CA  2MR d   1      25.620 -11.308   5.684  0.00  0.00     0.089 C 
ATOM      2  H   2MR d   1      25.088 -11.820   6.486  0.00  0.00     0.087 H 
ENDROOT
BRANCH   1   3
ATOM      3  N   2MR d   1      24.653 -10.373   5.139  0.00  0.00    -0.346 N 
ATOM      4  C   GLY d   1      23.573 -10.021   5.831  0.00  0.00     0.236 C 
ATOM      5  O   GLY d   1      23.323 -10.435   6.959  0.00  0.00    -0.272 OA
ATOM      6  H   2MR d   1      24.804  -9.979   4.210  0.00  0.00     0.163 HD
BRANCH   4   7
ATOM      7  CA  GLY d   1      22.645  -9.056   5.152  0.00  0.00     0.069 C 
ATOM      8  H   GLY d   1      21.680  -9.043   5.659  0.00  0.00     0.078 H 
ATOM      9  H   GLY d   1      23.060  -8.049   5.187  0.00  0.00     0.078 H 
BRANCH   7  10
ATOM     10  N   GLY d   1      22.481  -9.479   3.781  0.00  0.00    -0.351 N 
ATOM     11  C   ARG d   1      22.022 -10.693   3.489  0.00  0.00     0.240 C 
ATOM     12  O   ARG d   1      21.689 -11.523   4.339  0.00  0.00    -0.271 OA
ATOM     13  H   GLY d   1      22.721  -8.837   3.025  0.00  0.00     0.163 HD
BRANCH  11  14
ATOM     14  CA  ARG d   1      21.884 -10.981   2.009  0.00  0.00     0.089 C 
ATOM     15  H   ARG d   1      22.045  -9.996   1.571  0.00  0.00     0.087 H 
BRANCH  14  16
ATOM     16  N   ARG d   1      22.877 -11.775   1.329  0.00  0.00    -0.346 N 
ATOM     17  C   ALA d   1      22.926 -11.702  -0.003  0.00  0.00     0.248 C 
ATOM     18  O   ALA d   1      22.210 -10.949  -0.649  0.00  0.00    -0.271 OA
ATOM     19  H   ARG d   1      23.520 -12.372   1.848  0.00  0.00     0.163 HD
BRANCH  17  20
ATOM     20  CA  ALA d   1      23.956 -12.553  -0.701  0.00  0.00     0.172 C 
ATOM     21  H   ALA d   1      23.609 -13.585  -0.759  0.00  0.00     0.098 H 
BRANCH  20  22
ATOM     22  N   ALA d   1      24.169 -12.050  -2.099  0.00  0.00    -0.067 N 
ATOM     23  H   ALA d   1      23.287 -12.088  -2.611  0.00  0.00     0.275 HD
ATOM     24  H   ALA d   1      24.503 -11.087  -2.065  0.00  0.00     0.275 HD
ATOM     25  H   ALA d   1      24.861 -12.635  -2.568  0.00  0.00     0.275 HD
ENDBRANCH  20  22
BRANCH  20  26
ATOM     26  CB  ALA d   1      25.253 -12.510   0.091  0.00  0.00    -0.042 C 
ATOM     27  H   ALA d   1      25.606 -11.481   0.152  0.00  0.00     0.030 H 
ATOM     28  H   ALA d   1      25.077 -12.895   1.095  0.00  0.00     0.030 H 
ATOM     29  H   ALA d   1      26.003 -13.124  -0.408  0.00  0.00     0.030 H 
ENDBRANCH  20  26
ENDBRANCH  17  20
ENDBRANCH  14  16
BRANCH  14  30
ATOM     30  CB  ARG d   1      20.514 -11.579   1.751  0.00  0.00    -0.036 C 
ATOM     31  H   ARG d   1      20.206 -12.116   2.648  0.00  0.00     0.036 H 
ATOM     32  H   ARG d   1      20.589 -12.232   0.882  0.00  0.00     0.036 H 
BRANCH  30  33
ATOM     33  CG  ARG d   1      19.478 -10.529   1.457  0.00  0.00    -0.048 C 
ATOM     34  H   ARG d   1      18.815 -10.451   2.319  0.00  0.00     0.035 H 
ATOM     35  H   ARG d   1      18.939 -10.823   0.556  0.00  0.00     0.035 H 
BRANCH  33  36
ATOM     36  CD  ARG d   1      20.102  -9.176   1.216  0.00  0.00     0.009 C 
ATOM     37  H   ARG d   1      21.146  -9.326   0.940  0.00  0.00     0.064 H 
ATOM     38  H   ARG d   1      20.003  -8.587   2.128  0.00  0.00     0.064 H 
BRANCH  36  39
ATOM     39  NE  ARG d   1      19.441  -8.456   0.132  0.00  0.00    -0.227 N 
ATOM     40  CZ  ARG d   1      19.921  -7.349  -0.429  0.00  0.00     0.665 C 
ATOM     41  NH1 ARG d   1      21.068  -6.830  -0.001  0.00  0.00    -0.235 N 
ATOM     42  NH2 ARG d   1      19.270  -6.777  -1.437  0.00  0.00    -0.235 N 
ATOM     43  H   ARG d   1      21.580  -7.280   0.757  0.00  0.00     0.174 HD
ATOM     44  H   ARG d   1      21.436  -5.981  -0.431  0.00  0.00     0.174 HD
ATOM     45  H   ARG d   1      18.402  -7.187  -1.781  0.00  0.00     0.174 HD
ATOM     46  H   ARG d   1      19.639  -5.928  -1.866  0.00  0.00     0.174 HD
ATOM     47  H   ARG d   1      18.556  -8.824  -0.217  0.00  0.00     0.177 HD
ENDBRANCH  36  39
ENDBRANCH  33  36
ENDBRANCH  30  33
ENDBRANCH  14  30
ENDBRANCH  11  14
ENDBRANCH   7  10
ENDBRANCH   4   7
ENDBRANCH   1   3
BRANCH   1  48
ATOM     48  CB  2MR d   1      26.062 -12.290   4.601  0.00  0.00    -0.036 C 
ATOM     49  H   2MR d   1      27.049 -12.657   4.883  0.00  0.00     0.036 H 
ATOM     50  H   2MR d   1      26.039 -11.754   3.652  0.00  0.00     0.036 H 
BRANCH  48  51
ATOM     51  CG  2MR d   1      25.153 -13.509   4.453  0.00  0.00    -0.048 C 
ATOM     52  H   2MR d   1      25.477 -14.068   3.575  0.00  0.00     0.035 H 
ATOM     53  H   2MR d   1      24.126 -13.155   4.364  0.00  0.00     0.035 H 
BRANCH  51  54
ATOM     54  CD  2MR d   1      25.229 -14.444   5.665  0.00  0.00     0.009 C 
ATOM     55  H   2MR d   1      24.860 -13.899   6.534  0.00  0.00     0.064 H 
ATOM     56  H   2MR d   1      26.265 -14.762   5.780  0.00  0.00     0.064 H 
BRANCH  54  57
ATOM     57  NE  2MR d   1      24.404 -15.645   5.502  0.00  0.00    -0.227 N 
ATOM     58  CZ  2MR d   1      24.185 -16.553   6.455  0.00  0.00     0.668 C 
ATOM     59  NH1 2MR d   1      24.728 -16.401   7.650  0.00  0.00    -0.231 N 
ATOM     60  NH2 2MR d   1      23.420 -17.621   6.224  0.00  0.00    -0.231 N 
ATOM     61  H   2MR d   1      25.592 -15.868   7.753  0.00  0.00     0.177 HD
ATOM     62  H   2MR d   1      23.205 -18.255   6.994  0.00  0.00     0.177 HD
ATOM     63  H   2MR d   1      23.965 -15.798   4.594  0.00  0.00     0.177 HD
BRANCH  59  64
ATOM     64  CQ1 2MR d   1      24.091 -16.997   8.828  0.00  0.00    -0.005 C 
ATOM     65  H   2MR d   1      23.087 -16.589   8.942  0.00  0.00     0.057 H 
ATOM     66  H   2MR d   1      24.034 -18.078   8.700  0.00  0.00     0.057 H 
ATOM     67  H   2MR d   1      24.681 -16.765   9.715  0.00  0.00     0.057 H 
ENDBRANCH  59  64
BRANCH  60  68
ATOM     68  CQ2 2MR d   1      22.877 -17.908   4.882  0.00  0.00    -0.005 C 
ATOM     69  H   2MR d   1      22.248 -17.078   4.561  0.00  0.00     0.057 H 
ATOM     70  H   2MR d   1      23.700 -18.035   4.178  0.00  0.00     0.057 H 
ATOM     71  H   2MR d   1      22.284 -18.822   4.919  0.00  0.00     0.057 H 
ENDBRANCH  60  68
ENDBRANCH  54  57
ENDBRANCH  51  54
ENDBRANCH  48  51
ENDBRANCH   1  48
BRANCH   1  72
ATOM     72  C   2MR d   1      26.838 -10.693   6.380  0.00  0.00     0.240 C 
ATOM     73  O   2MR d   1      26.899 -10.678   7.607  0.00  0.00    -0.271 OA
ATOM     74  N   GLY d   1      27.815 -10.194   5.635  0.00  0.00    -0.351 N 
ATOM     75  H   GLY d   1      27.760 -10.201   4.617  0.00  0.00     0.163 HD
BRANCH  74  76
ATOM     76  CA  GLY d   1      28.964  -9.638   6.322  0.00  0.00     0.069 C 
ATOM     77  H   GLY d   1      29.426 -10.476   6.843  0.00  0.00     0.078 H 
ATOM     78  H   GLY d   1      28.574  -8.819   6.926  0.00  0.00     0.078 H 
BRANCH  76  79
ATOM     79  C   GLY d   1      30.060  -9.033   5.479  0.00  0.00     0.236 C 
ATOM     80  O   GLY d   1      30.421  -9.566   4.428  0.00  0.00    -0.272 OA
ATOM     81  N   ARG d   1      30.593  -7.913   5.964  0.00  0.00    -0.345 N 
ATOM     82  H   ARG d   1      30.238  -7.548   6.847  0.00  0.00     0.163 HD
BRANCH  81  83
ATOM     83  CA  ARG d   1      31.664  -7.184   5.288  0.00  0.00     0.096 C 
ATOM     84  H   ARG d   1      32.186  -7.875   4.626  0.00  0.00     0.089 H 
BRANCH  83  85
ATOM     85  C   ARG d   1      32.651  -6.623   6.309  0.00  0.00     0.196 C 
ATOM     86  O   ARG d   1      32.865  -5.394   6.296  0.00  0.00    -0.646 OA
ATOM     87  OXT ARG d   1      33.198  -7.412   7.109  0.00  0.00    -0.646 OA
ENDBRANCH  83  85
BRANCH  83  88
ATOM     88  CB  ARG d   1      31.078  -6.032   4.469  0.00  0.00    -0.035 C 
ATOM     89  H   ARG d   1      31.376  -5.105   4.960  0.00  0.00     0.036 H 
ATOM     90  H   ARG d   1      30.000  -6.188   4.422  0.00  0.00     0.036 H 
BRANCH  88  91
ATOM     91  CG  ARG d   1      31.582  -5.963   3.040  0.00  0.00    -0.047 C 
ATOM     92  H   ARG d   1      32.670  -5.907   3.056  0.00  0.00     0.035 H 
ATOM     93  H   ARG d   1      31.152  -5.084   2.560  0.00  0.00     0.035 H 
BRANCH  91  94
ATOM     94  CD  ARG d   1      31.169  -7.198   2.255  0.00  0.00     0.009 C 
ATOM     95  H   ARG d   1      31.721  -8.051   2.649  0.00  0.00     0.064 H 
ATOM     96  H   ARG d   1      31.386  -7.020   1.202  0.00  0.00     0.064 H 
BRANCH  94  97
ATOM     97  NE  ARG d   1      29.740  -7.480   2.385  0.00  0.00    -0.227 N 
ATOM     98  CZ  ARG d   1      28.770  -6.656   2.000  0.00  0.00     0.665 C 
ATOM     99  NH1 ARG d   1      29.066  -5.485   1.454  0.00  0.00    -0.235 N 
ATOM    100  NH2 ARG d   1      27.499  -7.001   2.166  0.00  0.00    -0.235 N 
ATOM    101  H   ARG d   1      30.041  -5.213   1.328  0.00  0.00     0.174 HD
ATOM    102  H   ARG d   1      28.319  -4.856   1.160  0.00  0.00     0.174 HD
ATOM    103  H   ARG d   1      27.265  -7.899   2.589  0.00  0.00     0.174 HD
ATOM    104  H   ARG d   1      26.756  -6.368   1.870  0.00  0.00     0.174 HD
ATOM    105  H   ARG d   1      29.468  -8.371   2.800  0.00  0.00     0.177 HD
ENDBRANCH  94  97
ENDBRANCH  91  94
ENDBRANCH  88  91
ENDBRANCH  83  88
ENDBRANCH  81  83
ENDBRANCH  76  79
ENDBRANCH  74  76
ENDBRANCH   1  72
TORSDOF 27
