REMARK  29 active torsions:
REMARK  status: ('A' for Active; 'I' for Inactive)
REMARK    1  A    between atoms: N_1  and  CA_2 
REMARK    2  A    between atoms: CA_2  and  C_3 
REMARK    3  A    between atoms: CA_2  and  CB_5 
REMARK       I    between atoms: C_3  and  N_12 
REMARK    4  A    between atoms: CB_5  and  CG_6 
REMARK    5  A    between atoms: CG_6  and  CD_7 
REMARK    6  A    between atoms: CD_7  and  NE_8 
REMARK       I    between atoms: NE_8  and  CZ_9 
REMARK       I    between atoms: CZ_9  and  NH1_10 
REMARK       I    between atoms: CZ_9  and  NH2_11 
REMARK    7  A    between atoms: N_12  and  CA_13 
REMARK    8  A    between atoms: CA_13  and  C_14 
REMARK       I    between atoms: C_14  and  N_16 
REMARK    9  A    between atoms: N_16  and  CA_17 
REMARK   10  A    between atoms: CA_17  and  C_18 
REMARK   11  A    between atoms: CA_17  and  CB_20 
REMARK       I    between atoms: C_18  and  N_27 
REMARK   12  A    between atoms: CB_20  and  CG_21 
REMARK   13  A    between atoms: CG_21  and  CD_22 
REMARK   14  A    between atoms: CD_22  and  NE_23 
REMARK       I    between atoms: NE_23  and  CZ_24 
REMARK       I    between atoms: CZ_24  and  NH1_25 
REMARK       I    between atoms: CZ_24  and  NH2_26 
REMARK   15  A    between atoms: N_27  and  CA_28 
REMARK   16  A    between atoms: CA_28  and  C_29 
REMARK       I    between atoms: C_29  and  N_31 
REMARK   17  A    between atoms: N_31  and  CA_32 
REMARK   18  A    between atoms: CA_32  and  CB_33 
REMARK   19  A    between atoms: CA_32  and  C_42 
REMARK   20  A    between atoms: CB_33  and  CG_34 
REMARK   21  A    between atoms: CG_34  and  CD_35 
REMARK   22  A    between atoms: CD_35  and  NE_36 
REMARK       I    between atoms: NE_36  and  CZ_37 
REMARK       I    between atoms: CZ_37  and  NH1_38 
REMARK   23  A    between atoms: NH1_38  and  CQ1_39 
REMARK   24  A    between atoms: NH2_40  and  CQ2_41 
REMARK       I    between atoms: C_42  and  N_44 
REMARK   25  A    between atoms: N_44  and  CA_45 
REMARK   26  A    between atoms: CA_45  and  C_46 
REMARK       I    between atoms: C_46  and  N_48 
REMARK   27  A    between atoms: N_48  and  CA_49 
REMARK   28  A    between atoms: CA_49  and  C_50 
REMARK   29  A    between atoms: CA_49  and  CB_52 
ROOT
ATOM      1  C   ARG d   1      13.666  -2.226  -3.730  0.00  0.00     0.240 C 
ATOM      2  O   ARG d   1      13.052  -2.492  -4.752  0.00  0.00    -0.271 OA
ATOM      3  N   GLY d   1      14.772  -1.498  -3.727  0.00  0.00    -0.351 N 
ATOM      4  H   GLY d   1      15.277  -1.335  -2.856  0.00  0.00     0.163 HD
ENDROOT
BRANCH   1   5
ATOM      5  CA  ARG d   1      13.202  -2.778  -2.400  0.00  0.00     0.089 C 
ATOM      6  H   ARG d   1      13.581  -2.149  -1.594  0.00  0.00     0.087 H 
BRANCH   5   7
ATOM      7  N   ARG d   1      11.769  -2.817  -2.394  0.00  0.00    -0.346 N 
ATOM      8  C   GLY d   1      11.099  -3.056  -1.285  0.00  0.00     0.236 C 
ATOM      9  O   GLY d   1      11.626  -3.177  -0.176  0.00  0.00    -0.272 OA
ATOM     10  H   ARG d   1      11.259  -2.657  -3.263  0.00  0.00     0.163 HD
BRANCH   8  11
ATOM     11  CA  GLY d   1       9.617  -3.123  -1.487  0.00  0.00     0.069 C 
ATOM     12  H   GLY d   1       9.438  -2.887  -2.536  0.00  0.00     0.078 H 
ATOM     13  H   GLY d   1       9.307  -4.117  -1.166  0.00  0.00     0.078 H 
BRANCH  11  14
ATOM     14  N   GLY d   1       8.837  -2.184  -0.718  0.00  0.00    -0.351 N 
ATOM     15  C   ARG d   1       8.286  -1.140  -1.333  0.00  0.00     0.248 C 
ATOM     16  O   ARG d   1       8.426  -0.923  -2.530  0.00  0.00    -0.271 OA
ATOM     17  H   GLY d   1       8.709  -2.318   0.285  0.00  0.00     0.163 HD
BRANCH  15  18
ATOM     18  CA  ARG d   1       7.423  -0.222  -0.488  0.00  0.00     0.176 C 
ATOM     19  H   ARG d   1       8.071   0.348   0.178  0.00  0.00     0.099 H 
BRANCH  18  20
ATOM     20  N   ARG d   1       6.675   0.804  -1.292  0.00  0.00    -0.067 N 
ATOM     21  H   ARG d   1       7.340   1.384  -1.804  0.00  0.00     0.275 HD
ATOM     22  H   ARG d   1       6.056   0.332  -1.951  0.00  0.00     0.275 HD
ATOM     23  H   ARG d   1       6.123   1.389  -0.665  0.00  0.00     0.275 HD
ENDBRANCH  18  20
BRANCH  18  24
ATOM     24  CB  ARG d   1       6.447  -1.103   0.287  0.00  0.00    -0.029 C 
ATOM     25  H   ARG d   1       5.996  -0.456   1.039  0.00  0.00     0.036 H 
ATOM     26  H   ARG d   1       7.032  -1.949   0.646  0.00  0.00     0.036 H 
BRANCH  24  27
ATOM     27  CG  ARG d   1       5.266  -1.714  -0.505  0.00  0.00    -0.047 C 
ATOM     28  H   ARG d   1       5.616  -2.221  -1.404  0.00  0.00     0.035 H 
ATOM     29  H   ARG d   1       4.576  -0.940  -0.843  0.00  0.00     0.035 H 
BRANCH  27  30
ATOM     30  CD  ARG d   1       4.574  -2.694   0.450  0.00  0.00     0.009 C 
ATOM     31  H   ARG d   1       4.534  -2.207   1.424  0.00  0.00     0.064 H 
ATOM     32  H   ARG d   1       5.148  -3.620   0.419  0.00  0.00     0.064 H 
BRANCH  30  33
ATOM     33  NE  ARG d   1       3.199  -3.039   0.095  0.00  0.00    -0.227 N 
ATOM     34  CZ  ARG d   1       2.416  -3.814   0.845  0.00  0.00     0.665 C 
ATOM     35  NH1 ARG d   1       2.879  -4.313   1.979  0.00  0.00    -0.235 N 
ATOM     36  NH2 ARG d   1       1.175  -4.104   0.469  0.00  0.00    -0.235 N 
ATOM     37  H   ARG d   1       3.832  -4.104   2.277  0.00  0.00     0.174 HD
ATOM     38  H   ARG d   1       2.283  -4.907   2.556  0.00  0.00     0.174 HD
ATOM     39  H   ARG d   1       0.807  -3.732  -0.406  0.00  0.00     0.174 HD
ATOM     40  H   ARG d   1       0.590  -4.699   1.056  0.00  0.00     0.174 HD
ATOM     41  H   ARG d   1       2.818  -2.666  -0.774  0.00  0.00     0.177 HD
ENDBRANCH  30  33
ENDBRANCH  27  30
ENDBRANCH  24  27
ENDBRANCH  18  24
ENDBRANCH  15  18
ENDBRANCH  11  14
ENDBRANCH   8  11
ENDBRANCH   5   7
BRANCH   5  42
ATOM     42  CB  ARG d   1      13.705  -4.200  -2.238  0.00  0.00    -0.036 C 
ATOM     43  H   ARG d   1      14.589  -4.297  -2.869  0.00  0.00     0.036 H 
ATOM     44  H   ARG d   1      12.879  -4.860  -2.504  0.00  0.00     0.036 H 
BRANCH  42  45
ATOM     45  CG  ARG d   1      14.119  -4.562  -0.856  0.00  0.00    -0.048 C 
ATOM     46  H   ARG d   1      14.455  -5.598  -0.804  0.00  0.00     0.035 H 
ATOM     47  H   ARG d   1      13.284  -4.480  -0.160  0.00  0.00     0.035 H 
BRANCH  45  48
ATOM     48  CD  ARG d   1      15.215  -3.622  -0.494  0.00  0.00     0.009 C 
ATOM     49  H   ARG d   1      14.756  -2.725  -0.078  0.00  0.00     0.064 H 
ATOM     50  H   ARG d   1      15.796  -3.430  -1.396  0.00  0.00     0.064 H 
BRANCH  48  51
ATOM     51  NE  ARG d   1      16.122  -4.155   0.507  0.00  0.00    -0.227 N 
ATOM     52  CZ  ARG d   1      17.300  -3.609   0.784  0.00  0.00     0.665 C 
ATOM     53  NH1 ARG d   1      17.704  -2.524   0.133  0.00  0.00    -0.235 N 
ATOM     54  NH2 ARG d   1      18.072  -4.145   1.710  0.00  0.00    -0.235 N 
ATOM     55  H   ARG d   1      17.108  -2.107  -0.583  0.00  0.00     0.174 HD
ATOM     56  H   ARG d   1      18.610  -2.107   0.349  0.00  0.00     0.174 HD
ATOM     57  H   ARG d   1      17.764  -4.978   2.212  0.00  0.00     0.174 HD
ATOM     58  H   ARG d   1      18.977  -3.727   1.924  0.00  0.00     0.174 HD
ATOM     59  H   ARG d   1      15.840  -4.989   1.022  0.00  0.00     0.177 HD
ENDBRANCH  48  51
ENDBRANCH  45  48
ENDBRANCH  42  45
ENDBRANCH   5  42
ENDBRANCH   1   5
BRANCH   3  60
ATOM     60  CA  GLY d   1      15.257  -0.937  -4.965  0.00  0.00     0.069 C 
ATOM     61  H   GLY d   1      15.444  -1.729  -5.690  0.00  0.00     0.078 H 
ATOM     62  H   GLY d   1      16.195  -0.407  -4.797  0.00  0.00     0.078 H 
BRANCH  60  63
ATOM     63  C   GLY d   1      14.207   0.012  -5.488  0.00  0.00     0.236 C 
ATOM     64  O   GLY d   1      13.901   0.025  -6.679  0.00  0.00    -0.272 OA
ATOM     65  N   2MR d   1      13.609   0.790  -4.596  0.00  0.00    -0.346 N 
ATOM     66  H   2MR d   1      13.840   0.715  -3.605  0.00  0.00     0.163 HD
BRANCH  65  67
ATOM     67  CA  2MR d   1      12.621   1.750  -5.051  0.00  0.00     0.089 C 
ATOM     68  H   2MR d   1      11.969   1.336  -5.820  0.00  0.00     0.087 H 
BRANCH  67  69
ATOM     69  CB  2MR d   1      11.681   2.177  -3.922  0.00  0.00    -0.036 C 
ATOM     70  H   2MR d   1      11.395   3.213  -4.105  0.00  0.00     0.036 H 
ATOM     71  H   2MR d   1      12.212   2.038  -2.980  0.00  0.00     0.036 H 
BRANCH  69  72
ATOM     72  CG  2MR d   1      10.404   1.349  -3.859  0.00  0.00    -0.048 C 
ATOM     73  H   2MR d   1       9.737   1.783  -3.114  0.00  0.00     0.035 H 
ATOM     74  H   2MR d   1      10.660   0.324  -3.592  0.00  0.00     0.035 H 
BRANCH  72  75
ATOM     75  CD  2MR d   1       9.694   1.348  -5.225  0.00  0.00     0.009 C 
ATOM     76  H   2MR d   1      10.373   0.896  -5.948  0.00  0.00     0.064 H 
ATOM     77  H   2MR d   1       9.434   2.380  -5.461  0.00  0.00     0.064 H 
BRANCH  75  78
ATOM     78  NE  2MR d   1       8.461   0.571  -5.235  0.00  0.00    -0.227 N 
ATOM     79  CZ  2MR d   1       7.633   0.484  -6.259  0.00  0.00     0.668 C 
ATOM     80  NH1 2MR d   1       7.912   1.129  -7.386  0.00  0.00    -0.231 N 
ATOM     81  NH2 2MR d   1       6.513  -0.241  -6.117  0.00  0.00    -0.231 N 
ATOM     82  H   2MR d   1       8.505   1.958  -7.398  0.00  0.00     0.177 HD
ATOM     83  H   2MR d   1       5.909  -0.394  -6.924  0.00  0.00     0.177 HD
ATOM     84  H   2MR d   1       8.220   0.056  -4.388  0.00  0.00     0.177 HD
BRANCH  80  85
ATOM     85  CQ1 2MR d   1       7.335   0.597  -8.582  0.00  0.00    -0.005 C 
ATOM     86  H   2MR d   1       7.683  -0.426  -8.728  0.00  0.00     0.057 H 
ATOM     87  H   2MR d   1       6.249   0.604  -8.494  0.00  0.00     0.057 H 
ATOM     88  H   2MR d   1       7.636   1.209  -9.432  0.00  0.00     0.057 H 
ENDBRANCH  80  85
BRANCH  81  89
ATOM     89  CQ2 2MR d   1       6.140  -0.822  -4.807  0.00  0.00    -0.005 C 
ATOM     90  H   2MR d   1       6.925  -1.501  -4.475  0.00  0.00     0.057 H 
ATOM     91  H   2MR d   1       6.018  -0.021  -4.077  0.00  0.00     0.057 H 
ATOM     92  H   2MR d   1       5.203  -1.370  -4.907  0.00  0.00     0.057 H 
ENDBRANCH  81  89
ENDBRANCH  75  78
ENDBRANCH  72  75
ENDBRANCH  69  72
ENDBRANCH  67  69
BRANCH  67  93
ATOM     93  C   2MR d   1      13.448   2.919  -5.552  0.00  0.00     0.240 C 
ATOM     94  O   2MR d   1      13.280   3.390  -6.669  0.00  0.00    -0.271 OA
ATOM     95  N   GLY d   1      14.385   3.366  -4.740  0.00  0.00    -0.351 N 
ATOM     96  H   GLY d   1      14.522   2.947  -3.820  0.00  0.00     0.163 HD
BRANCH  95  97
ATOM     97  CA  GLY d   1      15.215   4.465  -5.183  0.00  0.00     0.069 C 
ATOM     98  H   GLY d   1      15.398   4.306  -6.246  0.00  0.00     0.078 H 
ATOM     99  H   GLY d   1      16.100   4.461  -4.547  0.00  0.00     0.078 H 
BRANCH  97 100
ATOM    100  C   GLY d   1      14.598   5.846  -5.054  0.00  0.00     0.236 C 
ATOM    101  O   GLY d   1      13.834   6.292  -5.909  0.00  0.00    -0.272 OA
ATOM    102  N   ARG d   1      14.945   6.533  -3.972  0.00  0.00    -0.346 N 
ATOM    103  H   ARG d   1      15.579   6.105  -3.297  0.00  0.00     0.163 HD
BRANCH 102 104
ATOM    104  CA  ARG d   1      14.448   7.883  -3.718  0.00  0.00     0.093 C 
ATOM    105  H   ARG d   1      14.848   8.565  -4.468  0.00  0.00     0.089 H 
BRANCH 104 106
ATOM    106  C   ARG d   1      14.900   8.311  -2.326  0.00  0.00     0.196 C 
ATOM    107  O   ARG d   1      15.577   7.496  -1.643  0.00  0.00    -0.646 OA
ATOM    108  O   ARG d   1      14.605   9.448  -1.871  0.00  0.00    -0.646 OA
ENDBRANCH 104 106
BRANCH 104 109
ATOM    109  CB  ARG d   1      12.915   7.925  -3.813  0.00  0.00    -0.048 C 
ATOM    110  H   ARG d   1      12.606   7.617  -4.812  0.00  0.00     0.030 H 
ATOM    111  H   ARG d   1      12.488   7.247  -3.074  0.00  0.00     0.030 H 
ATOM    112  H   ARG d   1      12.568   8.940  -3.620  0.00  0.00     0.030 H 
ENDBRANCH 104 109
ENDBRANCH 102 104
ENDBRANCH  97 100
ENDBRANCH  95  97
ENDBRANCH  67  93
ENDBRANCH  65  67
ENDBRANCH  60  63
ENDBRANCH   3  60
TORSDOF 29
