REMARK  11 active torsions:
REMARK  status: ('A' for Active; 'I' for Inactive)
REMARK    1  A    between atoms: O4P_31  and  P_1 
REMARK    2  A    between atoms: C6_13  and  C1_2 
REMARK    3  A    between atoms: N1_3  and  C5_12 
REMARK       I    between atoms: N2_6  and  C6_13 
REMARK    4  A    between atoms: C7_14  and  N2_6 
REMARK    5  A    between atoms: C9_16  and  N4_11 
REMARK       I    between atoms: N4_11  and  C11_18 
REMARK    6  A    between atoms: C5_12  and  C9_16 
REMARK    7  A    between atoms: C8_15  and  C7_14 
REMARK    8  A    between atoms: C21_21  and  C8_15 
REMARK    9  A    between atoms: C9_16  and  C10_17 
REMARK   10  A    between atoms: C10_17  and  O4P_31 
REMARK   11  A    between atoms: C11_18  and  C12_19 
ROOT
ATOM      1  C1  RZD d   1      -5.997  40.908  80.076  0.00  0.00     0.179 C 
ATOM      2  N1  RZD d   1      -5.485  41.486  81.332  0.00  0.00    -0.056 N 
ATOM      3  C2  RZD d   1      -4.572  40.528  81.973  0.00  0.00     0.085 C 
ATOM      4  C3  RZD d   1      -4.325  39.385  80.997  0.00  0.00    -0.040 C 
ATOM      5  C4  RZD d   1      -5.227  39.624  79.795  0.00  0.00    -0.028 C 
ATOM      6  H1  RZD d   1      -5.872  41.625  79.251  0.00  0.00     0.100 H 
ATOM      7  H2  RZD d   1      -6.263  41.659  81.950  0.00  0.00     0.281 HD
ATOM      8  H3  RZD d   1      -5.027  40.139  82.895  0.00  0.00     0.076 H 
ATOM      9  H4  RZD d   1      -3.620  41.024  82.215  0.00  0.00     0.076 H 
ATOM     10  H6  RZD d   1      -4.573  38.424  81.470  0.00  0.00     0.035 H 
ATOM     11  H7  RZD d   1      -3.271  39.378  80.683  0.00  0.00     0.035 H 
ATOM     12  H9  RZD d   1      -4.622  39.736  78.883  0.00  0.00     0.036 H 
ATOM     13  H10 RZD d   1      -5.925  38.783  79.671  0.00  0.00     0.036 H 
ENDROOT
BRANCH   1  14
ATOM     14  C6  RZD d   1      -7.438  40.539  80.230  0.00  0.00     0.248 C 
ATOM     15  O1  RZD d   1      -7.959  39.782  79.424  0.00  0.00    -0.271 OA
ATOM     16  N2  RZD d   1      -8.082  41.068  81.265  0.00  0.00    -0.359 N 
ATOM     17  H5  RZD d   1      -7.556  41.681  81.854  0.00  0.00     0.162 HD
BRANCH  16  18
ATOM     18  C7  RZD d   1      -9.477  40.848  81.632  0.00  0.00    -0.001 C 
ATOM     19  H14 RZD d   1      -9.807  39.841  81.337  0.00  0.00     0.064 H 
ATOM     20  H15 RZD d   1     -10.130  41.600  81.165  0.00  0.00     0.064 H 
BRANCH  18  21
ATOM     21  C8  RZD d   1      -9.473  40.997  83.152  0.00  0.00    -0.024 C 
ATOM     22  H16 RZD d   1     -10.076  41.874  83.428  0.00  0.00     0.042 H 
ATOM     23  H17 RZD d   1      -8.438  41.141  83.496  0.00  0.00     0.042 H 
BRANCH  21  24
ATOM     24  C21 RZD d   1     -10.050  39.771  83.823  0.00  0.00    -0.029 A 
ATOM     25  C22 RZD d   1     -11.247  39.134  83.547  0.00  0.00    -0.015 A 
ATOM     26  N3  RZD d   1     -11.379  38.053  84.386  0.00  0.00    -0.365 N 
ATOM     27  H24 RZD d   1     -11.967  39.439  82.789  0.00  0.00     0.112 H 
ATOM     28  C23 RZD d   1     -10.290  37.969  85.196  0.00  0.00     0.042 A 
ATOM     29  H8  RZD d   1     -12.180  37.406  84.399  0.00  0.00     0.165 HD
ATOM     30  C24 RZD d   1      -9.416  38.998  84.908  0.00  0.00    -0.002 A 
ATOM     31  C28 RZD d   1     -10.008  37.037  86.183  0.00  0.00    -0.056 A 
ATOM     32  C25 RZD d   1      -8.201  39.176  85.578  0.00  0.00    -0.070 A 
ATOM     33  C26 RZD d   1      -7.911  38.230  86.582  0.00  0.00    -0.082 A 
ATOM     34  H25 RZD d   1      -7.525  39.990  85.340  0.00  0.00     0.084 H 
ATOM     35  C27 RZD d   1      -8.802  37.186  86.871  0.00  0.00    -0.081 A 
ATOM     36  H26 RZD d   1      -6.985  38.311  87.139  0.00  0.00     0.083 H 
ATOM     37  H27 RZD d   1      -8.548  36.476  87.649  0.00  0.00     0.083 H 
ATOM     38  H28 RZD d   1     -10.693  36.228  86.410  0.00  0.00     0.086 H 
ENDBRANCH  21  24
ENDBRANCH  18  21
ENDBRANCH  16  18
ENDBRANCH   1  14
BRANCH   2  39
ATOM     39  C5  RZD d   1      -4.795  42.758  81.081  0.00  0.00     0.105 C 
ATOM     40  H12 RZD d   1      -4.846  43.002  80.010  0.00  0.00     0.079 H 
ATOM     41  H13 RZD d   1      -3.742  42.675  81.388  0.00  0.00     0.079 H 
BRANCH  39  42
ATOM     42  C9  RZD d   1      -5.482  43.857  81.892  0.00  0.00     0.056 C 
ATOM     43  H18 RZD d   1      -6.566  43.879  81.707  0.00  0.00     0.078 H 
BRANCH  42  44
ATOM     44  N4  RZD d   1      -5.152  43.547  83.281  0.00  0.00    -0.353 N 
ATOM     45  C11 RZD d   1      -6.071  43.582  84.246  0.00  0.00     0.214 C 
ATOM     46  O2  RZD d   1      -5.810  43.318  85.415  0.00  0.00    -0.274 OA
ATOM     47  H11 RZD d   1      -4.211  43.302  83.514  0.00  0.00     0.163 HD
BRANCH  45  48
ATOM     48  C12 RZD d   1      -7.450  43.975  83.808  0.00  0.00    -0.003 C 
ATOM     49  H21 RZD d   1      -7.450  44.164  82.724  0.00  0.00     0.040 H 
ATOM     50  H22 RZD d   1      -7.758  44.888  84.340  0.00  0.00     0.040 H 
ATOM     51  H23 RZD d   1      -8.154  43.161  84.038  0.00  0.00     0.040 H 
ENDBRANCH  45  48
ENDBRANCH  42  44
BRANCH  42  52
ATOM     52  C10 RZD d   1      -4.843  45.216  81.619  0.00  0.00     0.053 C 
ATOM     53  H19 RZD d   1      -3.751  45.135  81.728  0.00  0.00     0.078 H 
ATOM     54  H20 RZD d   1      -5.229  45.953  82.339  0.00  0.00     0.078 H 
BRANCH  52  55
ATOM     55  O4P RZD d   1      -5.158  45.640  80.290  0.00  0.00    -0.281 OA
BRANCH  55  56
ATOM     56  P   RZD d   1      -6.245  46.798  79.989  0.00  0.00     0.422 P 
ATOM     57  O1P RZD d   1      -6.351  46.827  78.483  0.00  0.00    -0.617 OA
ATOM     58  O2P RZD d   1      -5.618  48.043  80.572  0.00  0.00    -0.617 OA
ATOM     59  O3P RZD d   1      -7.483  46.292  80.685  0.00  0.00    -0.617 OA
ENDBRANCH  55  56
ENDBRANCH  52  55
ENDBRANCH  42  52
ENDBRANCH  39  42
ENDBRANCH   2  39
TORSDOF 11
