REMARK  1 active torsions:
REMARK  status: ('A' for Active; 'I' for Inactive)
REMARK    1  A    between atoms: C2_7  and  N1_10 
ROOT
ATOM      1  C8  JNZ d   1     -41.647  16.755  12.744  0.00  0.00    -0.082 A 
ATOM      2  C7  JNZ d   1     -42.654  15.982  12.207  0.00  0.00    -0.081 A 
ATOM      3  C9  JNZ d   1     -40.394  16.247  13.012  0.00  0.00    -0.067 A 
ATOM      4  C6  JNZ d   1     -42.482  14.648  11.904  0.00  0.00    -0.052 A 
ATOM      5  C10 JNZ d   1     -40.196  14.909  12.717  0.00  0.00     0.039 A 
ATOM      6  C5  JNZ d   1     -41.227  14.164  12.184  0.00  0.00     0.091 A 
ATOM      7  C2  JNZ d   1     -39.100  14.016  12.829  0.00  0.00     0.128 A 
ATOM      8  N3  JNZ d   1     -39.430  12.799  12.395  0.00  0.00    -0.262 N 
ATOM      9  N4  JNZ d   1     -40.710  12.916  12.015  0.00  0.00    -0.172 NA
ATOM     10  H   JNZ d   1     -41.848  17.803  12.964  0.00  0.00     0.083 H 
ATOM     11  H   JNZ d   1     -43.623  16.443  12.015  0.00  0.00     0.083 H 
ATOM     12  H   JNZ d   1     -39.602  16.866  13.434  0.00  0.00     0.085 H 
ATOM     13  H   JNZ d   1     -43.273  14.031  11.479  0.00  0.00     0.087 H 
ATOM     14  H   JNZ d   1     -38.841  11.967  12.360  0.00  0.00     0.191 HD
ENDROOT
BRANCH   7  15
ATOM     15  N1  JNZ d   1     -37.898  14.401  13.314  0.00  0.00    -0.384 N 
ATOM     16  H   JNZ d   1     -37.755  15.365  13.616  0.00  0.00     0.157 HD
ATOM     17  H   JNZ d   1     -37.135  13.728  13.378  0.00  0.00     0.157 HD
ENDBRANCH   7  15
TORSDOF 1
