REMARK  0 active torsions:
REMARK  status: ('A' for Active; 'I' for Inactive)
ROOT
ATOM      1  C4  JOZ d   1     -39.229  16.026  13.380  0.00  0.00    -0.067 A 
ATOM      2  C5  JOZ d   1     -42.122  15.138  11.145  0.00  0.00    -0.025 C 
ATOM      3  C6  JOZ d   1     -42.130  13.692  11.575  0.00  0.00    -0.001 C 
ATOM      4  C7  JOZ d   1     -41.207  15.910  12.028  0.00  0.00    -0.041 A 
ATOM      5  C8  JOZ d   1     -40.085  15.318  12.566  0.00  0.00     0.038 A 
ATOM      6  C1  JOZ d   1     -40.612  17.950  13.136  0.00  0.00    -0.082 A 
ATOM      7  C2  JOZ d   1     -39.493  17.347  13.669  0.00  0.00    -0.082 A 
ATOM      8  C3  JOZ d   1     -41.467  17.236  12.316  0.00  0.00    -0.076 A 
ATOM      9  C9  JOZ d   1     -39.765  13.906  12.277  0.00  0.00     0.252 C 
ATOM     10  N10 JOZ d   1     -40.791  13.171  11.730  0.00  0.00    -0.357 N 
ATOM     11  O11 JOZ d   1     -38.641  13.485  12.523  0.00  0.00    -0.268 OA
ATOM     12  H1  JOZ d   1     -38.349  15.545  13.792  0.00  0.00     0.085 H 
ATOM     13  H2  JOZ d   1     -43.139  15.549  11.221  0.00  0.00     0.042 H 
ATOM     14  H3  JOZ d   1     -41.774  15.210  10.104  0.00  0.00     0.042 H 
ATOM     15  H4  JOZ d   1     -42.658  13.097  10.815  0.00  0.00     0.064 H 
ATOM     16  H5  JOZ d   1     -42.658  13.609  12.537  0.00  0.00     0.064 H 
ATOM     17  H6  JOZ d   1     -40.823  18.989  13.361  0.00  0.00     0.083 H 
ATOM     18  H7  JOZ d   1     -38.825  17.909  14.312  0.00  0.00     0.083 H 
ATOM     19  H8  JOZ d   1     -42.343  17.718  11.898  0.00  0.00     0.084 H 
ATOM     20  H9  JOZ d   1     -40.602  12.237  11.427  0.00  0.00     0.162 HD
ENDROOT
TORSDOF 0
