REMARK  0 active torsions:
REMARK  status: ('A' for Active; 'I' for Inactive)
ROOT
ATOM      1  C9  JPZ d   1     -40.575  17.115  13.484  0.00  0.00    -0.082 A 
ATOM      2  C8  JPZ d   1     -41.714  17.608  12.900  0.00  0.00    -0.081 A 
ATOM      3  C10 JPZ d   1     -40.213  15.814  13.198  0.00  0.00    -0.067 A 
ATOM      4  C7  JPZ d   1     -42.478  16.828  12.063  0.00  0.00    -0.054 A 
ATOM      5  C4  JPZ d   1     -42.427  13.507  10.762  0.00  0.00     0.066 A 
ATOM      6  C11 JPZ d   1     -40.988  15.037  12.358  0.00  0.00     0.047 A 
ATOM      7  C6  JPZ d   1     -42.134  15.523  11.776  0.00  0.00     0.072 A 
ATOM      8  C2  JPZ d   1     -40.642  13.734  12.066  0.00  0.00     0.192 A 
ATOM      9  N5  JPZ d   1     -42.866  14.751  10.966  0.00  0.00    -0.243 NA
ATOM     10  N3  JPZ d   1     -41.333  12.922  11.263  0.00  0.00    -0.328 N 
ATOM     11  O1  JPZ d   1     -39.500  13.231  12.627  0.00  0.00    -0.171 OA
ATOM     12  H1  JPZ d   1     -39.978  17.728  14.149  0.00  0.00     0.083 H 
ATOM     13  H2  JPZ d   1     -42.017  18.629  13.101  0.00  0.00     0.083 H 
ATOM     14  H3  JPZ d   1     -39.313  15.398  13.636  0.00  0.00     0.085 H 
ATOM     15  H4  JPZ d   1     -43.372  17.249  11.618  0.00  0.00     0.087 H 
ATOM     16  H5  JPZ d   1     -43.037  12.890  10.104  0.00  0.00     0.143 H 
ATOM     17  H6  JPZ d   1     -41.063  11.981  11.059  0.00  0.00     0.168 HD
ENDROOT
TORSDOF 0
