REMARK  5 active torsions:
REMARK  status: ('A' for Active; 'I' for Inactive)
REMARK    1  A    between atoms: C7_7  and  C19_19 
REMARK    2  A    between atoms: C9_9  and  N10_10 
REMARK    3  A    between atoms: N10_10  and  C11_11 
REMARK    4  A    between atoms: C13_13  and  C16_16 
REMARK       I    between atoms: N20_20  and  C24_24 
REMARK    5  A    between atoms: C24_24  and  C26_26 
ROOT
ATOM      1  N1  LGX d   1     -15.573   7.078   9.963  0.00  0.00    -0.240 N 
ATOM      2  C2  LGX d   1     -16.316   6.733  11.089  0.00  0.00     0.104 A 
ATOM      3  C3  LGX d   1     -16.714   7.930  11.757  0.00  0.00    -0.050 A 
ATOM      4  C4  LGX d   1     -16.178   8.967  10.982  0.00  0.00    -0.064 A 
ATOM      5  C5  LGX d   1     -15.488   8.426   9.895  0.00  0.00     0.005 A 
ATOM      6  N6  LGX d   1     -15.071   6.111   9.144  0.00  0.00    -0.150 NA
ATOM      7  C7  LGX d   1     -15.269   4.788   9.385  0.00  0.00     0.171 A 
ATOM      8  N8  LGX d   1     -15.977   4.416  10.458  0.00  0.00    -0.209 NA
ATOM      9  C9  LGX d   1     -16.497   5.351  11.303  0.00  0.00     0.160 A 
ATOM     10  H1  LGX d   1     -17.304   8.018  12.668  0.00  0.00     0.087 H 
ATOM     11  H2  LGX d   1     -16.283  10.030  11.194  0.00  0.00     0.085 H 
ATOM     12  H3  LGX d   1     -14.970   8.993   9.123  0.00  0.00     0.114 H 
ENDROOT
BRANCH   7  13
ATOM     13  C19 LGX d   1     -14.726   3.710   8.500  0.00  0.00     0.076 C 
ATOM     14  N20 LGX d   1     -13.667   4.120   7.586  0.00  0.00    -0.336 N 
ATOM     15  C21 LGX d   1     -13.998   3.788   6.192  0.00  0.00    -0.001 C 
ATOM     16  C24 LGX d   1     -12.542   4.737   8.115  0.00  0.00     0.256 C 
ATOM     17  C22 LGX d   1     -15.158   2.780   6.301  0.00  0.00    -0.048 C 
ATOM     18  H11 LGX d   1     -13.134   3.333   5.685  0.00  0.00     0.064 H 
ATOM     19  H12 LGX d   1     -14.314   4.687   5.643  0.00  0.00     0.064 H 
ATOM     20  C23 LGX d   1     -15.794   2.999   7.672  0.00  0.00    -0.038 C 
ATOM     21  H13 LGX d   1     -14.777   1.751   6.219  0.00  0.00     0.035 H 
ATOM     22  H14 LGX d   1     -15.896   2.962   5.506  0.00  0.00     0.035 H 
ATOM     23  H15 LGX d   1     -16.694   3.625   7.584  0.00  0.00     0.036 H 
ATOM     24  H16 LGX d   1     -16.061   2.036   8.132  0.00  0.00     0.036 H 
ATOM     25  O25 LGX d   1     -12.360   4.689   9.336  0.00  0.00    -0.267 OA
ATOM     26  H10 LGX d   1     -14.289   2.962   9.178  0.00  0.00     0.085 H 
BRANCH  16  27
ATOM     27  C26 LGX d   1     -11.564   5.444   7.258  0.00  0.00     0.050 A 
ATOM     28  C27 LGX d   1     -10.226   5.481   7.680  0.00  0.00    -0.062 A 
ATOM     29  C28 LGX d   1      -9.217   6.125   6.945  0.00  0.00    -0.026 A 
ATOM     30  H17 LGX d   1      -9.960   4.993   8.611  0.00  0.00     0.085 H 
ATOM     31  C29 LGX d   1      -9.619   6.735   5.754  0.00  0.00     0.209 A 
ATOM     32  H18 LGX d   1      -8.187   6.147   7.282  0.00  0.00     0.090 H 
ATOM     33  N30 LGX d   1     -10.889   6.725   5.308  0.00  0.00    -0.232 NA
ATOM     34  F32 LGX d   1      -8.639   7.341   5.070  0.00  0.00    -0.184 F 
ATOM     35  C31 LGX d   1     -11.847   6.096   6.039  0.00  0.00     0.020 A 
ATOM     36  H19 LGX d   1     -12.867   6.095   5.672  0.00  0.00     0.116 H 
ENDBRANCH  16  27
ENDBRANCH   7  13
BRANCH   9  37
ATOM     37  N10 LGX d   1     -17.214   4.901  12.383  0.00  0.00    -0.322 N 
ATOM     38  H4  LGX d   1     -17.638   5.619  12.988  0.00  0.00     0.169 HD
BRANCH  37  39
ATOM     39  C11 LGX d   1     -17.442   3.482  12.771  0.00  0.00     0.151 A 
ATOM     40  C12 LGX d   1     -17.084   2.193  12.207  0.00  0.00    -0.013 A 
ATOM     41  C13 LGX d   1     -17.589   1.140  13.041  0.00  0.00     0.043 A 
ATOM     42  H5  LGX d   1     -16.517   2.047  11.289  0.00  0.00     0.092 H 
ATOM     43  N14 LGX d   1     -18.207   1.789  14.036  0.00  0.00    -0.279 N 
ATOM     44  N15 LGX d   1     -18.113   3.125  13.865  0.00  0.00    -0.156 NA
ATOM     45  H6  LGX d   1     -18.688   1.332  14.824  0.00  0.00     0.189 HD
BRANCH  41  46
ATOM     46  C16 LGX d   1     -17.492  -0.405  12.904  0.00  0.00     0.020 A 
ATOM     47  C17 LGX d   1     -17.055  -0.508  11.494  0.00  0.00    -0.093 A 
ATOM     48  C18 LGX d   1     -18.503  -0.497  11.816  0.00  0.00    -0.093 A 
ATOM     49  H8  LGX d   1     -16.254  -0.556  10.757  0.00  0.00     0.078 H 
ATOM     50  H9  LGX d   1     -19.543  -0.531  11.493  0.00  0.00     0.078 H 
ATOM     51  H7  LGX d   1     -17.277  -1.067  13.756  0.00  0.00     0.062 H 
ENDBRANCH  41  46
ENDBRANCH  37  39
ENDBRANCH   9  37
TORSDOF 5
