REMARK  4 active torsions:
REMARK  status: ('A' for Active; 'I' for Inactive)
REMARK    1  A    between atoms: C7_7  and  C19_19 
REMARK    2  A    between atoms: N10_10  and  C11_11 
REMARK    3  A    between atoms: C13_13  and  C16_16 
REMARK       I    between atoms: N20_20  and  C24_24 
REMARK    4  A    between atoms: C24_24  and  C26_26 
ROOT
ATOM      1  N1  LGW d   1     -16.411   7.465  10.415  0.00  0.00    -0.240 N 
ATOM      2  C2  LGW d   1     -17.108   6.994  11.516  0.00  0.00     0.104 A 
ATOM      3  C3  LGW d   1     -17.572   8.095  12.310  0.00  0.00    -0.050 A 
ATOM      4  C4  LGW d   1     -17.117   9.233  11.625  0.00  0.00    -0.064 A 
ATOM      5  C5  LGW d   1     -16.415   8.818  10.479  0.00  0.00     0.005 A 
ATOM      6  N6  LGW d   1     -15.868   6.594   9.505  0.00  0.00    -0.150 NA
ATOM      7  C7  LGW d   1     -15.978   5.261   9.625  0.00  0.00     0.171 A 
ATOM      8  N8  LGW d   1     -16.648   4.763  10.683  0.00  0.00    -0.209 NA
ATOM      9  C9  LGW d   1     -17.198   5.615  11.605  0.00  0.00     0.160 A 
ATOM     10  N10 LGW d   1     -17.866   5.110  12.659  0.00  0.00    -0.322 N 
ATOM     11  H1  LGW d   1     -18.147   8.057  13.234  0.00  0.00     0.087 H 
ATOM     12  H2  LGW d   1     -17.280  10.265  11.930  0.00  0.00     0.085 H 
ATOM     13  H3  LGW d   1     -15.947   9.482   9.754  0.00  0.00     0.114 H 
ATOM     14  H4  LGW d   1     -18.255   5.791  13.326  0.00  0.00     0.169 HD
ENDROOT
BRANCH   7  15
ATOM     15  C19 LGW d   1     -15.362   4.376   8.596  0.00  0.00     0.076 C 
ATOM     16  N20 LGW d   1     -14.573   3.279   9.164  0.00  0.00    -0.336 N 
ATOM     17  C21 LGW d   1     -14.935   1.972   8.610  0.00  0.00    -0.001 C 
ATOM     18  C24 LGW d   1     -13.619   3.541  10.107  0.00  0.00     0.256 C 
ATOM     19  C22 LGW d   1     -15.828   2.304   7.398  0.00  0.00    -0.048 C 
ATOM     20  H13 LGW d   1     -15.489   1.375   9.350  0.00  0.00     0.064 H 
ATOM     21  H14 LGW d   1     -14.037   1.421   8.293  0.00  0.00     0.064 H 
ATOM     22  C23 LGW d   1     -16.385   3.741   7.640  0.00  0.00    -0.038 C 
ATOM     23  H15 LGW d   1     -16.655   1.583   7.326  0.00  0.00     0.035 H 
ATOM     24  H16 LGW d   1     -15.236   2.277   6.471  0.00  0.00     0.035 H 
ATOM     25  H17 LGW d   1     -16.441   4.303   6.696  0.00  0.00     0.036 H 
ATOM     26  H18 LGW d   1     -17.382   3.702   8.103  0.00  0.00     0.036 H 
ATOM     27  O25 LGW d   1     -13.169   4.668  10.253  0.00  0.00    -0.267 OA
ATOM     28  H12 LGW d   1     -14.687   5.007   8.000  0.00  0.00     0.085 H 
BRANCH  18  29
ATOM     29  C26 LGW d   1     -13.099   2.503  10.974  0.00  0.00     0.050 A 
ATOM     30  C27 LGW d   1     -13.969   1.650  11.686  0.00  0.00    -0.062 A 
ATOM     31  C28 LGW d   1     -13.474   0.666  12.510  0.00  0.00    -0.026 A 
ATOM     32  H19 LGW d   1     -15.041   1.772  11.582  0.00  0.00     0.085 H 
ATOM     33  C29 LGW d   1     -12.089   0.546  12.613  0.00  0.00     0.209 A 
ATOM     34  H20 LGW d   1     -14.137   0.008  13.059  0.00  0.00     0.090 H 
ATOM     35  N30 LGW d   1     -11.219   1.354  11.937  0.00  0.00    -0.232 NA
ATOM     36  F32 LGW d   1     -11.704  -0.439  13.437  0.00  0.00    -0.184 F 
ATOM     37  C31 LGW d   1     -11.712   2.333  11.117  0.00  0.00     0.020 A 
ATOM     38  H21 LGW d   1     -11.030   2.979  10.576  0.00  0.00     0.116 H 
ENDBRANCH  18  29
ENDBRANCH   7  15
BRANCH  10  39
ATOM     39  C11 LGW d   1     -18.099   3.689  12.959  0.00  0.00     0.151 A 
ATOM     40  C12 LGW d   1     -17.798   2.426  12.300  0.00  0.00    -0.013 A 
ATOM     41  C13 LGW d   1     -18.315   1.388  13.152  0.00  0.00     0.035 A 
ATOM     42  H5  LGW d   1     -17.283   2.293  11.350  0.00  0.00     0.092 H 
ATOM     43  N14 LGW d   1     -18.858   2.019  14.199  0.00  0.00    -0.280 N 
ATOM     44  N15 LGW d   1     -18.731   3.337  14.081  0.00  0.00    -0.156 NA
ATOM     45  H6  LGW d   1     -19.314   1.546  14.992  0.00  0.00     0.189 HD
BRANCH  41  46
ATOM     46  C16 LGW d   1     -18.330  -0.147  13.047  0.00  0.00    -0.012 A 
ATOM     47  C17 LGW d   1     -19.104  -0.279  11.772  0.00  0.00    -0.056 A 
ATOM     48  C18 LGW d   1     -17.589  -0.371  11.785  0.00  0.00    -0.056 A 
ATOM     49  H8  LGW d   1     -19.601   0.599  11.333  0.00  0.00     0.034 H 
ATOM     50  H9  LGW d   1     -19.711  -1.177  11.584  0.00  0.00     0.034 H 
ATOM     51  H10 LGW d   1     -17.095  -1.336  11.601  0.00  0.00     0.034 H 
ATOM     52  H11 LGW d   1     -16.985   0.439  11.350  0.00  0.00     0.034 H 
ATOM     53  H7  LGW d   1     -18.353  -0.778  13.948  0.00  0.00     0.049 H 
ENDBRANCH  41  46
ENDBRANCH  10  39
TORSDOF 4
