REMARK  6 active torsions:
REMARK  status: ('A' for Active; 'I' for Inactive)
REMARK    1  A    between atoms: C15_15  and  C8_8 
REMARK    2  A    between atoms: C10_10  and  C18_18 
REMARK    3  A    between atoms: N26_26  and  C11_11 
REMARK    4  A    between atoms: C13_13  and  N26_26 
REMARK    5  A    between atoms: C19_19  and  C14_14 
REMARK       I    between atoms: N27_27  and  C15_15 
REMARK    6  A    between atoms: C19_19  and  N27_27 
ROOT
ATOM      1  C1  LGV d   1     -17.457   8.933  11.308  0.00  0.00    -0.064 A 
ATOM      2  C3  LGV d   1     -17.982   7.873  12.095  0.00  0.00    -0.050 A 
ATOM      3  C7  LGV d   1     -16.749   8.369  10.264  0.00  0.00     0.005 A 
ATOM      4  C9  LGV d   1     -17.577   6.697  11.507  0.00  0.00     0.104 A 
ATOM      5  C13 LGV d   1     -17.788   5.307  11.833  0.00  0.00     0.160 A 
ATOM      6  C14 LGV d   1     -16.497   4.865   9.918  0.00  0.00     0.166 A 
ATOM      7  N22 LGV d   1     -17.226   4.457  11.009  0.00  0.00    -0.210 NA
ATOM      8  N23 LGV d   1     -16.263   6.091   9.567  0.00  0.00    -0.150 NA
ATOM      9  N25 LGV d   1     -16.827   7.011  10.394  0.00  0.00    -0.240 N 
ATOM     10  H1  LGV d   1     -17.589   9.998  11.494  0.00  0.00     0.085 H 
ATOM     11  H3  LGV d   1     -18.590   7.973  12.993  0.00  0.00     0.087 H 
ATOM     12  H7  LGV d   1     -16.223   8.910   9.479  0.00  0.00     0.114 H 
ENDROOT
BRANCH   5  13
ATOM     13  N26 LGV d   1     -18.537   4.938  12.947  0.00  0.00    -0.324 N 
ATOM     14  H16 LGV d   1     -18.949   5.704  13.499  0.00  0.00     0.169 HD
BRANCH  13  15
ATOM     15  C11 LGV d   1     -18.785   3.665  13.388  0.00  0.00     0.125 A 
ATOM     16  C5  LGV d   1     -18.474   2.429  12.746  0.00  0.00    -0.013 A 
ATOM     17  C10 LGV d   1     -18.933   1.443  13.605  0.00  0.00     0.062 A 
ATOM     18  H5  LGV d   1     -17.981   2.290  11.785  0.00  0.00     0.092 H 
ATOM     19  N24 LGV d   1     -19.472   2.082  14.674  0.00  0.00    -0.177 NA
ATOM     20  N21 LGV d   1     -19.392   3.425  14.562  0.00  0.00    -0.262 N 
ATOM     21  H15 LGV d   1     -19.728   4.124  15.240  0.00  0.00     0.191 HD
BRANCH  17  22
ATOM     22  C18 LGV d   1     -18.868  -0.076  13.428  0.00  0.00    -0.010 A 
ATOM     23  C16 LGV d   1     -18.344  -0.704  12.166  0.00  0.00    -0.056 A 
ATOM     24  C17 LGV d   1     -19.818  -0.717  12.447  0.00  0.00    -0.056 A 
ATOM     25  H8  LGV d   1     -17.944  -0.069  11.362  0.00  0.00     0.034 H 
ATOM     26  H9  LGV d   1     -17.767  -1.639  12.216  0.00  0.00     0.034 H 
ATOM     27  H10 LGV d   1     -20.321  -1.661  12.705  0.00  0.00     0.034 H 
ATOM     28  H11 LGV d   1     -20.497  -0.091  11.850  0.00  0.00     0.034 H 
ATOM     29  H12 LGV d   1     -18.657  -0.551  14.398  0.00  0.00     0.049 H 
ENDBRANCH  17  22
ENDBRANCH  13  15
ENDBRANCH   5  13
BRANCH   6  30
ATOM     30  C19 LGV d   1     -15.932   3.726   9.106  0.00  0.00     0.053 C 
ATOM     31  H13 LGV d   1     -15.459   4.103   8.187  0.00  0.00     0.076 H 
ATOM     32  H14 LGV d   1     -16.724   3.009   8.843  0.00  0.00     0.076 H 
BRANCH  30  33
ATOM     33  N27 LGV d   1     -14.947   3.104   9.967  0.00  0.00    -0.350 N 
ATOM     34  C15 LGV d   1     -15.227   1.980  10.703  0.00  0.00     0.253 C 
ATOM     35  O28 LGV d   1     -16.305   1.397  10.682  0.00  0.00    -0.268 OA
ATOM     36  H17 LGV d   1     -14.034   3.507  10.027  0.00  0.00     0.163 HD
BRANCH  34  37
ATOM     37  C8  LGV d   1     -14.146   1.496  11.600  0.00  0.00     0.049 A 
ATOM     38  C2  LGV d   1     -12.869   2.072  11.707  0.00  0.00    -0.062 A 
ATOM     39  C4  LGV d   1     -11.954   1.521  12.609  0.00  0.00    -0.026 A 
ATOM     40  H2  LGV d   1     -12.598   2.929  11.101  0.00  0.00     0.085 H 
ATOM     41  C12 LGV d   1     -12.363   0.436  13.354  0.00  0.00     0.209 A 
ATOM     42  H4  LGV d   1     -10.957   1.933  12.719  0.00  0.00     0.090 H 
ATOM     43  N20 LGV d   1     -13.582  -0.138  13.280  0.00  0.00    -0.232 NA
ATOM     44  F29 LGV d   1     -11.510  -0.109  14.223  0.00  0.00    -0.184 F 
ATOM     45  C6  LGV d   1     -14.444   0.406  12.409  0.00  0.00     0.020 A 
ATOM     46  H6  LGV d   1     -15.433  -0.031  12.331  0.00  0.00     0.116 H 
ENDBRANCH  34  37
ENDBRANCH  30  33
ENDBRANCH   6  30
TORSDOF 6
