REMARK  11 active torsions:
REMARK  status: ('A' for Active; 'I' for Inactive)
REMARK    1  A    between atoms: C8_8  and  C1_1 
REMARK    2  A    between atoms: C3_3  and  O7_7 
REMARK    3  A    between atoms: C4_4  and  N29_29 
REMARK    4  A    between atoms: C9_9  and  O22_22 
REMARK    5  A    between atoms: C11_11  and  C15_15 
REMARK    6  A    between atoms: C24_24  and  C13_13 
REMARK    7  A    between atoms: C14_14  and  O21_21 
REMARK       I    between atoms: N25_25  and  C24_24 
REMARK    8  A    between atoms: C27_27  and  N25_25 
REMARK    9  A    between atoms: C27_27  and  C28_28 
REMARK   10  A    between atoms: C37_37  and  N38_38 
REMARK   11  A    between atoms: N38_38  and  C39_39 
ROOT
ATOM      1  C8  659 d   1      -3.502  19.166  14.464  0.00  0.00    -0.075 C 
ATOM      2  C28 659 d   1      -2.718  18.288  13.824  0.00  0.00    -0.087 C 
ATOM      3  H6  659 d   1      -4.394  18.813  14.980  0.00  0.00     0.080 H 
ATOM      4  H18 659 d   1      -1.779  18.630  13.391  0.00  0.00     0.079 H 
ENDROOT
BRANCH   2   5
ATOM      5  C27 659 d   1      -3.100  16.863  13.692  0.00  0.00     0.010 C 
ATOM      6  H16 659 d   1      -3.792  16.577  14.498  0.00  0.00     0.070 H 
ATOM      7  H17 659 d   1      -3.578  16.684  12.717  0.00  0.00     0.070 H 
BRANCH   5   8
ATOM      8  N25 659 d   1      -1.838  16.089  13.797  0.00  0.00    -0.353 N 
ATOM      9  C24 659 d   1      -1.864  14.798  14.229  0.00  0.00     0.254 C 
ATOM     10  O26 659 d   1      -2.911  14.292  14.516  0.00  0.00    -0.268 OA
ATOM     11  H15 659 d   1      -0.968  16.516  13.550  0.00  0.00     0.163 HD
BRANCH   9  12
ATOM     12  C13 659 d   1      -0.561  14.113  14.401  0.00  0.00     0.068 A 
ATOM     13  C12 659 d   1      -0.576  12.951  15.128  0.00  0.00    -0.054 A 
ATOM     14  C11 659 d   1       0.604  12.218  15.408  0.00  0.00    -0.022 A 
ATOM     15  H8  659 d   1      -1.524  12.580  15.502  0.00  0.00     0.086 H 
ATOM     16  C10 659 d   1       1.814  12.734  14.892  0.00  0.00    -0.037 A 
ATOM     17  C9  659 d   1       1.838  13.932  14.171  0.00  0.00     0.100 A 
ATOM     18  H7  659 d   1       2.738  12.193  15.058  0.00  0.00     0.089 H 
ATOM     19  C14 659 d   1       0.654  14.630  13.917  0.00  0.00     0.114 A 
BRANCH  14  20
ATOM     20  C15 659 d   1       0.567  10.979  16.165  0.00  0.00    -0.026 A 
ATOM     21  C16 659 d   1      -0.336  10.812  17.211  0.00  0.00    -0.069 A 
ATOM     22  C17 659 d   1      -0.349   9.658  17.931  0.00  0.00    -0.045 A 
ATOM     23  H9  659 d   1      -1.033  11.606  17.453  0.00  0.00     0.085 H 
ATOM     24  C18 659 d   1       0.508   8.615  17.597  0.00  0.00     0.116 A 
ATOM     25  H10 659 d   1      -1.030   9.551  18.768  0.00  0.00     0.088 H 
ATOM     26  C19 659 d   1       1.397   8.762  16.568  0.00  0.00    -0.045 A 
ATOM     27  F23 659 d   1       0.506   7.492  18.310  0.00  0.00    -0.206 F 
ATOM     28  C20 659 d   1       1.374   9.944  15.847  0.00  0.00    -0.069 A 
ATOM     29  H11 659 d   1       2.101   7.974  16.323  0.00  0.00     0.088 H 
ATOM     30  H12 659 d   1       2.032  10.043  14.991  0.00  0.00     0.085 H 
ENDBRANCH  14  20
BRANCH  17  31
ATOM     31  O22 659 d   1       3.013  14.453  13.675  0.00  0.00    -0.358 OA
ATOM     32  H14 659 d   1       3.153  15.319  14.039  0.00  0.00     0.217 HD
ENDBRANCH  17  31
BRANCH  19  33
ATOM     33  O21 659 d   1       0.786  15.761  13.134  0.00  0.00    -0.357 OA
ATOM     34  H13 659 d   1       1.704  15.903  12.937  0.00  0.00     0.217 HD
ENDBRANCH  19  33
ENDBRANCH   9  12
ENDBRANCH   5   8
ENDBRANCH   2   5
BRANCH   1  35
ATOM     35  C1  659 d   1      -3.167  20.638  14.480  0.00  0.00     0.089 C 
ATOM     36  C2  659 d   1      -3.760  21.344  15.678  0.00  0.00     0.136 C 
ATOM     37  C3  659 d   1      -5.094  21.565  15.143  0.00  0.00     0.110 C 
ATOM     38  F6  659 d   1      -3.716  20.490  16.763  0.00  0.00    -0.243 F 
ATOM     39  H2  659 d   1      -3.251  22.288  15.922  0.00  0.00     0.100 H 
ATOM     40  C4  659 d   1      -4.837  22.078  13.806  0.00  0.00     0.140 C 
ATOM     41  H3  659 d   1      -5.646  20.615  15.093  0.00  0.00     0.094 H 
ATOM     42  O5  659 d   1      -3.675  21.313  13.346  0.00  0.00    -0.351 OA
ATOM     43  H4  659 d   1      -4.618  23.154  13.864  0.00  0.00     0.123 H 
ATOM     44  H1  659 d   1      -2.072  20.739  14.503  0.00  0.00     0.094 H 
BRANCH  37  45
ATOM     45  O7  659 d   1      -5.836  22.475  15.899  0.00  0.00    -0.388 OA
ATOM     46  H5  659 d   1      -5.354  23.290  15.974  0.00  0.00     0.210 HD
ENDBRANCH  37  45
BRANCH  40  47
ATOM     47  N29 659 d   1      -5.861  21.858  12.817  0.00  0.00    -0.294 N 
ATOM     48  C31 659 d   1      -6.427  20.675  12.505  0.00  0.00     0.071 A 
ATOM     49  N30 659 d   1      -7.226  20.840  11.421  0.00  0.00    -0.236 NA
ATOM     50  H19 659 d   1      -6.269  19.738  13.037  0.00  0.00     0.144 H 
ATOM     51  C32 659 d   1      -7.105  22.158  11.035  0.00  0.00     0.149 A 
ATOM     52  C33 659 d   1      -6.255  22.792  11.896  0.00  0.00     0.167 A 
ATOM     53  C37 659 d   1      -7.687  22.898  10.000  0.00  0.00     0.157 A 
ATOM     54  N34 659 d   1      -5.936  24.086  11.775  0.00  0.00    -0.222 NA
ATOM     55  C35 659 d   1      -6.508  24.762  10.743  0.00  0.00     0.091 A 
ATOM     56  N36 659 d   1      -7.351  24.166   9.851  0.00  0.00    -0.222 NA
ATOM     57  H20 659 d   1      -6.285  25.816  10.624  0.00  0.00     0.146 H 
BRANCH  53  58
ATOM     58  N38 659 d   1      -8.603  22.398   9.073  0.00  0.00    -0.377 N 
ATOM     59  H21 659 d   1      -8.927  23.012   8.312  0.00  0.00     0.160 HD
BRANCH  58  60
ATOM     60  C39 659 d   1      -9.111  21.049   9.147  0.00  0.00    -0.019 C 
ATOM     61  H22 659 d   1      -9.815  20.876   8.319  0.00  0.00     0.056 H 
ATOM     62  H23 659 d   1      -9.631  20.905  10.106  0.00  0.00     0.056 H 
ATOM     63  H24 659 d   1      -8.275  20.338   9.072  0.00  0.00     0.056 H 
ENDBRANCH  58  60
ENDBRANCH  53  58
ENDBRANCH  40  47
ENDBRANCH   1  35
TORSDOF 11
