REMARK  14 active torsions:
REMARK  status: ('A' for Active; 'I' for Inactive)
REMARK    1  A    between atoms: C2_2  and  N1_1 
REMARK    2  A    between atoms: C3_3  and  O11_11 
REMARK    3  A    between atoms: C17_17  and  C7_7 
REMARK    4  A    between atoms: C8_8  and  C14_14 
REMARK    5  A    between atoms: C12_12  and  O20_20 
REMARK    6  A    between atoms: C13_13  and  O33_33 
REMARK    7  A    between atoms: C26_26  and  C15_15 
REMARK       I    between atoms: N28_28  and  C17_17 
REMARK    8  A    between atoms: C18_18  and  N32_32 
REMARK    9  A    between atoms: C21_21  and  C25_25 
REMARK   10  A    between atoms: C38_38  and  N28_28 
REMARK   11  A    between atoms: C29_29  and  C38_38 
REMARK   12  A    between atoms: N32_32  and  C39_39 
REMARK   13  A    between atoms: C39_39  and  C40_40 
REMARK   14  A    between atoms: C40_40  and  C41_41 
ROOT
ATOM      1  C2  662 d   1      -4.969   5.429  25.814  0.00  0.00     0.138 C 
ATOM      2  C3  662 d   1      -5.229   5.923  24.440  0.00  0.00     0.084 C 
ATOM      3  C8  662 d   1      -3.851   6.176  23.919  0.00  0.00    -0.000 C 
ATOM      4  O10 662 d   1      -3.795   6.221  26.268  0.00  0.00    -0.354 OA
ATOM      5  C15 662 d   1      -3.257   6.874  25.121  0.00  0.00     0.063 C 
ATOM      6  H1  662 d   1      -4.726   4.357  25.762  0.00  0.00     0.122 H 
ATOM      7  H2  662 d   1      -5.793   6.867  24.464  0.00  0.00     0.090 H 
ATOM      8  H3  662 d   1      -3.329   5.229  23.718  0.00  0.00     0.048 H 
ATOM      9  H9  662 d   1      -2.163   6.764  25.099  0.00  0.00     0.090 H 
ENDROOT
BRANCH   5  10
ATOM     10  C26 662 d   1      -3.599   8.358  25.197  0.00  0.00    -0.077 C 
ATOM     11  C29 662 d   1      -2.666   9.261  25.650  0.00  0.00    -0.087 C 
ATOM     12  H16 662 d   1      -1.662   8.921  25.900  0.00  0.00     0.079 H 
ATOM     13  H14 662 d   1      -4.585   8.704  24.892  0.00  0.00     0.080 H 
BRANCH  11  14
ATOM     14  C38 662 d   1      -3.022  10.713  25.802  0.00  0.00     0.010 C 
ATOM     15  H23 662 d   1      -3.740  11.010  25.024  0.00  0.00     0.070 H 
ATOM     16  H24 662 d   1      -3.462  10.893  26.794  0.00  0.00     0.070 H 
BRANCH  14  17
ATOM     17  N28 662 d   1      -1.800  11.461  25.659  0.00  0.00    -0.353 N 
ATOM     18  C17 662 d   1      -1.844  12.791  25.191  0.00  0.00     0.254 C 
ATOM     19  O27 662 d   1      -2.919  13.313  24.923  0.00  0.00    -0.268 OA
ATOM     20  H15 662 d   1      -0.923  11.039  25.891  0.00  0.00     0.163 HD
BRANCH  18  21
ATOM     21  C7  662 d   1      -0.537  13.455  25.002  0.00  0.00     0.068 A 
ATOM     22  C13 662 d   1       0.656  12.956  25.526  0.00  0.00     0.114 A 
ATOM     23  C12 662 d   1       1.839  13.627  25.296  0.00  0.00     0.100 A 
ATOM     24  C23 662 d   1       1.803  14.825  24.586  0.00  0.00    -0.037 A 
ATOM     25  C21 662 d   1       0.587  15.338  24.062  0.00  0.00    -0.022 A 
ATOM     26  H12 662 d   1       2.723  15.377  24.430  0.00  0.00     0.089 H 
ATOM     27  C16 662 d   1      -0.554  14.651  24.302  0.00  0.00    -0.054 A 
ATOM     28  H10 662 d   1      -1.498  15.043  23.940  0.00  0.00     0.086 H 
BRANCH  22  29
ATOM     29  O33 662 d   1       0.773  11.806  26.257  0.00  0.00    -0.357 OA
ATOM     30  H20 662 d   1       1.140  12.010  27.109  0.00  0.00     0.217 HD
ENDBRANCH  22  29
BRANCH  23  31
ATOM     31  O20 662 d   1       3.023  13.133  25.802  0.00  0.00    -0.358 OA
ATOM     32  H11 662 d   1       3.179  12.265  25.449  0.00  0.00     0.217 HD
ENDBRANCH  23  31
BRANCH  25  33
ATOM     33  C25 662 d   1       0.565  16.564  23.315  0.00  0.00    -0.026 A 
ATOM     34  C30 662 d   1       1.390  17.627  23.678  0.00  0.00    -0.069 A 
ATOM     35  C36 662 d   1       1.400  18.821  22.937  0.00  0.00    -0.045 A 
ATOM     36  H17 662 d   1       2.034  17.531  24.545  0.00  0.00     0.085 H 
ATOM     37  C34 662 d   1       0.543  18.960  21.847  0.00  0.00     0.116 A 
ATOM     38  H22 662 d   1       2.070  19.628  23.211  0.00  0.00     0.088 H 
ATOM     39  C35 662 d   1      -0.282  17.915  21.481  0.00  0.00    -0.045 A 
ATOM     40  F37 662 d   1       0.546  20.064  21.108  0.00  0.00    -0.206 F 
ATOM     41  C31 662 d   1      -0.290  16.725  22.219  0.00  0.00    -0.069 A 
ATOM     42  H21 662 d   1      -0.928  18.017  20.616  0.00  0.00     0.088 H 
ATOM     43  H18 662 d   1      -0.963  15.923  21.939  0.00  0.00     0.085 H 
ENDBRANCH  25  33
ENDBRANCH  18  21
ENDBRANCH  14  17
ENDBRANCH  11  14
ENDBRANCH   5  10
BRANCH   3  44
ATOM     44  C14 662 d   1      -3.816   7.005  22.659  0.00  0.00    -0.068 C 
ATOM     45  H6  662 d   1      -2.772   7.146  22.342  0.00  0.00     0.028 H 
ATOM     46  H7  662 d   1      -4.276   7.985  22.852  0.00  0.00     0.028 H 
ATOM     47  H8  662 d   1      -4.374   6.488  21.864  0.00  0.00     0.028 H 
ENDBRANCH   3  44
BRANCH   2  48
ATOM     48  O11 662 d   1      -5.968   5.000  23.746  0.00  0.00    -0.391 OA
ATOM     49  H5  662 d   1      -5.520   4.162  23.760  0.00  0.00     0.210 HD
ENDBRANCH   2  48
BRANCH   1  50
ATOM     50  N1  662 d   1      -6.003   5.609  26.812  0.00  0.00    -0.294 N 
ATOM     51  C4  662 d   1      -6.384   4.669  27.750  0.00  0.00     0.167 A 
ATOM     52  C5  662 d   1      -7.333   5.245  28.564  0.00  0.00     0.149 A 
ATOM     53  N19 662 d   1      -5.984   3.383  27.913  0.00  0.00    -0.222 NA
ATOM     54  N6  662 d   1      -7.500   6.557  28.126  0.00  0.00    -0.236 NA
ATOM     55  C18 662 d   1      -7.892   4.463  29.601  0.00  0.00     0.157 A 
ATOM     56  C9  662 d   1      -6.663   6.759  27.072  0.00  0.00     0.071 A 
ATOM     57  H4  662 d   1      -6.545   7.694  26.527  0.00  0.00     0.144 H 
ATOM     58  N22 662 d   1      -7.468   3.174  29.757  0.00  0.00    -0.222 NA
ATOM     59  C24 662 d   1      -6.523   2.653  28.928  0.00  0.00     0.091 A 
ATOM     60  H13 662 d   1      -6.191   1.632  29.079  0.00  0.00     0.146 H 
BRANCH  55  61
ATOM     61  N32 662 d   1      -8.904   4.949  30.465  0.00  0.00    -0.373 N 
ATOM     62  H19 662 d   1      -9.209   4.353  31.248  0.00  0.00     0.161 HD
BRANCH  61  63
ATOM     63  C39 662 d   1      -9.534   6.251  30.298  0.00  0.00    -0.006 C 
ATOM     64  H25 662 d   1      -8.810   6.957  29.866  0.00  0.00     0.064 H 
ATOM     65  H26 662 d   1      -9.871   6.624  31.276  0.00  0.00     0.064 H 
BRANCH  63  66
ATOM     66  C40 662 d   1     -10.730   6.115  29.366  0.00  0.00    -0.054 C 
ATOM     67  H27 662 d   1     -11.281   5.194  29.607  0.00  0.00     0.034 H 
ATOM     68  H28 662 d   1     -10.381   6.072  28.324  0.00  0.00     0.034 H 
BRANCH  66  69
ATOM     69  C41 662 d   1     -11.649   7.322  29.547  0.00  0.00    -0.075 C 
ATOM     70  H29 662 d   1     -12.515   7.228  28.875  0.00  0.00     0.027 H 
ATOM     71  H30 662 d   1     -11.097   8.242  29.306  0.00  0.00     0.027 H 
ATOM     72  H31 662 d   1     -11.997   7.365  30.590  0.00  0.00     0.027 H 
ENDBRANCH  66  69
ENDBRANCH  63  66
ENDBRANCH  61  63
ENDBRANCH  55  61
ENDBRANCH   1  50
TORSDOF 14
