REMARK  16 active torsions:
REMARK  status: ('A' for Active; 'I' for Inactive)
REMARK    1  A    between atoms: C2_2  and  C7_7 
REMARK    2  A    between atoms: N16_16  and  C4_4 
REMARK    3  A    between atoms: C6_6  and  C18_18 
REMARK    4  A    between atoms: C10_10  and  N12_12 
REMARK    5  A    between atoms: N12_12  and  C13_13 
REMARK    6  A    between atoms: C13_13  and  C14_14 
REMARK    7  A    between atoms: C13_13  and  C15_15 
REMARK    8  A    between atoms: C27_27  and  N16_16 
REMARK    9  A    between atoms: C19_19  and  C23_23 
REMARK   10  A    between atoms: C23_23  and  N29_29 
REMARK   11  A    between atoms: N25_25  and  C24_24 
REMARK   12  A    between atoms: C26_26  and  N25_25 
REMARK   13  A    between atoms: N25_25  and  C28_28 
REMARK   14  A    between atoms: C26_26  and  C27_27 
REMARK       I    between atoms: N29_29  and  C30_30 
REMARK       I    between atoms: C30_30  and  N31_31 
REMARK   15  A    between atoms: N31_31  and  C33_33 
REMARK   16  A    between atoms: C33_33  and  C34_34 
ROOT
ATOM      1  C1  3NW d   1      -3.561   0.922  20.469  0.00  0.00    -0.024 A 
ATOM      2  C2  3NW d   1      -2.929   1.044  21.722  0.00  0.00     0.097 A 
ATOM      3  N3  3NW d   1      -2.393   2.265  22.103  0.00  0.00    -0.062 NA
ATOM      4  C4  3NW d   1      -2.435   3.369  21.339  0.00  0.00     0.723 A 
ATOM      5  N5  3NW d   1      -3.035   3.295  20.123  0.00  0.00    -0.062 NA
ATOM      6  C6  3NW d   1      -3.600   2.094  19.672  0.00  0.00     0.089 A 
ATOM      7  H1  3NW d   1      -3.993  -0.014  20.133  0.00  0.00     0.090 H 
ENDROOT
BRANCH   6   8
ATOM      8  C18 3NW d   1      -4.266   1.965  18.346  0.00  0.00     0.001 A 
ATOM      9  C19 3NW d   1      -3.593   2.312  17.099  0.00  0.00    -0.028 A 
ATOM     10  C20 3NW d   1      -4.238   2.185  15.795  0.00  0.00    -0.074 A 
ATOM     11  C17 3NW d   1      -5.595   1.695  15.716  0.00  0.00    -0.082 A 
ATOM     12  H13 3NW d   1      -3.702   2.457  14.893  0.00  0.00     0.084 H 
ATOM     13  C21 3NW d   1      -6.267   1.348  16.947  0.00  0.00    -0.082 A 
ATOM     14  H12 3NW d   1      -6.095   1.591  14.760  0.00  0.00     0.083 H 
ATOM     15  C22 3NW d   1      -5.654   1.465  18.237  0.00  0.00    -0.070 A 
ATOM     16  H14 3NW d   1      -7.285   0.981  16.892  0.00  0.00     0.083 H 
ATOM     17  H15 3NW d   1      -6.205   1.188  19.129  0.00  0.00     0.084 H 
BRANCH   9  18
ATOM     18  C23 3NW d   1      -2.179   2.832  17.065  0.00  0.00     0.021 C 
ATOM     19  H16 3NW d   1      -1.482   1.981  17.055  0.00  0.00     0.071 H 
ATOM     20  H17 3NW d   1      -1.998   3.444  17.961  0.00  0.00     0.071 H 
BRANCH  18  21
ATOM     21  N29 3NW d   1      -1.955   3.649  15.873  0.00  0.00    -0.339 N 
ATOM     22  C30 3NW d   1      -0.782   3.574  15.196  0.00  0.00     0.316 C 
ATOM     23  N31 3NW d   1      -0.681   4.467  14.192  0.00  0.00    -0.343 N 
ATOM     24  O32 3NW d   1       0.099   2.767  15.476  0.00  0.00    -0.247 OA
ATOM     25  H30 3NW d   1      -1.418   5.119  14.014  0.00  0.00     0.164 HD
ATOM     26  H29 3NW d   1      -2.673   4.268  15.554  0.00  0.00     0.164 HD
BRANCH  23  27
ATOM     27  C33 3NW d   1       0.532   4.464  13.365  0.00  0.00    -0.006 C 
ATOM     28  H31 3NW d   1       1.177   3.621  13.654  0.00  0.00     0.063 H 
ATOM     29  H32 3NW d   1       1.079   5.408  13.504  0.00  0.00     0.063 H 
BRANCH  27  30
ATOM     30  C34 3NW d   1       0.116   4.318  11.894  0.00  0.00    -0.061 C 
ATOM     31  H33 3NW d   1       1.013   4.314  11.258  0.00  0.00     0.029 H 
ATOM     32  H34 3NW d   1      -0.530   5.162  11.610  0.00  0.00     0.029 H 
ATOM     33  H35 3NW d   1      -0.433   3.374  11.760  0.00  0.00     0.029 H 
ENDBRANCH  27  30
ENDBRANCH  23  27
ENDBRANCH  18  21
ENDBRANCH   9  18
ENDBRANCH   6   8
BRANCH   2  34
ATOM     34  C7  3NW d   1      -2.804  -0.090  22.680  0.00  0.00     0.055 A 
ATOM     35  C8  3NW d   1      -2.998  -1.472  22.439  0.00  0.00     0.024 A 
ATOM     36  N9  3NW d   1      -2.780  -2.154  23.593  0.00  0.00    -0.235 NA
ATOM     37  H2  3NW d   1      -3.276  -1.915  21.484  0.00  0.00     0.117 H 
ATOM     38  C10 3NW d   1      -2.439  -1.408  24.677  0.00  0.00     0.167 A 
ATOM     39  S11 3NW d   1      -2.374   0.251  24.280  0.00  0.00    -0.049 SA
BRANCH  38  40
ATOM     40  N12 3NW d   1      -2.168  -1.984  26.004  0.00  0.00    -0.365 N 
ATOM     41  H3  3NW d   1      -2.308  -2.996  26.137  0.00  0.00     0.162 HD
BRANCH  40  42
ATOM     42  C13 3NW d   1      -1.704  -1.180  27.157  0.00  0.00     0.004 C 
ATOM     43  H4  3NW d   1      -2.263  -0.234  27.204  0.00  0.00     0.071 H 
BRANCH  42  44
ATOM     44  C14 3NW d   1      -0.204  -0.925  27.022  0.00  0.00    -0.058 C 
ATOM     45  H5  3NW d   1       0.145  -0.328  27.877  0.00  0.00     0.030 H 
ATOM     46  H6  3NW d   1      -0.008  -0.378  26.088  0.00  0.00     0.030 H 
ATOM     47  H7  3NW d   1       0.331  -1.886  27.003  0.00  0.00     0.030 H 
ENDBRANCH  42  44
BRANCH  42  48
ATOM     48  C15 3NW d   1      -1.858  -1.962  28.451  0.00  0.00    -0.058 C 
ATOM     49  H8  3NW d   1      -1.508  -1.348  29.294  0.00  0.00     0.030 H 
ATOM     50  H9  3NW d   1      -1.260  -2.884  28.396  0.00  0.00     0.030 H 
ATOM     51  H10 3NW d   1      -2.917  -2.220  28.600  0.00  0.00     0.030 H 
ENDBRANCH  42  48
ENDBRANCH  40  42
ENDBRANCH  38  40
ENDBRANCH   2  34
BRANCH   4  52
ATOM     52  N16 3NW d   1      -1.865   4.508  21.841  0.00  0.00    -0.221 N 
ATOM     53  H11 3NW d   1      -2.130   5.438  21.485  0.00  0.00     0.177 HD
BRANCH  52  54
ATOM     54  C27 3NW d   1      -0.859   4.359  22.908  0.00  0.00     0.032 C 
ATOM     55  H24 3NW d   1      -0.106   3.625  22.586  0.00  0.00     0.067 H 
ATOM     56  H25 3NW d   1      -1.359   3.996  23.818  0.00  0.00     0.067 H 
BRANCH  54  57
ATOM     57  C26 3NW d   1      -0.161   5.669  23.222  0.00  0.00     0.098 C 
ATOM     58  H22 3NW d   1      -0.902   6.402  23.574  0.00  0.00     0.078 H 
ATOM     59  H23 3NW d   1       0.592   5.502  24.006  0.00  0.00     0.078 H 
BRANCH  57  60
ATOM     60  N25 3NW d   1       0.503   6.188  22.007  0.00  0.00    -0.077 N 
ATOM     61  H21 3NW d   1       0.159   5.714  21.187  0.00  0.00     0.279 HD
BRANCH  60  62
ATOM     62  C24 3NW d   1       1.967   5.986  22.127  0.00  0.00     0.066 C 
ATOM     63  H18 3NW d   1       2.465   6.371  21.225  0.00  0.00     0.068 H 
ATOM     64  H19 3NW d   1       2.181   4.912  22.235  0.00  0.00     0.068 H 
ATOM     65  H20 3NW d   1       2.340   6.525  23.010  0.00  0.00     0.068 H 
ENDBRANCH  60  62
BRANCH  60  66
ATOM     66  C28 3NW d   1       0.193   7.624  21.934  0.00  0.00     0.066 C 
ATOM     67  H26 3NW d   1       0.668   8.057  21.041  0.00  0.00     0.068 H 
ATOM     68  H27 3NW d   1       0.576   8.128  22.834  0.00  0.00     0.068 H 
ATOM     69  H28 3NW d   1      -0.897   7.761  21.872  0.00  0.00     0.068 H 
ENDBRANCH  60  66
ENDBRANCH  57  60
ENDBRANCH  54  57
ENDBRANCH  52  54
ENDBRANCH   4  52
TORSDOF 16
