REMARK  7 active torsions:
REMARK  status: ('A' for Active; 'I' for Inactive)
REMARK    1  A    between atoms: C6_6  and  N6_7 
REMARK    2  A    between atoms: C7_8  and  C10_12 
REMARK    3  A    between atoms: N9_10  and  C1'_11 
REMARK       I    between atoms: C10_12  and  N11_13 
REMARK    4  A    between atoms: C2'_15  and  O2'_16 
REMARK    5  A    between atoms: C3'_17  and  O3'_18 
REMARK    6  A    between atoms: C4'_19  and  C5'_21 
REMARK    7  A    between atoms: C5'_21  and  O5'_22 
ROOT
ATOM      1  N1  SGV d   1     -71.040  17.485  19.279  0.00  0.00    -0.224 NA
ATOM      2  C2  SGV d   1     -70.873  16.187  19.608  0.00  0.00     0.091 A 
ATOM      3  N3  SGV d   1     -71.727  15.507  20.403  0.00  0.00    -0.223 NA
ATOM      4  C4  SGV d   1     -72.828  16.100  20.925  0.00  0.00     0.148 A 
ATOM      5  C5  SGV d   1     -73.075  17.515  20.608  0.00  0.00     0.073 A 
ATOM      6  C6  SGV d   1     -72.093  18.197  19.730  0.00  0.00     0.137 A 
ATOM      7  C7  SGV d   1     -74.325  17.792  21.338  0.00  0.00     0.065 A 
ATOM      8  C8  SGV d   1     -74.705  16.636  21.980  0.00  0.00     0.000 A 
ATOM      9  N9  SGV d   1     -73.814  15.658  21.721  0.00  0.00    -0.310 N 
ATOM     10  H   SGV d   1     -70.005  15.661  19.212  0.00  0.00     0.146 H 
ATOM     11  H   SGV d   1     -75.592  16.527  22.604  0.00  0.00     0.113 H 
ENDROOT
BRANCH   9  12
ATOM     12  C1' SGV d   1     -73.883  14.268  22.241  0.00  0.00     0.138 C 
ATOM     13  C2' SGV d   1     -72.932  14.199  23.417  0.00  0.00     0.105 C 
ATOM     14  C3' SGV d   1     -73.823  14.568  24.576  0.00  0.00     0.091 C 
ATOM     15  H   SGV d   1     -72.064  14.853  23.341  0.00  0.00     0.093 H 
ATOM     16  C4' SGV d   1     -75.198  14.040  24.179  0.00  0.00     0.088 C 
ATOM     17  H   SGV d   1     -73.845  15.641  24.768  0.00  0.00     0.091 H 
ATOM     18  O4' SGV d   1     -75.182  13.941  22.752  0.00  0.00    -0.353 OA
ATOM     19  H   SGV d   1     -75.363  13.080  24.668  0.00  0.00     0.090 H 
ATOM     20  H   SGV d   1     -73.643  13.582  21.429  0.00  0.00     0.122 H 
BRANCH  13  21
ATOM     21  O2' SGV d   1     -72.383  12.880  23.533  0.00  0.00    -0.388 OA
ATOM     22  H   SGV d   1     -71.782  12.849  24.281  0.00  0.00     0.210 HD
ENDBRANCH  13  21
BRANCH  14  23
ATOM     23  O3' SGV d   1     -73.352  13.984  25.787  0.00  0.00    -0.390 OA
ATOM     24  H   SGV d   1     -72.463  14.299  25.968  0.00  0.00     0.210 HD
ENDBRANCH  14  23
BRANCH  16  25
ATOM     25  C5' SGV d   1     -76.378  14.895  24.658  0.00  0.00     0.043 C 
ATOM     26  H   SGV d   1     -77.162  14.228  25.015  0.00  0.00     0.078 H 
ATOM     27  H   SGV d   1     -76.719  15.508  23.823  0.00  0.00     0.078 H 
BRANCH  25  28
ATOM     28  O5' SGV d   1     -75.999  15.771  25.740  0.00  0.00    -0.398 OA
ATOM     29  H   SGV d   1     -76.760  16.289  26.013  0.00  0.00     0.209 HD
ENDBRANCH  25  28
ENDBRANCH  16  25
ENDBRANCH   9  12
BRANCH   7  30
ATOM     30  C10 SGV d   1     -74.942  19.144  21.291  0.00  0.00     0.251 C 
ATOM     31  N11 SGV d   1     -76.263  19.241  21.346  0.00  0.00    -0.366 N 
ATOM     32  H   SGV d   1     -76.709  20.158  21.321  0.00  0.00     0.159 HD
ATOM     33  H   SGV d   1     -76.834  18.398  21.413  0.00  0.00     0.159 HD
ATOM     34  O12 SGV d   1     -74.243  20.136  21.211  0.00  0.00    -0.268 OA
ENDBRANCH   7  30
BRANCH   6  35
ATOM     35  N6  SGV d   1     -72.219  19.489  19.377  0.00  0.00    -0.383 N 
ATOM     36  H   SGV d   1     -73.011  20.035  19.715  0.00  0.00     0.157 HD
ATOM     37  H   SGV d   1     -71.522  19.922  18.771  0.00  0.00     0.157 HD
ENDBRANCH   6  35
TORSDOF 7
