REMARK  11 active torsions:
REMARK  status: ('A' for Active; 'I' for Inactive)
REMARK    1  A    between atoms: C2_2  and  NAC_9 
REMARK    2  A    between atoms: C6_6  and  NAD_10 
REMARK    3  A    between atoms: OAT_24  and  CAA_7 
REMARK    4  A    between atoms: CBB_30  and  CAB_8 
REMARK    5  A    between atoms: CAN_20  and  CAO_21 
REMARK    6  A    between atoms: OAU_25  and  CAN_20 
REMARK    7  A    between atoms: CAO_21  and  CAV_26 
REMARK    8  A    between atoms: CAP_22  and  CAY_28 
REMARK    9  A    between atoms: CAZ_29  and  CAP_22 
REMARK   10  A    between atoms: CBC_31  and  OAT_24 
REMARK   11  A    between atoms: OAU_25  and  CAW_27 
ROOT
ATOM      1  CAJ D2O d   1      17.643   2.643   8.576  0.00  0.00    -0.048 A 
ATOM      2  CAK D2O d   1      17.914   2.195   9.850  0.00  0.00    -0.048 A 
ATOM      3  CAM D2O d   1      15.334   2.919   9.134  0.00  0.00    -0.042 A 
ATOM      4  CAW D2O d   1      16.365   3.017   8.220  0.00  0.00     0.069 A 
ATOM      5  CAZ D2O d   1      15.611   2.443  10.423  0.00  0.00    -0.018 A 
ATOM      6  CBC D2O d   1      16.891   2.098  10.761  0.00  0.00     0.074 A 
ATOM      7  H16 D2O d   1      18.442   2.702   7.846  0.00  0.00     0.087 H 
ATOM      8  H17 D2O d   1      18.925   1.922  10.131  0.00  0.00     0.087 H 
ATOM      9  H19 D2O d   1      14.326   3.206   8.858  0.00  0.00     0.088 H 
ENDROOT
BRANCH   5  10
ATOM     10  CAP D2O d   1      14.529   2.337  11.490  0.00  0.00    -0.012 C 
ATOM     11  H24 D2O d   1      15.012   2.391  12.477  0.00  0.00     0.047 H 
ATOM     12  H25 D2O d   1      13.843   3.189  11.370  0.00  0.00     0.047 H 
BRANCH  10  13
ATOM     13  CAY D2O d   1      13.712   1.057  11.431  0.00  0.00    -0.029 A 
ATOM     14  CAL D2O d   1      13.896   0.110  10.436  0.00  0.00     0.011 A 
ATOM     15  NAQ D2O d   1      13.173  -0.994  10.408  0.00  0.00    -0.239 NA
ATOM     16  H18 D2O d   1      14.644   0.278   9.670  0.00  0.00     0.115 H 
ATOM     17  C4  D2O d   1      12.238  -1.248  11.316  0.00  0.00     0.182 A 
ATOM     18  N3  D2O d   1      11.541  -2.362  11.199  0.00  0.00    -0.042 NA
ATOM     19  C5  D2O d   1      11.987  -0.366  12.350  0.00  0.00     0.065 A 
ATOM     20  C2  D2O d   1      10.604  -2.674  12.059  0.00  0.00     0.724 A 
ATOM     21  N1  D2O d   1      10.339  -1.850  13.066  0.00  0.00    -0.045 NA
ATOM     22  C6  D2O d   1      10.984  -0.714  13.248  0.00  0.00     0.155 A 
ATOM     23  CBB D2O d   1      12.756   0.810  12.384  0.00  0.00    -0.036 A 
BRANCH  20  24
ATOM     24  NAC D2O d   1       9.935  -3.800  11.891  0.00  0.00    -0.231 N 
ATOM     25  H7  D2O d   1       9.194  -4.063  12.557  0.00  0.00     0.174 HD
ATOM     26  H8  D2O d   1      10.154  -4.415  11.094  0.00  0.00     0.174 HD
ENDBRANCH  20  24
BRANCH  22  27
ATOM     27  NAD D2O d   1      10.644   0.019  14.269  0.00  0.00    -0.383 N 
ATOM     28  H9  D2O d   1      11.125   0.913  14.444  0.00  0.00     0.157 HD
ATOM     29  H10 D2O d   1       9.894  -0.295  14.902  0.00  0.00     0.157 HD
ENDBRANCH  22  27
BRANCH  23  30
ATOM     30  CAB D2O d   1      12.648   1.896  13.409  0.00  0.00    -0.050 C 
ATOM     31  H4  D2O d   1      11.867   1.635  14.139  0.00  0.00     0.033 H 
ATOM     32  H5  D2O d   1      12.386   2.843  12.914  0.00  0.00     0.033 H 
ATOM     33  H6  D2O d   1      13.612   2.008  13.928  0.00  0.00     0.033 H 
ENDBRANCH  23  30
ENDBRANCH  10  13
ENDBRANCH   5  10
BRANCH   6  34
ATOM     34  OAT D2O d   1      17.107   1.674  12.015  0.00  0.00    -0.355 OA
BRANCH  34  35
ATOM     35  CAA D2O d   1      18.483   1.446  12.037  0.00  0.00     0.010 C 
ATOM     36  H1  D2O d   1      18.779   1.089  13.034  0.00  0.00     0.066 H 
ATOM     37  H2  D2O d   1      19.014   2.382  11.810  0.00  0.00     0.066 H 
ATOM     38  H3  D2O d   1      18.741   0.687  11.284  0.00  0.00     0.066 H 
ENDBRANCH  34  35
ENDBRANCH   6  34
BRANCH   4  39
ATOM     39  OAU D2O d   1      16.173   3.444   6.972  0.00  0.00    -0.351 OA
BRANCH  39  40
ATOM     40  CAN D2O d   1      14.962   4.047   6.639  0.00  0.00     0.030 C 
ATOM     41  H20 D2O d   1      14.155   3.307   6.536  0.00  0.00     0.075 H 
ATOM     42  H21 D2O d   1      14.671   4.808   7.378  0.00  0.00     0.075 H 
BRANCH  40  43
ATOM     43  CAO D2O d   1      15.325   4.679   5.290  0.00  0.00    -0.021 C 
ATOM     44  H22 D2O d   1      16.250   5.261   5.415  0.00  0.00     0.043 H 
ATOM     45  H23 D2O d   1      14.507   5.349   4.987  0.00  0.00     0.043 H 
BRANCH  43  46
ATOM     46  CAV D2O d   1      15.548   3.636   4.167  0.00  0.00    -0.056 A 
ATOM     47  CAH D2O d   1      16.622   2.748   4.230  0.00  0.00    -0.077 A 
ATOM     48  CAF D2O d   1      16.832   1.796   3.241  0.00  0.00    -0.082 A 
ATOM     49  H14 D2O d   1      17.307   2.802   5.068  0.00  0.00     0.084 H 
ATOM     50  CAE D2O d   1      15.938   1.757   2.184  0.00  0.00    -0.083 A 
ATOM     51  H12 D2O d   1      17.667   1.107   3.295  0.00  0.00     0.083 H 
ATOM     52  CAG D2O d   1      14.867   2.641   2.107  0.00  0.00    -0.082 A 
ATOM     53  H11 D2O d   1      16.076   1.022   1.400  0.00  0.00     0.083 H 
ATOM     54  CAI D2O d   1      14.672   3.579   3.097  0.00  0.00    -0.077 A 
ATOM     55  H13 D2O d   1      14.184   2.592   1.266  0.00  0.00     0.083 H 
ATOM     56  H15 D2O d   1      13.837   4.268   3.038  0.00  0.00     0.084 H 
ENDBRANCH  43  46
ENDBRANCH  40  43
ENDBRANCH  39  40
ENDBRANCH   4  39
TORSDOF 11
