REMARK  26 active torsions:
REMARK  status: ('A' for Active; 'I' for Inactive)
REMARK    1  A    between atoms: N_1  and  CA_2 
REMARK    2  A    between atoms: CA_2  and  C_3 
REMARK    3  A    between atoms: CA_2  and  CB_5 
REMARK       I    between atoms: C_3  and  N_9 
REMARK    4  A    between atoms: CB_5  and  CG_6 
REMARK    5  A    between atoms: CG_6  and  SD_7 
REMARK    6  A    between atoms: SD_7  and  CE_8 
REMARK    7  A    between atoms: N_9  and  CA_10 
REMARK    8  A    between atoms: CA_10  and  C_11 
REMARK    9  A    between atoms: CA_10  and  CB_13 
REMARK       I    between atoms: C_11  and  N_20 
REMARK   10  A    between atoms: CB_13  and  CG_14 
REMARK   11  A    between atoms: N_20  and  CA_21 
REMARK   12  A    between atoms: CA_21  and  C_22 
REMARK   13  A    between atoms: CA_21  and  CB_24 
REMARK       I    between atoms: C_22  and  N_25 
REMARK   14  A    between atoms: N_25  and  CA_26 
REMARK   15  A    between atoms: CA_26  and  C_27 
REMARK   16  A    between atoms: CA_26  and  CB_29 
REMARK       I    between atoms: C_27  and  N_33 
REMARK   17  A    between atoms: CB_29  and  CG_30 
REMARK   18  A    between atoms: CG_30  and  CD1_31 
REMARK   19  A    between atoms: CG_30  and  CD2_32 
REMARK   20  A    between atoms: N_33  and  CA_34 
REMARK   21  A    between atoms: CA_34  and  CB_35 
REMARK   22  A    between atoms: CA_34  and  B_38 
REMARK   23  A    between atoms: CB_35  and  CG1_36 
REMARK   24  A    between atoms: CB_35  and  CG2_37 
REMARK   25  A    between atoms: B_38  and  O1_39 
REMARK   26  A    between atoms: B_38  and  O2_40 
ROOT
ATOM      1  CA  LYS d   1      -0.091 -13.675 -14.746  0.00  0.00     0.086 C 
ATOM      2  H   LYS d   1      -0.208 -14.404 -15.548  0.00  0.00     0.086 H 
ENDROOT
BRANCH   1   3
ATOM      3  N   LYS d   1      -1.387 -13.384 -14.138  0.00  0.00    -0.346 N 
ATOM      4  C   PHE d   1      -2.536 -13.427 -14.808  0.00  0.00     0.241 C 
ATOM      5  O   PHE d   1      -2.595 -13.439 -16.034  0.00  0.00    -0.271 OA
ATOM      6  H   LYS d   1      -1.413 -13.135 -13.149  0.00  0.00     0.163 HD
BRANCH   4   7
ATOM      7  CA  PHE d   1      -3.812 -13.441 -13.955  0.00  0.00     0.093 C 
ATOM      8  H   PHE d   1      -3.896 -12.469 -13.470  0.00  0.00     0.088 H 
BRANCH   7   9
ATOM      9  N   PHE d   1      -5.015 -13.642 -14.769  0.00  0.00    -0.346 N 
ATOM     10  C   MET d   1      -5.847 -12.660 -15.109  0.00  0.00     0.249 C 
ATOM     11  O   MET d   1      -5.640 -11.478 -14.839  0.00  0.00    -0.271 OA
ATOM     12  H   PHE d   1      -5.226 -14.586 -15.092  0.00  0.00     0.163 HD
BRANCH  10  13
ATOM     13  CA  MET d   1      -7.101 -13.081 -15.889  0.00  0.00     0.176 C 
ATOM     14  H   MET d   1      -7.739 -13.633 -15.199  0.00  0.00     0.099 H 
BRANCH  13  15
ATOM     15  N   MET d   1      -7.862 -11.896 -16.382  0.00  0.00    -0.066 N 
ATOM     16  H   MET d   1      -8.098 -11.293 -15.594  0.00  0.00     0.275 HD
ATOM     17  H   MET d   1      -7.288 -11.378 -17.048  0.00  0.00     0.275 HD
ATOM     18  H   MET d   1      -8.718 -12.210 -16.840  0.00  0.00     0.275 HD
ENDBRANCH  13  15
BRANCH  13  19
ATOM     19  CB  MET d   1      -6.736 -14.002 -17.067  0.00  0.00    -0.022 C 
ATOM     20  H   MET d   1      -7.638 -14.108 -17.669  0.00  0.00     0.037 H 
ATOM     21  H   MET d   1      -6.351 -14.925 -16.632  0.00  0.00     0.037 H 
BRANCH  19  22
ATOM     22  CG  MET d   1      -5.643 -13.472 -18.006  0.00  0.00    -0.021 C 
ATOM     23  H   MET d   1      -4.776 -13.219 -17.397  0.00  0.00     0.049 H 
ATOM     24  H   MET d   1      -6.052 -12.615 -18.541  0.00  0.00     0.049 H 
BRANCH  22  25
ATOM     25  SD  MET d   1      -5.116 -14.692 -19.237  0.00  0.00    -0.173 SA
BRANCH  25  26
ATOM     26  CE  MET d   1      -4.209 -15.859 -18.221  0.00  0.00    -0.035 C 
ATOM     27  H   MET d   1      -3.377 -15.348 -17.737  0.00  0.00     0.041 H 
ATOM     28  H   MET d   1      -4.874 -16.272 -17.462  0.00  0.00     0.041 H 
ATOM     29  H   MET d   1      -3.827 -16.665 -18.848  0.00  0.00     0.041 H 
ENDBRANCH  25  26
ENDBRANCH  22  25
ENDBRANCH  19  22
ENDBRANCH  13  19
ENDBRANCH  10  13
ENDBRANCH   7   9
BRANCH   7  30
ATOM     30  CB  PHE d   1      -3.715 -14.558 -12.901  0.00  0.00    -0.014 C 
ATOM     31  H   PHE d   1      -4.629 -14.527 -12.309  0.00  0.00     0.043 H 
ATOM     32  H   PHE d   1      -2.809 -14.380 -12.321  0.00  0.00     0.043 H 
BRANCH  30  33
ATOM     33  CG  PHE d   1      -3.608 -15.939 -13.489  0.00  0.00    -0.056 A 
ATOM     34  CD1 PHE d   1      -2.372 -16.469 -13.849  0.00  0.00    -0.077 A 
ATOM     35  CE1 PHE d   1      -2.273 -17.743 -14.407  0.00  0.00    -0.082 A 
ATOM     36  H   PHE d   1      -1.469 -15.880 -13.692  0.00  0.00     0.084 H 
ATOM     37  CZ  PHE d   1      -3.417 -18.500 -14.607  0.00  0.00    -0.083 A 
ATOM     38  H   PHE d   1      -1.298 -18.143 -14.685  0.00  0.00     0.083 H 
ATOM     39  CE2 PHE d   1      -4.658 -17.981 -14.253  0.00  0.00    -0.082 A 
ATOM     40  H   PHE d   1      -3.344 -19.498 -15.040  0.00  0.00     0.083 H 
ATOM     41  CD2 PHE d   1      -4.748 -16.706 -13.698  0.00  0.00    -0.077 A 
ATOM     42  H   PHE d   1      -5.560 -18.572 -14.410  0.00  0.00     0.083 H 
ATOM     43  H   PHE d   1      -5.724 -16.305 -13.425  0.00  0.00     0.084 H 
ENDBRANCH  30  33
ENDBRANCH   7  30
ENDBRANCH   4   7
ENDBRANCH   1   3
BRANCH   1  44
ATOM     44  C   LYS d   1       0.814 -14.229 -13.645  0.00  0.00     0.240 C 
ATOM     45  O   LYS d   1       0.721 -13.780 -12.503  0.00  0.00    -0.271 OA
ATOM     46  N   LEU d   1       1.664 -15.206 -13.972  0.00  0.00    -0.346 N 
ATOM     47  H   LEU d   1       1.654 -15.572 -14.924  0.00  0.00     0.163 HD
BRANCH  46  48
ATOM     48  CA  LEU d   1       2.617 -15.772 -12.997  0.00  0.00     0.089 C 
ATOM     49  H   LEU d   1       2.088 -15.865 -12.048  0.00  0.00     0.087 H 
BRANCH  48  50
ATOM     50  C   LEU d   1       3.822 -14.844 -12.807  0.00  0.00     0.240 C 
ATOM     51  O   LEU d   1       4.170 -14.089 -13.714  0.00  0.00    -0.271 OA
ATOM     52  N   B2V d   1       4.459 -14.923 -11.635  0.00  0.00    -0.358 N 
ATOM     53  H   B2V d   1       4.181 -15.652 -10.978  0.00  0.00     0.162 HD
BRANCH  52  54
ATOM     54  CA  B2V d   1       5.552 -14.000 -11.245  0.00  0.00     0.049 C 
ATOM     55  H   B2V d   1       5.759 -13.328 -12.078  0.00  0.00     0.065 H 
BRANCH  54  56
ATOM     56  CB  B2V d   1       5.105 -13.125 -10.045  0.00  0.00    -0.044 C 
ATOM     57  H   B2V d   1       6.042 -12.707  -9.677  0.00  0.00     0.041 H 
BRANCH  56  58
ATOM     58  CG1 B2V d   1       4.116 -12.054 -10.503  0.00  0.00    -0.072 C 
ATOM     59  H   B2V d   1       4.592 -11.417 -11.249  0.00  0.00     0.028 H 
ATOM     60  H   B2V d   1       3.239 -12.533 -10.939  0.00  0.00     0.028 H 
ATOM     61  H   B2V d   1       3.814 -11.450  -9.647  0.00  0.00     0.028 H 
ENDBRANCH  56  58
BRANCH  56  62
ATOM     62  CG2 B2V d   1       4.462 -13.867  -8.869  0.00  0.00    -0.072 C 
ATOM     63  H   B2V d   1       3.567 -14.386  -9.214  0.00  0.00     0.028 H 
ATOM     64  H   B2V d   1       5.171 -14.591  -8.467  0.00  0.00     0.028 H 
ATOM     65  H   B2V d   1       4.192 -13.151  -8.093  0.00  0.00     0.028 H 
ENDBRANCH  56  62
ENDBRANCH  54  56
BRANCH  54  66
ATOM     66  B   B2V d   1       6.939 -14.788 -10.978  0.00  0.00     0.515 B 
BRANCH  66  67
ATOM     67  O1  B2V d   1       7.405 -15.634 -12.165  0.00  0.00    -0.436 OA
ATOM     68  H   B2V d   1       6.668 -16.153 -12.496  0.00  0.00     0.184 HD
ENDBRANCH  66  67
BRANCH  66  69
ATOM     69  O2  B2V d   1       8.068 -13.928 -10.394  0.00  0.00    -0.436 OA
ATOM     70  H   B2V d   1       8.779 -14.498 -10.092  0.00  0.00     0.184 HD
ENDBRANCH  66  69
ENDBRANCH  54  66
ENDBRANCH  52  54
ENDBRANCH  48  50
BRANCH  48  71
ATOM     71  CB  LEU d   1       3.098 -17.173 -13.422  0.00  0.00    -0.035 C 
ATOM     72  H   LEU d   1       3.604 -17.572 -12.543  0.00  0.00     0.037 H 
ATOM     73  H   LEU d   1       3.667 -17.006 -14.336  0.00  0.00     0.037 H 
BRANCH  71  74
ATOM     74  CG  LEU d   1       2.058 -18.247 -13.797  0.00  0.00    -0.059 C 
ATOM     75  H   LEU d   1       1.775 -18.053 -14.832  0.00  0.00     0.038 H 
BRANCH  74  76
ATOM     76  CD1 LEU d   1       2.652 -19.651 -13.701  0.00  0.00    -0.073 C 
ATOM     77  H   LEU d   1       3.498 -19.733 -14.383  0.00  0.00     0.028 H 
ATOM     78  H   LEU d   1       2.987 -19.833 -12.680  0.00  0.00     0.028 H 
ATOM     79  H   LEU d   1       1.893 -20.385 -13.972  0.00  0.00     0.028 H 
ENDBRANCH  74  76
BRANCH  74  80
ATOM     80  CD2 LEU d   1       0.802 -18.156 -12.946  0.00  0.00    -0.073 C 
ATOM     81  H   LEU d   1       1.065 -18.292 -11.897  0.00  0.00     0.028 H 
ATOM     82  H   LEU d   1       0.342 -17.177 -13.083  0.00  0.00     0.028 H 
ATOM     83  H   LEU d   1       0.102 -18.934 -13.250  0.00  0.00     0.028 H 
ENDBRANCH  74  80
ENDBRANCH  71  74
ENDBRANCH  48  71
ENDBRANCH  46  48
ENDBRANCH   1  44
BRANCH   1  84
ATOM     84  CB  LYS d   1       0.521 -12.428 -15.387  0.00  0.00    -0.049 C 
ATOM     85  H   LYS d   1      -0.148 -12.054 -16.162  0.00  0.00     0.030 H 
ATOM     86  H   LYS d   1       0.661 -11.661 -14.625  0.00  0.00     0.030 H 
ATOM     87  H   LYS d   1       1.484 -12.684 -15.829  0.00  0.00     0.030 H 
ENDBRANCH   1  84
TORSDOF 26
