REMARK  6 active torsions:
REMARK  status: ('A' for Active; 'I' for Inactive)
REMARK    1  A    between atoms: C9_19  and  O1_3 
REMARK    2  A    between atoms: O1_3  and  C13_23 
REMARK    3  A    between atoms: N6_16  and  C3_8 
REMARK    4  A    between atoms: C4_11  and  N5_14 
REMARK    5  A    between atoms: N4_12  and  C6_15 
REMARK    6  A    between atoms: N5_14  and  C7_17 
ROOT
ATOM      1  C1  NZS d   1      20.229  13.320  22.930  0.00  0.00     0.077 A 
ATOM      2  N1  NZS d   1      22.585  12.971  23.097  0.00  0.00    -0.198 NA
ATOM      3  C2  NZS d   1      21.318  12.639  23.436  0.00  0.00     0.164 A 
ATOM      4  N2  NZS d   1      21.752  14.677  21.725  0.00  0.00    -0.199 NA
ATOM      5  C3  NZS d   1      22.798  13.993  22.241  0.00  0.00     0.208 A 
ATOM      6  N3  NZS d   1      19.371  11.773  24.250  0.00  0.00    -0.182 NA
ATOM      7  C4  NZS d   1      20.476  14.370  22.054  0.00  0.00     0.147 A 
ATOM      8  N4  NZS d   1      20.779  11.711  24.230  0.00  0.00    -0.256 N 
ATOM      9  C5  NZS d   1      18.994  12.787  23.433  0.00  0.00     0.039 A 
ATOM     10  H   NZS d   1      17.981  13.122  23.208  0.00  0.00     0.119 H 
ENDROOT
BRANCH   7  11
ATOM     11  N5  NZS d   1      19.437  15.068  21.527  0.00  0.00    -0.340 N 
ATOM     12  H   NZS d   1      18.634  14.561  21.156  0.00  0.00     0.167 HD
BRANCH  11  13
ATOM     13  C7  NZS d   1      19.442  16.426  21.482  0.00  0.00     0.036 A 
ATOM     14  C8  NZS d   1      20.650  17.103  21.610  0.00  0.00    -0.025 A 
ATOM     15  C9  NZS d   1      20.797  18.400  21.136  0.00  0.00     0.070 A 
ATOM     16  H   NZS d   1      21.494  16.608  22.090  0.00  0.00     0.091 H 
ATOM     17  C10 NZS d   1      19.723  19.040  20.530  0.00  0.00    -0.051 A 
ATOM     18  C11 NZS d   1      18.509  18.375  20.403  0.00  0.00    -0.078 A 
ATOM     19  H   NZS d   1      19.832  20.058  20.156  0.00  0.00     0.087 H 
ATOM     20  C12 NZS d   1      18.370  17.075  20.878  0.00  0.00    -0.057 A 
ATOM     21  H   NZS d   1      17.663  18.874  19.930  0.00  0.00     0.083 H 
ATOM     22  H   NZS d   1      17.414  16.561  20.776  0.00  0.00     0.086 H 
BRANCH  15  23
ATOM     23  O1  NZS d   1      22.002  19.040  21.269  0.00  0.00    -0.356 OA
BRANCH  23  24
ATOM     24  C13 NZS d   1      22.207  20.317  20.669  0.00  0.00     0.010 C 
ATOM     25  H   NZS d   1      22.071  20.236  19.590  0.00  0.00     0.066 H 
ATOM     26  H   NZS d   1      21.487  21.028  21.075  0.00  0.00     0.066 H 
ATOM     27  H   NZS d   1      23.219  20.660  20.884  0.00  0.00     0.066 H 
ENDBRANCH  23  24
ENDBRANCH  15  23
ENDBRANCH  11  13
ENDBRANCH   7  11
BRANCH   5  28
ATOM     28  N6  NZS d   1      24.119  14.345  21.887  0.00  0.00    -0.249 NA
ATOM     29  C14 NZS d   1      24.985  13.164  21.688  0.00  0.00    -0.002 C 
ATOM     30  C15 NZS d   1      24.642  12.371  20.433  0.00  0.00     0.040 C 
ATOM     31  H   NZS d   1      24.844  12.504  22.544  0.00  0.00     0.057 H 
ATOM     32  H   NZS d   1      26.010  13.520  21.583  0.00  0.00     0.057 H 
ATOM     33  S1  NZS d   1      24.748  13.374  19.117  0.00  0.00     0.146 S 
ATOM     34  H   NZS d   1      25.339  11.541  20.320  0.00  0.00     0.058 H 
ATOM     35  H   NZS d   1      23.630  11.975  20.513  0.00  0.00     0.058 H 
ATOM     36  O2  NZS d   1      26.104  13.803  18.924  0.00  0.00    -0.228 OA
ATOM     37  O3  NZS d   1      24.284  12.681  17.947  0.00  0.00    -0.228 OA
ATOM     38  C16 NZS d   1      23.774  14.682  19.419  0.00  0.00     0.040 C 
ATOM     39  C17 NZS d   1      24.147  15.306  20.762  0.00  0.00    -0.002 C 
ATOM     40  H   NZS d   1      22.734  14.357  19.449  0.00  0.00     0.058 H 
ATOM     41  H   NZS d   1      23.908  15.421  18.629  0.00  0.00     0.058 H 
ATOM     42  H   NZS d   1      25.167  15.681  20.677  0.00  0.00     0.057 H 
ATOM     43  H   NZS d   1      23.414  16.084  20.977  0.00  0.00     0.057 H 
ENDBRANCH   5  28
BRANCH   8  44
ATOM     44  C6  NZS d   1      21.375  10.648  25.077  0.00  0.00     0.004 C 
ATOM     45  H   NZS d   1      21.085  10.807  26.116  0.00  0.00     0.059 H 
ATOM     46  H   NZS d   1      21.015   9.675  24.743  0.00  0.00     0.059 H 
ATOM     47  H   NZS d   1      22.461  10.684  24.992  0.00  0.00     0.059 H 
ENDBRANCH   8  44
TORSDOF 6
