REMARK  8 active torsions:
REMARK  status: ('A' for Active; 'I' for Inactive)
REMARK    1  A    between atoms: C1_1  and  N2_2 
REMARK    2  A    between atoms: C7_7  and  N21_20 
REMARK    3  A    between atoms: C9_9  and  C11_11 
REMARK    4  A    between atoms: N21_20  and  C22_21 
REMARK    5  A    between atoms: C22_21  and  C23_22 
REMARK    6  A    between atoms: C23_22  and  C24_23 
REMARK    7  A    between atoms: C24_23  and  S25_24 
REMARK    8  A    between atoms: S25_24  and  C28_27 
ROOT
ATOM      1  N2  NZU d   1      20.714  12.642  24.013  0.00  0.00    -0.256 N 
ATOM      2  C3  NZU d   1      21.097  13.541  23.119  0.00  0.00     0.163 A 
ATOM      3  C4  NZU d   1      20.021  14.356  22.879  0.00  0.00     0.076 A 
ATOM      4  C5  NZU d   1      18.994  13.883  23.688  0.00  0.00     0.039 A 
ATOM      5  N6  NZU d   1      19.409  12.870  24.337  0.00  0.00    -0.182 NA
ATOM      6  C7  NZU d   1      20.175  15.393  21.968  0.00  0.00     0.141 A 
ATOM      7  N8  NZU d   1      21.319  15.533  21.387  0.00  0.00    -0.210 NA
ATOM      8  C9  NZU d   1      22.296  14.729  21.654  0.00  0.00     0.165 A 
ATOM      9  N10 NZU d   1      22.203  13.760  22.487  0.00  0.00    -0.208 NA
ATOM     10  H   NZU d   1      17.994  14.311  23.756  0.00  0.00     0.119 H 
ENDROOT
BRANCH   6  11
ATOM     11  N21 NZU d   1      19.162  16.259  21.695  0.00  0.00    -0.374 N 
ATOM     12  H   NZU d   1      18.349  16.271  22.311  0.00  0.00     0.161 HD
BRANCH  11  13
ATOM     13  C22 NZU d   1      19.191  17.166  20.562  0.00  0.00    -0.005 C 
ATOM     14  H   NZU d   1      18.852  16.651  19.663  0.00  0.00     0.064 H 
ATOM     15  H   NZU d   1      20.208  17.520  20.393  0.00  0.00     0.064 H 
BRANCH  13  16
ATOM     16  C23 NZU d   1      18.269  18.350  20.866  0.00  0.00    -0.038 C 
ATOM     17  H   NZU d   1      17.470  18.010  21.525  0.00  0.00     0.036 H 
ATOM     18  H   NZU d   1      17.867  18.730  19.927  0.00  0.00     0.036 H 
BRANCH  16  19
ATOM     19  C24 NZU d   1      19.034  19.477  21.564  0.00  0.00     0.030 C 
ATOM     20  H   NZU d   1      19.948  19.653  20.997  0.00  0.00     0.056 H 
ATOM     21  H   NZU d   1      19.215  19.163  22.592  0.00  0.00     0.056 H 
BRANCH  19  22
ATOM     22  S25 NZU d   1      18.119  21.038  21.623  0.00  0.00     0.140 S 
ATOM     23  O26 NZU d   1      17.284  21.039  22.725  0.00  0.00    -0.228 OA
ATOM     24  O27 NZU d   1      19.002  22.108  21.506  0.00  0.00    -0.228 OA
BRANCH  22  25
ATOM     25  C28 NZU d   1      17.145  20.897  20.125  0.00  0.00     0.015 C 
ATOM     26  H   NZU d   1      16.577  19.967  20.149  0.00  0.00     0.048 H 
ATOM     27  H   NZU d   1      16.459  21.742  20.058  0.00  0.00     0.048 H 
ATOM     28  H   NZU d   1      17.809  20.897  19.260  0.00  0.00     0.048 H 
ENDBRANCH  22  25
ENDBRANCH  19  22
ENDBRANCH  16  19
ENDBRANCH  13  16
ENDBRANCH  11  13
ENDBRANCH   6  11
BRANCH   8  29
ATOM     29  C11 NZU d   1      23.560  14.903  20.970  0.00  0.00     0.026 A 
ATOM     30  C12 NZU d   1      23.650  15.767  19.920  0.00  0.00    -0.068 A 
ATOM     31  C13 NZU d   1      24.834  15.931  19.258  0.00  0.00    -0.080 A 
ATOM     32  H   NZU d   1      22.772  16.331  19.606  0.00  0.00     0.085 H 
ATOM     33  C14 NZU d   1      25.934  15.230  19.626  0.00  0.00    -0.055 A 
ATOM     34  H   NZU d   1      24.894  16.632  18.426  0.00  0.00     0.083 H 
ATOM     35  C15 NZU d   1      25.859  14.343  20.669  0.00  0.00     0.062 A 
ATOM     36  H   NZU d   1      26.875  15.371  19.095  0.00  0.00     0.087 H 
ATOM     37  C16 NZU d   1      24.672  14.166  21.351  0.00  0.00     0.025 A 
ATOM     38  N19 NZU d   1      26.750  13.524  21.247  0.00  0.00    -0.278 N 
ATOM     39  C17 NZU d   1      24.904  13.220  22.340  0.00  0.00     0.035 A 
ATOM     40  N18 NZU d   1      26.125  12.847  22.266  0.00  0.00    -0.186 NA
ATOM     41  H   NZU d   1      24.169  12.856  23.058  0.00  0.00     0.118 H 
ATOM     42  H   NZU d   1      27.728  13.421  20.976  0.00  0.00     0.189 HD
ENDBRANCH   8  29
BRANCH   1  43
ATOM     43  C1  NZU d   1      21.542  11.597  24.542  0.00  0.00     0.004 C 
ATOM     44  H   NZU d   1      21.617  11.707  25.624  0.00  0.00     0.059 H 
ATOM     45  H   NZU d   1      21.101  10.629  24.303  0.00  0.00     0.059 H 
ATOM     46  H   NZU d   1      22.536  11.663  24.099  0.00  0.00     0.059 H 
ENDBRANCH   1  43
TORSDOF 8
