REMARK  22 active torsions:
REMARK  status: ('A' for Active; 'I' for Inactive)
REMARK    1  A    between atoms: C_2  and  O2_3 
REMARK       I    between atoms: N_11  and  C_2 
REMARK    2  A    between atoms: O2_3  and  CT_4 
REMARK    3  A    between atoms: CT_4  and  C1_5 
REMARK    4  A    between atoms: CT_4  and  C2_6 
REMARK    5  A    between atoms: CT_4  and  C3_7 
REMARK    6  A    between atoms: CA_10  and  C_9 
REMARK       I    between atoms: C_9  and  N_27 
REMARK    7  A    between atoms: CA_10  and  N_11 
REMARK    8  A    between atoms: CA_10  and  CB_12 
REMARK    9  A    between atoms: CB_12  and  CG_13 
REMARK   10  A    between atoms: CZ_16  and  OH_19 
REMARK   11  A    between atoms: OH_19  and  C49_20 
REMARK   12  A    between atoms: C49_20  and  C50_21 
REMARK   13  A    between atoms: N_27  and  CA_28 
REMARK   14  A    between atoms: CA_28  and  C_29 
REMARK   15  A    between atoms: CA_28  and  CB_31 
REMARK       I    between atoms: C_29  and  N_32 
REMARK   16  A    between atoms: N_32  and  CA_33 
REMARK   17  A    between atoms: CA_33  and  CB_34 
REMARK   18  A    between atoms: CA_33  and  C_46 
REMARK   19  A    between atoms: CB_34  and  CG_35 
REMARK   20  A    between atoms: CG_35  and  OG_36 
REMARK       I    between atoms: C_46  and  N_48 
REMARK   21  A    between atoms: N_48  and  C_49 
REMARK   22  A    between atoms: C_49  and  C1_50 
ROOT
ATOM      1  O   TY5 d   1      10.885-139.255  21.638  0.00  0.00    -0.271 OA
ATOM      2  C   TY5 d   1      10.720-138.061  21.909  0.00  0.00     0.241 C 
ATOM      3  N   ALA d   1      10.163-137.140  21.063  0.00  0.00    -0.346 N 
ATOM      4  H25 ALA d   1      10.080-136.194  21.375  0.00  0.00     0.163 HD
ENDROOT
BRANCH   3   5
ATOM      5  CA  ALA d   1       9.685-137.478  19.726  0.00  0.00     0.086 C 
ATOM      6  H26 ALA d   1       9.422-138.546  19.713  0.00  0.00     0.086 H 
BRANCH   5   7
ATOM      7  C   ALA d   1      10.725-137.250  18.672  0.00  0.00     0.240 C 
ATOM      8  O   ALA d   1      11.435-136.259  18.710  0.00  0.00    -0.271 OA
ATOM      9  N   RE0 d   1      10.847-138.256  17.569  0.00  0.00    -0.346 N 
ATOM     10  H30 RE0 d   1      10.370-139.133  17.628  0.00  0.00     0.163 HD
BRANCH   9  11
ATOM     11  CA  RE0 d   1      11.667-137.939  16.414  0.00  0.00     0.093 C 
ATOM     12  H31 RE0 d   1      12.226-137.022  16.650  0.00  0.00     0.087 H 
BRANCH  11  13
ATOM     13  CB  RE0 d   1      12.706-139.039  16.049  0.00  0.00     0.004 C 
ATOM     14  H32 RE0 d   1      13.337-138.631  15.245  0.00  0.00     0.042 H 
ATOM     15  H33 RE0 d   1      12.140-139.902  15.668  0.00  0.00     0.042 H 
BRANCH  13  16
ATOM     16  CG  RE0 d   1      13.672-139.579  17.160  0.00  0.00     0.170 A 
ATOM     17  CD1 RE0 d   1      12.989-140.447  18.212  0.00  0.00     0.261 A 
ATOM     18  OD1 RE0 d   1      12.279-141.415  17.949  0.00  0.00    -0.269 OA
ATOM     19  NE1 RE0 d   1      13.296-139.998  19.440  0.00  0.00    -0.324 N 
ATOM     20  CE2 RE0 d   1      14.132-138.891  19.348  0.00  0.00     0.044 A 
ATOM     21  H35 RE0 d   1      12.971-140.401  20.296  0.00  0.00     0.169 HD
ATOM     22  CZ2 RE0 d   1      14.639-138.168  20.447  0.00  0.00    -0.057 A 
ATOM     23  CD2 RE0 d   1      14.405-138.550  18.015  0.00  0.00     0.012 A 
ATOM     24  CH2 RE0 d   1      15.473-137.062  20.154  0.00  0.00    -0.081 A 
ATOM     25  H36 RE0 d   1      14.402-138.446  21.468  0.00  0.00     0.086 H 
ATOM     26  CZ3 RE0 d   1      15.762-136.710  18.795  0.00  0.00    -0.082 A 
ATOM     27  H37 RE0 d   1      15.896-136.477  20.963  0.00  0.00     0.083 H 
ATOM     28  CE3 RE0 d   1      15.236-137.454  17.704  0.00  0.00    -0.071 A 
ATOM     29  H38 RE0 d   1      16.398-135.855  18.594  0.00  0.00     0.083 H 
ATOM     30  H39 RE0 d   1      15.464-137.190  16.677  0.00  0.00     0.084 H 
BRANCH  16  31
ATOM     31  OG  RE0 d   1      14.586-140.488  16.560  0.00  0.00    -0.375 OA
ATOM     32  H34 RE0 d   1      14.105-141.208  16.170  0.00  0.00     0.211 HD
ENDBRANCH  16  31
ENDBRANCH  13  16
ENDBRANCH  11  13
BRANCH  11  33
ATOM     33  C   RE0 d   1      10.777-137.661  15.203  0.00  0.00     0.240 C 
ATOM     34  O   RE0 d   1       9.687-138.216  15.174  0.00  0.00    -0.271 OA
ATOM     35  N   ABN d   1      11.208-136.826  14.199  0.00  0.00    -0.355 N 
ATOM     36  H40 ABN d   1      12.105-136.391  14.278  0.00  0.00     0.162 HD
BRANCH  35  37
ATOM     37  C   ABN d   1      10.373-136.553  12.998  0.00  0.00     0.019 C 
ATOM     38  H41 ABN d   1       9.638-137.362  12.877  0.00  0.00     0.071 H 
ATOM     39  H42 ABN d   1      11.020-136.511  12.110  0.00  0.00     0.071 H 
BRANCH  37  40
ATOM     40  C1  ABN d   1       9.626-135.205  13.148  0.00  0.00    -0.041 A 
ATOM     41  C2  ABN d   1       8.480-135.107  13.982  0.00  0.00    -0.075 A 
ATOM     42  C3  ABN d   1       7.794-133.860  14.117  0.00  0.00    -0.082 A 
ATOM     43  H43 ABN d   1       8.125-135.980  14.517  0.00  0.00     0.084 H 
ATOM     44  C4  ABN d   1       8.252-132.714  13.415  0.00  0.00    -0.083 A 
ATOM     45  H44 ABN d   1       6.922-133.789  14.757  0.00  0.00     0.083 H 
ATOM     46  C5  ABN d   1       9.395-132.812  12.580  0.00  0.00    -0.082 A 
ATOM     47  H45 ABN d   1       7.731-131.769  13.517  0.00  0.00     0.083 H 
ATOM     48  C6  ABN d   1      10.080-134.054  12.447  0.00  0.00    -0.075 A 
ATOM     49  H46 ABN d   1       9.748-131.940  12.042  0.00  0.00     0.083 H 
ATOM     50  H47 ABN d   1      10.953-134.122  11.807  0.00  0.00     0.084 H 
ENDBRANCH  37  40
ENDBRANCH  35  37
ENDBRANCH  11  33
ENDBRANCH   9  11
ENDBRANCH   5   7
BRANCH   5  51
ATOM     51  CB  ALA d   1       8.408-136.652  19.438  0.00  0.00    -0.049 C 
ATOM     52  H27 ALA d   1       8.033-136.895  18.433  0.00  0.00     0.030 H 
ATOM     53  H28 ALA d   1       8.645-135.579  19.492  0.00  0.00     0.030 H 
ATOM     54  H29 ALA d   1       7.638-136.895  20.185  0.00  0.00     0.030 H 
ENDBRANCH   5  51
ENDBRANCH   3   5
BRANCH   2  55
ATOM     55  CA  TY5 d   1      11.123-137.581  23.297  0.00  0.00     0.095 C 
ATOM     56  H10 TY5 d   1      10.790-136.541  23.431  0.00  0.00     0.088 H 
BRANCH  55  57
ATOM     57  N   TY5 d   1      10.422-138.443  24.292  0.00  0.00    -0.323 N 
ATOM     58  C   BOC d   1       9.055-138.549  24.318  0.00  0.00     0.362 C 
ATOM     59  O1  BOC d   1       8.323-137.954  23.550  0.00  0.00    -0.238 OA
ATOM     60  H11 TY5 d   1      10.963-138.957  24.958  0.00  0.00     0.165 HD
BRANCH  58  61
ATOM     61  O2  BOC d   1       8.638-139.413  25.293  0.00  0.00    -0.294 OA
BRANCH  61  62
ATOM     62  CT  BOC d   1       7.204-139.708  25.478  0.00  0.00     0.061 C 
BRANCH  62  63
ATOM     63  C1  BOC d   1       6.572-140.430  24.242  0.00  0.00    -0.048 C 
ATOM     64  H1  BOC d   1       5.507-140.624  24.436  0.00  0.00     0.031 H 
ATOM     65  H2  BOC d   1       7.093-141.383  24.069  0.00  0.00     0.031 H 
ATOM     66  H3  BOC d   1       6.672-139.790  23.353  0.00  0.00     0.031 H 
ENDBRANCH  62  63
BRANCH  62  67
ATOM     67  C2  BOC d   1       6.371-138.428  25.840  0.00  0.00    -0.048 C 
ATOM     68  H4  BOC d   1       5.313-138.702  25.966  0.00  0.00     0.031 H 
ATOM     69  H5  BOC d   1       6.464-137.689  25.030  0.00  0.00     0.031 H 
ATOM     70  H6  BOC d   1       6.752-137.995  26.777  0.00  0.00     0.031 H 
ENDBRANCH  62  67
BRANCH  62  71
ATOM     71  C3  BOC d   1       7.176-140.695  26.675  0.00  0.00    -0.048 C 
ATOM     72  H7  BOC d   1       6.136-140.978  26.893  0.00  0.00     0.031 H 
ATOM     73  H8  BOC d   1       7.617-140.212  27.559  0.00  0.00     0.031 H 
ATOM     74  H9  BOC d   1       7.755-141.595  26.422  0.00  0.00     0.031 H 
ENDBRANCH  62  71
ENDBRANCH  61  62
ENDBRANCH  58  61
ENDBRANCH  55  57
BRANCH  55  75
ATOM     75  CB  TY5 d   1      12.668-137.623  23.465  0.00  0.00    -0.014 C 
ATOM     76  H12 TY5 d   1      13.136-137.022  22.672  0.00  0.00     0.043 H 
ATOM     77  H13 TY5 d   1      13.014-138.664  23.388  0.00  0.00     0.043 H 
BRANCH  75  78
ATOM     78  CG  TY5 d   1      13.069-137.056  24.835  0.00  0.00    -0.056 A 
ATOM     79  CD2 TY5 d   1      13.360-137.917  25.933  0.00  0.00    -0.074 A 
ATOM     80  CE2 TY5 d   1      13.730-137.373  27.186  0.00  0.00    -0.050 A 
ATOM     81  H14 TY5 d   1      13.298-138.992  25.808  0.00  0.00     0.084 H 
ATOM     82  CZ  TY5 d   1      13.816-135.948  27.367  0.00  0.00     0.069 A 
ATOM     83  H15 TY5 d   1      13.950-138.035  28.016  0.00  0.00     0.087 H 
ATOM     84  CE1 TY5 d   1      13.522-135.100  26.267  0.00  0.00    -0.050 A 
ATOM     85  CD1 TY5 d   1      13.153-135.646  25.013  0.00  0.00    -0.074 A 
ATOM     86  H16 TY5 d   1      13.580-134.024  26.388  0.00  0.00     0.087 H 
ATOM     87  H17 TY5 d   1      12.933-134.985  24.183  0.00  0.00     0.084 H 
BRANCH  82  88
ATOM     88  OH  TY5 d   1      14.189-135.326  28.578  0.00  0.00    -0.347 OA
BRANCH  88  89
ATOM     89  C49 TY5 d   1      14.594-136.029  29.775  0.00  0.00     0.050 C 
ATOM     90  H18 TY5 d   1      13.891-136.858  29.945  0.00  0.00     0.082 H 
ATOM     91  H19 TY5 d   1      14.547-135.328  30.622  0.00  0.00     0.082 H 
BRANCH  89  92
ATOM     92  C50 TY5 d   1      16.028-136.612  29.702  0.00  0.00    -0.034 A 
ATOM     93  C51 TY5 d   1      17.075-135.874  29.082  0.00  0.00    -0.075 A 
ATOM     94  C52 TY5 d   1      18.388-136.413  29.016  0.00  0.00    -0.082 A 
ATOM     95  H20 TY5 d   1      16.870-134.897  28.659  0.00  0.00     0.084 H 
ATOM     96  C53 TY5 d   1      18.661-137.699  29.573  0.00  0.00    -0.083 A 
ATOM     97  H21 TY5 d   1      19.183-135.848  28.543  0.00  0.00     0.083 H 
ATOM     98  C54 TY5 d   1      17.616-138.442  30.194  0.00  0.00    -0.082 A 
ATOM     99  H22 TY5 d   1      19.663-138.110  29.523  0.00  0.00     0.083 H 
ATOM    100  C55 TY5 d   1      16.305-137.899  30.258  0.00  0.00    -0.075 A 
ATOM    101  H23 TY5 d   1      17.821-139.419  30.616  0.00  0.00     0.083 H 
ATOM    102  H24 TY5 d   1      15.510-138.464  30.731  0.00  0.00     0.084 H 
ENDBRANCH  89  92
ENDBRANCH  88  89
ENDBRANCH  82  88
ENDBRANCH  75  78
ENDBRANCH  55  75
ENDBRANCH   2  55
TORSDOF 22
