REMARK  22 active torsions:
REMARK  status: ('A' for Active; 'I' for Inactive)
REMARK    1  A    between atoms: C_2  and  O2_3 
REMARK       I    between atoms: N_11  and  C_2 
REMARK    2  A    between atoms: O2_3  and  CT_4 
REMARK    3  A    between atoms: CT_4  and  C1_5 
REMARK    4  A    between atoms: CT_4  and  C2_6 
REMARK    5  A    between atoms: CT_4  and  C3_7 
REMARK    6  A    between atoms: CA_10  and  C_9 
REMARK       I    between atoms: C_9  and  N_27 
REMARK    7  A    between atoms: CA_10  and  N_11 
REMARK    8  A    between atoms: CA_10  and  CB_12 
REMARK    9  A    between atoms: CB_12  and  CG_13 
REMARK   10  A    between atoms: CZ_16  and  OH_19 
REMARK   11  A    between atoms: OH_19  and  C49_20 
REMARK   12  A    between atoms: C49_20  and  C50_21 
REMARK   13  A    between atoms: N_27  and  CA_28 
REMARK   14  A    between atoms: CA_28  and  C_29 
REMARK   15  A    between atoms: CA_28  and  CB_31 
REMARK       I    between atoms: C_29  and  N_32 
REMARK   16  A    between atoms: N_32  and  CA_33 
REMARK   17  A    between atoms: CA_33  and  CB_34 
REMARK   18  A    between atoms: CA_33  and  C_46 
REMARK   19  A    between atoms: CB_34  and  CG_35 
REMARK   20  A    between atoms: CG_35  and  OG_36 
REMARK       I    between atoms: C_46  and  N_48 
REMARK   21  A    between atoms: N_48  and  C_49 
REMARK   22  A    between atoms: C_49  and  C1_50 
ROOT
ATOM      1  O   TY5 d   1      11.169-139.101  21.317  0.00  0.00    -0.271 OA
ATOM      2  C   TY5 d   1      10.647-138.053  21.767  0.00  0.00     0.241 C 
ATOM      3  N   ALA d   1       9.778-137.290  21.042  0.00  0.00    -0.346 N 
ATOM      4  H   ALA d   1       9.389-136.466  21.501  0.00  0.00     0.163 HD
ENDROOT
BRANCH   3   5
ATOM      5  CA  ALA d   1       9.353-137.549  19.661  0.00  0.00     0.086 C 
ATOM      6  H   ALA d   1       8.995-138.579  19.657  0.00  0.00     0.086 H 
BRANCH   5   7
ATOM      7  C   ALA d   1      10.498-137.356  18.631  0.00  0.00     0.240 C 
ATOM      8  O   ALA d   1      11.299-136.441  18.753  0.00  0.00    -0.271 OA
ATOM      9  N   RE3 d   1      10.540-138.223  17.575  0.00  0.00    -0.346 N 
ATOM     10  H   RE3 d   1       9.835-138.960  17.551  0.00  0.00     0.163 HD
BRANCH   9  11
ATOM     11  CA  RE3 d   1      11.490-138.189  16.493  0.00  0.00     0.093 C 
ATOM     12  H   RE3 d   1      12.231-137.400  16.626  0.00  0.00     0.087 H 
BRANCH  11  13
ATOM     13  CB  RE3 d   1      12.193-139.518  16.436  0.00  0.00     0.004 C 
ATOM     14  H   RE3 d   1      12.079-139.833  15.399  0.00  0.00     0.042 H 
ATOM     15  H   RE3 d   1      11.745-140.088  17.250  0.00  0.00     0.042 H 
BRANCH  13  16
ATOM     16  CG  RE3 d   1      13.692-139.627  16.691  0.00  0.00     0.170 A 
ATOM     17  CD1 RE3 d   1      14.520-138.792  15.693  0.00  0.00     0.261 A 
ATOM     18  OD1 RE3 d   1      14.482-138.962  14.499  0.00  0.00    -0.269 OA
ATOM     19  NE1 RE3 d   1      15.275-137.867  16.343  0.00  0.00    -0.324 N 
ATOM     20  CE2 RE3 d   1      15.039-137.965  17.710  0.00  0.00     0.044 A 
ATOM     21  H   RE3 d   1      15.913-137.206  15.899  0.00  0.00     0.169 HD
ATOM     22  CZ2 RE3 d   1      15.648-137.177  18.717  0.00  0.00    -0.057 A 
ATOM     23  CD2 RE3 d   1      14.128-139.007  18.019  0.00  0.00     0.012 A 
ATOM     24  CH2 RE3 d   1      15.279-137.439  20.072  0.00  0.00    -0.081 A 
ATOM     25  H   RE3 d   1      16.371-136.400  18.468  0.00  0.00     0.086 H 
ATOM     26  CZ3 RE3 d   1      14.361-138.481  20.382  0.00  0.00    -0.082 A 
ATOM     27  H   RE3 d   1      15.704-136.836  20.875  0.00  0.00     0.083 H 
ATOM     28  CE3 RE3 d   1      13.753-139.274  19.364  0.00  0.00    -0.071 A 
ATOM     29  H   RE3 d   1      14.116-138.679  21.425  0.00  0.00     0.083 H 
ATOM     30  H   RE3 d   1      13.030-140.053  19.608  0.00  0.00     0.084 H 
BRANCH  16  31
ATOM     31  OG  RE3 d   1      14.130-141.012  16.615  0.00  0.00    -0.375 OA
ATOM     32  H   RE3 d   1      15.075-141.057  16.778  0.00  0.00     0.211 HD
ENDBRANCH  16  31
ENDBRANCH  13  16
ENDBRANCH  11  13
BRANCH  11  33
ATOM     33  C   RE3 d   1      10.687-137.960  15.195  0.00  0.00     0.240 C 
ATOM     34  O   RE3 d   1       9.697-138.704  14.958  0.00  0.00    -0.271 OA
ATOM     35  N   ABN d   1      11.052-136.928  14.342  0.00  0.00    -0.355 N 
ATOM     36  H   ABN d   1      11.860-136.351  14.576  0.00  0.00     0.162 HD
BRANCH  35  37
ATOM     37  C   ABN d   1      10.315-136.650  13.129  0.00  0.00     0.019 C 
ATOM     38  H   ABN d   1       9.554-137.418  12.993  0.00  0.00     0.071 H 
ATOM     39  H   ABN d   1      11.007-136.645  12.287  0.00  0.00     0.071 H 
BRANCH  37  40
ATOM     40  C1  ABN d   1       9.621-135.262  13.220  0.00  0.00    -0.041 A 
ATOM     41  C2  ABN d   1       8.444-135.085  13.988  0.00  0.00    -0.075 A 
ATOM     42  C3  ABN d   1       7.812-133.791  14.065  0.00  0.00    -0.082 A 
ATOM     43  H   ABN d   1       8.014-135.931  14.524  0.00  0.00     0.084 H 
ATOM     44  C4  ABN d   1       8.369-132.674  13.360  0.00  0.00    -0.083 A 
ATOM     45  H   ABN d   1       6.908-133.662  14.661  0.00  0.00     0.083 H 
ATOM     46  C5  ABN d   1       9.554-132.847  12.578  0.00  0.00    -0.082 A 
ATOM     47  H   ABN d   1       7.891-131.696  13.420  0.00  0.00     0.083 H 
ATOM     48  C6  ABN d   1      10.182-134.145  12.508  0.00  0.00    -0.075 A 
ATOM     49  H   ABN d   1       9.981-132.002  12.037  0.00  0.00     0.083 H 
ATOM     50  H   ABN d   1      11.085-134.279  11.913  0.00  0.00     0.084 H 
ENDBRANCH  37  40
ENDBRANCH  35  37
ENDBRANCH  11  33
ENDBRANCH   9  11
ENDBRANCH   5   7
BRANCH   5  51
ATOM     51  CB  ALA d   1       8.290-136.516  19.240  0.00  0.00    -0.049 C 
ATOM     52  H   ALA d   1       7.428-136.592  19.903  0.00  0.00     0.030 H 
ATOM     53  H   ALA d   1       8.713-135.514  19.306  0.00  0.00     0.030 H 
ATOM     54  H   ALA d   1       7.979-136.714  18.214  0.00  0.00     0.030 H 
ENDBRANCH   5  51
ENDBRANCH   3   5
BRANCH   2  55
ATOM     55  CA  TY5 d   1      10.947-137.612  23.181  0.00  0.00     0.095 C 
ATOM     56  H   TY5 d   1      10.647-136.579  23.357  0.00  0.00     0.088 H 
BRANCH  55  57
ATOM     57  N   TY5 d   1      10.188-138.536  24.083  0.00  0.00    -0.323 N 
ATOM     58  C   BOC d   1       8.806-138.649  24.052  0.00  0.00     0.362 C 
ATOM     59  O1  BOC d   1       8.089-138.009  23.274  0.00  0.00    -0.238 OA
ATOM     60  H   TY5 d   1      10.710-139.107  24.748  0.00  0.00     0.165 HD
BRANCH  58  61
ATOM     61  O2  BOC d   1       8.341-139.548  24.967  0.00  0.00    -0.294 OA
BRANCH  61  62
ATOM     62  CT  BOC d   1       6.889-139.826  25.064  0.00  0.00     0.061 C 
BRANCH  62  63
ATOM     63  C1  BOC d   1       6.331-140.518  23.767  0.00  0.00    -0.048 C 
ATOM     64  H   BOC d   1       6.936-141.394  23.535  0.00  0.00     0.031 H 
ATOM     65  H   BOC d   1       5.298-140.823  23.935  0.00  0.00     0.031 H 
ATOM     66  H   BOC d   1       6.373-139.815  22.935  0.00  0.00     0.031 H 
ENDBRANCH  62  63
BRANCH  62  67
ATOM     67  C2  BOC d   1       6.036-138.597  25.502  0.00  0.00    -0.048 C 
ATOM     68  H   BOC d   1       5.003-138.909  25.654  0.00  0.00     0.031 H 
ATOM     69  H   BOC d   1       6.435-138.192  26.432  0.00  0.00     0.031 H 
ATOM     70  H   BOC d   1       6.075-137.833  24.725  0.00  0.00     0.031 H 
ENDBRANCH  62  67
BRANCH  62  71
ATOM     71  C3  BOC d   1       6.799-140.882  26.204  0.00  0.00    -0.048 C 
ATOM     72  H   BOC d   1       7.191-140.453  27.127  0.00  0.00     0.031 H 
ATOM     73  H   BOC d   1       5.758-141.170  26.349  0.00  0.00     0.031 H 
ATOM     74  H   BOC d   1       7.386-141.759  25.932  0.00  0.00     0.031 H 
ENDBRANCH  62  71
ENDBRANCH  61  62
ENDBRANCH  58  61
ENDBRANCH  55  57
BRANCH  55  75
ATOM     75  CB  TY5 d   1      12.489-137.693  23.447  0.00  0.00    -0.014 C 
ATOM     76  H   TY5 d   1      12.986-137.045  22.726  0.00  0.00     0.043 H 
ATOM     77  H   TY5 d   1      12.789-138.737  23.355  0.00  0.00     0.043 H 
BRANCH  75  78
ATOM     78  CG  TY5 d   1      12.881-137.210  24.869  0.00  0.00    -0.056 A 
ATOM     79  CD2 TY5 d   1      13.163-138.136  25.918  0.00  0.00    -0.074 A 
ATOM     80  CE2 TY5 d   1      13.536-137.680  27.204  0.00  0.00    -0.050 A 
ATOM     81  H   TY5 d   1      13.090-139.207  25.726  0.00  0.00     0.084 H 
ATOM     82  CZ  TY5 d   1      13.635-136.248  27.456  0.00  0.00     0.069 A 
ATOM     83  H   TY5 d   1      13.748-138.394  28.000  0.00  0.00     0.087 H 
ATOM     84  CE1 TY5 d   1      13.351-135.357  26.409  0.00  0.00    -0.050 A 
ATOM     85  CD1 TY5 d   1      12.981-135.832  25.142  0.00  0.00    -0.074 A 
ATOM     86  H   TY5 d   1      13.419-134.283  26.583  0.00  0.00     0.087 H 
ATOM     87  H   TY5 d   1      12.765-135.116  24.349  0.00  0.00     0.084 H 
BRANCH  82  88
ATOM     88  OH  TY5 d   1      14.001-135.668  28.706  0.00  0.00    -0.347 OA
BRANCH  88  89
ATOM     89  C49 TY5 d   1      14.474-136.404  29.849  0.00  0.00     0.050 C 
ATOM     90  H   TY5 d   1      13.809-137.256  29.987  0.00  0.00     0.082 H 
ATOM     91  H   TY5 d   1      14.487-135.718  30.696  0.00  0.00     0.082 H 
BRANCH  89  92
ATOM     92  C50 TY5 d   1      15.881-136.948  29.683  0.00  0.00    -0.034 A 
ATOM     93  C51 TY5 d   1      16.867-136.181  28.989  0.00  0.00    -0.075 A 
ATOM     94  C52 TY5 d   1      18.182-136.684  28.836  0.00  0.00    -0.082 A 
ATOM     95  H   TY5 d   1      16.606-135.206  28.576  0.00  0.00     0.084 H 
ATOM     96  C53 TY5 d   1      18.521-137.961  29.377  0.00  0.00    -0.083 A 
ATOM     97  H   TY5 d   1      18.933-136.098  28.307  0.00  0.00     0.083 H 
ATOM     98  C54 TY5 d   1      17.538-138.733  30.072  0.00  0.00    -0.082 A 
ATOM     99  H   TY5 d   1      19.533-138.349  29.260  0.00  0.00     0.083 H 
ATOM    100  C55 TY5 d   1      16.215-138.221  30.224  0.00  0.00    -0.075 A 
ATOM    101  H   TY5 d   1      17.798-139.708  30.484  0.00  0.00     0.083 H 
ATOM    102  H   TY5 d   1      15.461-138.804  30.754  0.00  0.00     0.084 H 
ENDBRANCH  89  92
ENDBRANCH  88  89
ENDBRANCH  82  88
ENDBRANCH  75  78
ENDBRANCH  55  75
ENDBRANCH   2  55
TORSDOF 22
