REMARK WARNING: 32 MAX_TORS EXCEEDED!!!
REMARK  38 active torsions:
REMARK  status: ('A' for Active; 'I' for Inactive)
REMARK    1  A    between atoms: N_1  and  CA_2 
REMARK    2  A    between atoms: CA_2  and  C_3 
REMARK    3  A    between atoms: CA_2  and  CB_5 
REMARK       I    between atoms: C_3  and  N_7 
REMARK    4  A    between atoms: CB_5  and  OG_6 
REMARK    5  A    between atoms: N_7  and  CA_8 
REMARK    6  A    between atoms: CA_8  and  C_9 
REMARK       I    between atoms: C_9  and  N_11 
REMARK    7  A    between atoms: N_11  and  CA_12 
REMARK    8  A    between atoms: CA_12  and  C_13 
REMARK       I    between atoms: C_13  and  N_15 
REMARK    9  A    between atoms: N_15  and  CA_16 
REMARK   10  A    between atoms: CA_16  and  C_17 
REMARK       I    between atoms: C_17  and  N_19 
REMARK   11  A    between atoms: N_19  and  CA_20 
REMARK   12  A    between atoms: CA_20  and  C_21 
REMARK       I    between atoms: C_21  and  N_23 
REMARK   13  A    between atoms: N_23  and  CA_24 
REMARK   14  A    between atoms: CA_24  and  C_25 
REMARK   15  A    between atoms: CA_24  and  CB_27 
REMARK       I    between atoms: C_25  and  N_34 
REMARK   16  A    between atoms: CB_27  and  CG_28 
REMARK   17  A    between atoms: CG_28  and  CD_29 
REMARK   18  A    between atoms: CD_29  and  NE_30 
REMARK       I    between atoms: NE_30  and  CZ_31 
REMARK       I    between atoms: CZ_31  and  NH1_32 
REMARK   19  A    between atoms: N_34  and  CA_35 
REMARK   20  A    between atoms: CA_35  and  C_36 
REMARK       I    between atoms: C_36  and  N_38 
REMARK   21  A    between atoms: N_38  and  CA_39 
REMARK   22  A    between atoms: CA_39  and  C_40 
REMARK       I    between atoms: C_40  and  N_42 
REMARK   23  A    between atoms: N_42  and  CA_43 
REMARK   24  A    between atoms: CA_43  and  C_44 
REMARK   25  A    between atoms: CA_43  and  CB_46 
REMARK       I    between atoms: C_44  and  N_50 
REMARK   26  A    between atoms: CB_46  and  CG_47 
REMARK       I    between atoms: CG_47  and  ND2_49 
REMARK   27  A    between atoms: N_50  and  CA_51 
REMARK   28  A    between atoms: CA_51  and  C_52 
REMARK       I    between atoms: C_52  and  N_54 
REMARK   29  A    between atoms: N_54  and  CA_55 
REMARK   30  A    between atoms: CA_55  and  C_56 
REMARK       I    between atoms: C_56  and  N_58 
REMARK   31  A    between atoms: N_58  and  CA_59 
REMARK   32  A    between atoms: CA_59  and  C_60 
REMARK       I    between atoms: C_60  and  N_62 
REMARK   33  A    between atoms: N_62  and  CA_63 
REMARK   34  A    between atoms: CA_63  and  C_64 
REMARK       I    between atoms: C_64  and  N_66 
REMARK   35  A    between atoms: N_66  and  CA_67 
REMARK   36  A    between atoms: CA_67  and  C_68 
REMARK       I    between atoms: C_68  and  N_70 
REMARK   37  A    between atoms: N_70  and  CA_71 
REMARK   38  A    between atoms: CA_71  and  C_72 
ROOT
ATOM      1  CA  GLY d   1       2.323   1.769  25.006  0.00  0.00     0.069 C 
ATOM      2  H   GLY d   1       3.020   1.532  24.202  0.00  0.00     0.078 H 
ATOM      3  H   GLY d   1       2.752   2.442  25.749  0.00  0.00     0.078 H 
ENDROOT
BRANCH   1   4
ATOM      4  N   GLY d   1       1.970   0.506  25.687  0.00  0.00    -0.351 N 
ATOM      5  C   ARG d   1       2.856  -0.282  26.293  0.00  0.00     0.240 C 
ATOM      6  O   ARG d   1       4.059  -0.027  26.313  0.00  0.00    -0.271 OA
ATOM      7  H   GLY d   1       0.991   0.221  25.693  0.00  0.00     0.163 HD
BRANCH   5   8
ATOM      8  CA  ARG d   1       2.293  -1.544  27.009  0.00  0.00     0.089 C 
ATOM      9  H   ARG d   1       2.117  -2.336  26.282  0.00  0.00     0.087 H 
BRANCH   8  10
ATOM     10  N   ARG d   1       3.262  -2.060  28.003  0.00  0.00    -0.346 N 
ATOM     11  C   GLY d   1       3.560  -3.337  28.316  0.00  0.00     0.236 C 
ATOM     12  O   GLY d   1       4.336  -3.593  29.246  0.00  0.00    -0.272 OA
ATOM     13  H   ARG d   1       3.776  -1.349  28.524  0.00  0.00     0.163 HD
BRANCH  11  14
ATOM     14  CA  GLY d   1       2.926  -4.514  27.564  0.00  0.00     0.069 C 
ATOM     15  H   GLY d   1       1.846  -4.379  27.511  0.00  0.00     0.078 H 
ATOM     16  H   GLY d   1       3.324  -4.562  26.550  0.00  0.00     0.078 H 
BRANCH  14  17
ATOM     17  N   GLY d   1       3.244  -5.781  28.295  0.00  0.00    -0.351 N 
ATOM     18  C   ASP d   1       3.099  -7.028  27.821  0.00  0.00     0.235 C 
ATOM     19  O   ASP d   1       2.657  -7.296  26.703  0.00  0.00    -0.272 OA
ATOM     20  H   GLY d   1       3.606  -5.688  29.244  0.00  0.00     0.163 HD
BRANCH  18  21
ATOM     21  CA  ASP d   1       3.539  -8.137  28.759  0.00  0.00     0.069 C 
ATOM     22  H   ASP d   1       2.907  -8.126  29.647  0.00  0.00     0.078 H 
ATOM     23  H   ASP d   1       3.450  -9.095  28.247  0.00  0.00     0.078 H 
BRANCH  21  24
ATOM     24  N   ASP d   1       4.937  -7.934  29.161  0.00  0.00    -0.351 N 
ATOM     25  C   GLY d   1       5.279  -7.634  30.408  0.00  0.00     0.235 C 
ATOM     26  O   GLY d   1       4.458  -7.563  31.319  0.00  0.00    -0.272 OA
ATOM     27  H   ASP d   1       5.670  -8.027  28.458  0.00  0.00     0.163 HD
BRANCH  25  28
ATOM     28  CA  GLY d   1       6.761  -7.405  30.679  0.00  0.00     0.069 C 
ATOM     29  H   GLY d   1       7.255  -8.377  30.698  0.00  0.00     0.078 H 
ATOM     30  H   GLY d   1       7.151  -6.756  29.895  0.00  0.00     0.078 H 
BRANCH  28  31
ATOM     31  N   GLY d   1       6.998  -6.749  31.972  0.00  0.00    -0.351 N 
ATOM     32  C   GLY d   1       7.945  -7.119  32.839  0.00  0.00     0.235 C 
ATOM     33  O   GLY d   1       8.755  -8.005  32.629  0.00  0.00    -0.272 OA
ATOM     34  H   GLY d   1       6.402  -5.961  32.224  0.00  0.00     0.163 HD
BRANCH  32  35
ATOM     35  CA  GLY d   1       7.934  -6.407  34.166  0.00  0.00     0.069 C 
ATOM     36  H   GLY d   1       7.030  -5.801  34.106  0.00  0.00     0.078 H 
ATOM     37  H   GLY d   1       8.077  -7.221  34.876  0.00  0.00     0.078 H 
BRANCH  35  38
ATOM     38  N   GLY d   1       8.953  -5.428  34.586  0.00  0.00    -0.350 N 
ATOM     39  C   SER d   1       9.134  -4.247  33.994  0.00  0.00     0.250 C 
ATOM     40  O   SER d   1       8.890  -4.042  32.808  0.00  0.00    -0.271 OA
ATOM     41  H   GLY d   1       9.554  -5.668  35.374  0.00  0.00     0.163 HD
BRANCH  39  42
ATOM     42  CA  SER d   1       9.718  -3.139  34.873  0.00  0.00     0.195 C 
ATOM     43  H   SER d   1      10.399  -3.585  35.598  0.00  0.00     0.102 H 
BRANCH  42  44
ATOM     44  N   SER d   1      10.515  -2.169  34.071  0.00  0.00    -0.064 N 
ATOM     45  H   SER d   1      11.267  -2.663  33.591  0.00  0.00     0.275 HD
ATOM     46  H   SER d   1       9.910  -1.719  33.384  0.00  0.00     0.275 HD
ATOM     47  H   SER d   1      10.912  -1.463  34.691  0.00  0.00     0.275 HD
ENDBRANCH  42  44
BRANCH  42  48
ATOM     48  CB  SER d   1       8.564  -2.426  35.619  0.00  0.00     0.051 C 
ATOM     49  H   SER d   1       7.868  -3.194  35.958  0.00  0.00     0.077 H 
ATOM     50  H   SER d   1       8.118  -1.712  34.927  0.00  0.00     0.077 H 
BRANCH  48  51
ATOM     51  OG  SER d   1       8.994  -1.701  36.765  0.00  0.00    -0.398 OA
ATOM     52  H   SER d   1       8.236  -1.284  37.181  0.00  0.00     0.209 HD
ENDBRANCH  48  51
ENDBRANCH  42  48
ENDBRANCH  39  42
ENDBRANCH  35  38
ENDBRANCH  32  35
ENDBRANCH  28  31
ENDBRANCH  25  28
ENDBRANCH  21  24
ENDBRANCH  18  21
ENDBRANCH  14  17
ENDBRANCH  11  14
ENDBRANCH   8  10
BRANCH   8  53
ATOM     53  CB  ARG d   1       0.967  -1.148  27.703  0.00  0.00    -0.036 C 
ATOM     54  H   ARG d   1       0.435  -0.509  26.998  0.00  0.00     0.036 H 
ATOM     55  H   ARG d   1       1.247  -0.693  28.653  0.00  0.00     0.036 H 
BRANCH  53  56
ATOM     56  CG  ARG d   1       0.014  -2.288  28.044  0.00  0.00    -0.048 C 
ATOM     57  H   ARG d   1       0.538  -3.239  27.945  0.00  0.00     0.035 H 
ATOM     58  H   ARG d   1      -0.836  -2.265  27.362  0.00  0.00     0.035 H 
BRANCH  56  59
ATOM     59  CD  ARG d   1      -0.473  -2.134  29.449  0.00  0.00     0.009 C 
ATOM     60  H   ARG d   1      -1.216  -1.336  29.470  0.00  0.00     0.064 H 
ATOM     61  H   ARG d   1       0.382  -1.905  30.086  0.00  0.00     0.064 H 
BRANCH  59  62
ATOM     62  NE  ARG d   1      -1.100  -3.361  29.941  0.00  0.00    -0.227 N 
ATOM     63  CZ  ARG d   1      -1.211  -3.707  31.234  0.00  0.00     0.665 C 
ATOM     64  NH1 ARG d   1      -0.717  -2.931  32.203  0.00  0.00    -0.235 N 
ATOM     65  NH2 ARG d   1      -1.815  -4.847  31.567  0.00  0.00    -0.235 N 
ATOM     66  H   ARG d   1      -0.245  -2.058  31.967  0.00  0.00     0.174 HD
ATOM     67  H   ARG d   1      -0.812  -3.212  33.179  0.00  0.00     0.174 HD
ATOM     68  H   ARG d   1      -2.192  -5.455  30.840  0.00  0.00     0.174 HD
ATOM     69  H   ARG d   1      -1.900  -5.111  32.548  0.00  0.00     0.174 HD
ATOM     70  H   ARG d   1      -1.483  -4.004  29.248  0.00  0.00     0.177 HD
ENDBRANCH  59  62
ENDBRANCH  56  59
ENDBRANCH  53  56
ENDBRANCH   8  53
ENDBRANCH   5   8
ENDBRANCH   1   4
BRANCH   1  71
ATOM     71  C   GLY d   1       1.101   2.469  24.383  0.00  0.00     0.235 C 
ATOM     72  O   GLY d   1       1.252   3.392  23.574  0.00  0.00    -0.272 OA
ATOM     73  N   HIS d   1      -0.108   2.033  24.765  0.00  0.00    -0.351 N 
ATOM     74  H   HIS d   1      -0.153   1.275  25.446  0.00  0.00     0.163 HD
BRANCH  73  75
ATOM     75  CA  HIS d   1      -1.370   2.586  24.258  0.00  0.00     0.069 C 
ATOM     76  H   HIS d   1      -1.921   1.760  23.809  0.00  0.00     0.078 H 
ATOM     77  H   HIS d   1      -1.111   3.388  23.567  0.00  0.00     0.078 H 
BRANCH  75  78
ATOM     78  C   HIS d   1      -2.280   3.199  25.335  0.00  0.00     0.236 C 
ATOM     79  O   HIS d   1      -2.563   2.576  26.349  0.00  0.00    -0.272 OA
ATOM     80  N   ASN d   1      -2.709   4.440  25.099  0.00  0.00    -0.346 N 
ATOM     81  H   ASN d   1      -2.245   4.963  24.356  0.00  0.00     0.163 HD
BRANCH  80  82
ATOM     82  CA  ASN d   1      -3.797   5.114  25.824  0.00  0.00     0.097 C 
ATOM     83  H   ASN d   1      -4.677   4.472  25.787  0.00  0.00     0.088 H 
BRANCH  82  84
ATOM     84  C   ASN d   1      -4.144   6.453  25.135  0.00  0.00     0.241 C 
ATOM     85  O   ASN d   1      -3.301   7.080  24.505  0.00  0.00    -0.271 OA
ATOM     86  N   THR d   1      -5.392   6.882  25.275  0.00  0.00    -0.351 N 
ATOM     87  H   THR d   1      -5.998   6.385  25.928  0.00  0.00     0.163 HD
BRANCH  86  88
ATOM     88  CA  THR d   1      -5.953   8.023  24.551  0.00  0.00     0.069 C 
ATOM     89  H   THR d   1      -5.382   8.272  23.656  0.00  0.00     0.078 H 
ATOM     90  H   THR d   1      -5.925   8.943  25.135  0.00  0.00     0.078 H 
BRANCH  88  91
ATOM     91  C   THR d   1      -7.367   7.580  24.233  0.00  0.00     0.235 C 
ATOM     92  O   THR d   1      -7.684   7.298  23.083  0.00  0.00    -0.272 OA
ATOM     93  N   GLY d   1      -8.203   7.457  25.275  0.00  0.00    -0.351 N 
ATOM     94  H   GLY d   1      -7.882   7.788  26.185  0.00  0.00     0.163 HD
BRANCH  93  95
ATOM     95  CA  GLY d   1      -9.557   6.874  25.192  0.00  0.00     0.069 C 
ATOM     96  H   GLY d   1      -9.694   6.465  24.191  0.00  0.00     0.078 H 
ATOM     97  H   GLY d   1     -10.283   7.658  25.409  0.00  0.00     0.078 H 
BRANCH  95  98
ATOM     98  C   GLY d   1      -9.748   5.753  26.198  0.00  0.00     0.235 C 
ATOM     99  O   GLY d   1      -8.811   4.995  26.455  0.00  0.00    -0.272 OA
ATOM    100  N   ALA d   1     -10.943   5.630  26.774  0.00  0.00    -0.351 N 
ATOM    101  H   ALA d   1     -11.703   6.252  26.499  0.00  0.00     0.163 HD
BRANCH 100 102
ATOM    102  CA  ALA d   1     -11.177   4.601  27.808  0.00  0.00     0.069 C 
ATOM    103  H   ALA d   1     -10.967   5.092  28.758  0.00  0.00     0.078 H 
ATOM    104  H   ALA d   1     -10.553   3.755  27.521  0.00  0.00     0.078 H 
BRANCH 102 105
ATOM    105  C   ALA d   1     -12.584   4.036  27.948  0.00  0.00     0.235 C 
ATOM    106  O   ALA d   1     -13.342   3.985  26.977  0.00  0.00    -0.272 OA
ATOM    107  N   HIS d   1     -12.928   3.604  29.164  0.00  0.00    -0.351 N 
ATOM    108  H   HIS d   1     -12.240   3.651  29.915  0.00  0.00     0.163 HD
BRANCH 107 109
ATOM    109  CA  HIS d   1     -14.266   3.061  29.460  0.00  0.00     0.069 C 
ATOM    110  H   HIS d   1     -14.197   1.986  29.294  0.00  0.00     0.078 H 
ATOM    111  H   HIS d   1     -14.960   3.611  28.825  0.00  0.00     0.078 H 
BRANCH 109 112
ATOM    112  C   HIS d   1     -14.776   3.235  30.891  0.00  0.00     0.235 C 
ATOM    113  O   HIS d   1     -14.146   2.782  31.849  0.00  0.00    -0.272 OA
ATOM    114  N   SER d   1     -15.927   3.896  31.027  0.00  0.00    -0.351 N 
ATOM    115  H   SER d   1     -16.360   4.294  30.193  0.00  0.00     0.163 HD
BRANCH 114 116
ATOM    116  CA  SER d   1     -16.602   4.079  32.321  0.00  0.00     0.069 C 
ATOM    117  H   SER d   1     -17.016   5.086  32.364  0.00  0.00     0.078 H 
ATOM    118  H   SER d   1     -15.878   3.927  33.122  0.00  0.00     0.078 H 
BRANCH 116 119
ATOM    119  C   SER d   1     -17.733   3.074  32.482  0.00  0.00     0.235 C 
ATOM    120  O   SER d   1     -17.551   1.895  32.191  0.00  0.00    -0.272 OA
ATOM    121  N   THR d   1     -18.900   3.525  32.939  0.00  0.00    -0.350 N 
ATOM    122  H   THR d   1     -19.000   4.516  33.159  0.00  0.00     0.163 HD
BRANCH 121 123
ATOM    123  CA  THR d   1     -20.046   2.629  33.133  0.00  0.00     0.075 C 
ATOM    124  H   THR d   1     -19.841   2.027  34.018  0.00  0.00     0.080 H 
ATOM    125  H   THR d   1     -20.160   2.045  32.220  0.00  0.00     0.080 H 
BRANCH 123 126
ATOM    126  C   THR d   1     -21.359   3.354  33.373  0.00  0.00     0.191 C 
ATOM    127  O   THR d   1     -21.665   3.790  34.515  0.00  0.00    -0.647 OA
ATOM    128  O   THR d   1     -22.157   3.522  32.413  0.00  0.00    -0.647 OA
ENDBRANCH 123 126
ENDBRANCH 121 123
ENDBRANCH 116 119
ENDBRANCH 114 116
ENDBRANCH 109 112
ENDBRANCH 107 109
ENDBRANCH 102 105
ENDBRANCH 100 102
ENDBRANCH  95  98
ENDBRANCH  93  95
ENDBRANCH  88  91
ENDBRANCH  86  88
ENDBRANCH  82  84
BRANCH  82 129
ATOM    129  CB  ASN d   1      -3.468   5.304  27.319  0.00  0.00     0.036 C 
ATOM    130  H   ASN d   1      -2.747   6.117  27.397  0.00  0.00     0.051 H 
ATOM    131  H   ASN d   1      -3.089   4.354  27.696  0.00  0.00     0.051 H 
BRANCH 129 132
ATOM    132  CG  ASN d   1      -4.711   5.692  28.181  0.00  0.00     0.217 C 
ATOM    133  OD1 ASN d   1      -5.661   4.927  28.332  0.00  0.00    -0.274 OA
ATOM    134  ND2 ASN d   1      -4.672   6.878  28.762  0.00  0.00    -0.370 N 
ATOM    135  H   ASN d   1      -5.444   7.181  29.355  0.00  0.00     0.159 HD
ATOM    136  H   ASN d   1      -3.869   7.491  28.617  0.00  0.00     0.159 HD
ENDBRANCH 129 132
ENDBRANCH  82 129
ENDBRANCH  80  82
ENDBRANCH  75  78
ENDBRANCH  73  75
ENDBRANCH   1  71
TORSDOF 38
