REMARK  6 active torsions:
REMARK  status: ('A' for Active; 'I' for Inactive)
REMARK    1  A    between atoms: CAH_8  and  NAA_2 
REMARK    2  A    between atoms: CAF_6  and  CAE_5 
REMARK    3  A    between atoms: CAG_7  and  CAF_6 
REMARK    4  A    between atoms: CAN_14  and  NAX_24 
REMARK    5  A    between atoms: NAS_19  and  CAR_18 
REMARK    6  A    between atoms: NAS_19  and  CAT_20 
ROOT
ATOM      1  CAG 3O0 d   1      -6.639  59.200  59.377  0.00  0.00     0.104 A 
ATOM      2  CAH 3O0 d   1      -6.867  59.411  58.011  0.00  0.00     0.145 A 
ATOM      3  NAI 3O0 d   1      -6.429  60.602  57.539  0.00  0.00    -0.205 NA
ATOM      4  SAQ 3O0 d   1      -5.860  60.572  59.982  0.00  0.00    -0.044 SA
ATOM      5  CAR 3O0 d   1      -5.848  61.380  58.474  0.00  0.00     0.174 A 
ENDROOT
BRANCH   1   6
ATOM      6  CAF 3O0 d   1      -7.043  57.958  60.184  0.00  0.00     0.203 C 
ATOM      7  OAP 3O0 d   1      -7.521  56.981  59.618  0.00  0.00    -0.286 OA
BRANCH   6   8
ATOM      8  CAE 3O0 d   1      -6.876  57.933  61.700  0.00  0.00     0.018 A 
ATOM      9  CAD 3O0 d   1      -6.987  59.086  62.471  0.00  0.00    -0.069 A 
ATOM     10  CAC 3O0 d   1      -6.832  59.024  63.858  0.00  0.00    -0.080 A 
ATOM     11  H   3O0 d   1      -7.196  60.042  61.991  0.00  0.00     0.085 H 
ATOM     12  CAM 3O0 d   1      -6.566  57.800  64.476  0.00  0.00    -0.051 A 
ATOM     13  H   3O0 d   1      -6.919  59.930  64.457  0.00  0.00     0.083 H 
ATOM     14  CAN 3O0 d   1      -6.464  56.647  63.698  0.00  0.00     0.103 A 
ATOM     15  H   3O0 d   1      -6.439  57.746  65.557  0.00  0.00     0.087 H 
ATOM     16  CAO 3O0 d   1      -6.623  56.717  62.319  0.00  0.00    -0.037 A 
ATOM     17  H   3O0 d   1      -6.548  55.810  61.719  0.00  0.00     0.088 H 
BRANCH  14  18
ATOM     18  NAX 3O0 d   1      -6.224  55.463  64.235  0.00  0.00    -0.116 N 
ATOM     19  OAW 3O0 d   1      -5.938  55.325  65.630  0.00  0.00    -0.532 OA
ATOM     20  OAY 3O0 d   1      -6.277  54.309  63.402  0.00  0.00    -0.532 OA
ENDBRANCH  14  18
ENDBRANCH   6   8
ENDBRANCH   1   6
BRANCH   2  21
ATOM     21  NAA 3O0 d   1      -7.478  58.510  57.240  0.00  0.00    -0.383 N 
ATOM     22  H   3O0 d   1      -7.798  57.629  57.641  0.00  0.00     0.157 HD
ATOM     23  H   3O0 d   1      -7.625  58.702  56.249  0.00  0.00     0.157 HD
ENDBRANCH   2  21
BRANCH   5  24
ATOM     24  NAS 3O0 d   1      -5.351  62.597  58.204  0.00  0.00    -0.335 N 
ATOM     25  H   3O0 d   1      -5.238  62.819  57.215  0.00  0.00     0.168 HD
BRANCH  24  26
ATOM     26  CAT 3O0 d   1      -4.983  63.561  59.064  0.00  0.00     0.034 A 
ATOM     27  CAJ 3O0 d   1      -4.294  64.647  58.518  0.00  0.00    -0.056 A 
ATOM     28  CAK 3O0 d   1      -3.862  65.704  59.317  0.00  0.00    -0.060 A 
ATOM     29  H   3O0 d   1      -4.091  64.668  57.447  0.00  0.00     0.087 H 
ATOM     30  CAL 3O0 d   1      -4.128  65.685  60.683  0.00  0.00     0.034 A 
ATOM     31  H   3O0 d   1      -3.320  66.540  58.875  0.00  0.00     0.086 H 
ATOM     32 CLA  3O0 d   1      -3.584  67.012  61.653  0.00  0.00    -0.084 Cl
ATOM     33  CAV 3O0 d   1      -4.818  64.603  61.252  0.00  0.00    -0.060 A 
ATOM     34  CAU 3O0 d   1      -5.244  63.541  60.443  0.00  0.00    -0.056 A 
ATOM     35  H   3O0 d   1      -5.022  64.589  62.323  0.00  0.00     0.086 H 
ATOM     36  H   3O0 d   1      -5.778  62.700  60.885  0.00  0.00     0.087 H 
ENDBRANCH  24  26
ENDBRANCH   5  24
TORSDOF 6
