REMARK  3 active torsions:
REMARK  status: ('A' for Active; 'I' for Inactive)
REMARK    1  A    between atoms: O7_7  and  C2_2 
REMARK    2  A    between atoms: C13_13  and  O7_7 
REMARK    3  A    between atoms: B16_16  and  O17_17 
ROOT
ATOM      1  C1  3OJ d   1     -43.703  94.853 111.800  0.00  0.00    -0.049 A 
ATOM      2  C2  3OJ d   1     -43.956  94.165 112.985  0.00  0.00     0.077 A 
ATOM      3  C3  3OJ d   1     -42.492  94.706 111.138  0.00  0.00    -0.059 A 
ATOM      4  C4  3OJ d   1     -42.978  93.321 113.505  0.00  0.00    -0.029 A 
ATOM      5  C5  3OJ d   1     -41.532  93.866 111.661  0.00  0.00     0.065 A 
ATOM      6  C6  3OJ d   1     -41.775  93.169 112.834  0.00  0.00     0.068 A 
ATOM      7  C18 3OJ d   1     -40.284  93.696 110.993  0.00  0.00     0.101 C 
ATOM      8  C19 3OJ d   1     -40.747  92.317 113.346  0.00  0.00     0.101 C 
ATOM      9  N20 3OJ d   1     -39.267  93.564 110.470  0.00  0.00    -0.191 NA
ATOM     10  N21 3OJ d   1     -39.910  91.620 113.733  0.00  0.00    -0.191 NA
ATOM     11  H   3OJ d   1     -44.465  95.514 111.388  0.00  0.00     0.087 H 
ATOM     12  H   3OJ d   1     -42.302  95.250 110.213  0.00  0.00     0.086 H 
ATOM     13  H   3OJ d   1     -43.158  92.782 114.435  0.00  0.00     0.090 H 
ENDROOT
BRANCH   2  14
ATOM     14  O7  3OJ d   1     -45.170  94.346 113.609  0.00  0.00    -0.311 OA
BRANCH  14  15
ATOM     15  C13 3OJ d   1     -45.701  93.651 114.656  0.00  0.00     0.076 A 
ATOM     16  C11 3OJ d   1     -46.646  92.644 114.459  0.00  0.00    -0.042 A 
ATOM     17  C9  3OJ d   1     -47.128  91.970 115.568  0.00  0.00    -0.033 A 
ATOM     18  H   3OJ d   1     -46.996  92.394 113.457  0.00  0.00     0.088 H 
ATOM     19  C8  3OJ d   1     -46.698  92.273 116.817  0.00  0.00    -0.024 A 
ATOM     20  C14 3OJ d   1     -48.136  90.868 115.624  0.00  0.00     0.027 C 
ATOM     21  C10 3OJ d   1     -45.763  93.271 117.031  0.00  0.00    -0.079 A 
ATOM     22  B16 3OJ d   1     -47.362  91.397 117.823  0.00  0.00     0.532 B 
ATOM     23  C12 3OJ d   1     -45.263  93.961 115.937  0.00  0.00    -0.051 A 
ATOM     24  H   3OJ d   1     -45.426  93.510 118.040  0.00  0.00     0.083 H 
ATOM     25  H   3OJ d   1     -44.524  94.749 116.083  0.00  0.00     0.087 H 
ATOM     26  O15 3OJ d   1     -48.351  90.678 117.047  0.00  0.00    -0.419 OA
ATOM     27  H   3OJ d   1     -47.791  89.960 115.129  0.00  0.00     0.079 H 
ATOM     28  H   3OJ d   1     -49.055  91.115 115.092  0.00  0.00     0.079 H 
BRANCH  22  29
ATOM     29  O17 3OJ d   1     -46.393  90.516 118.407  0.00  0.00    -0.433 OA
ATOM     30  H   3OJ d   1     -45.938  90.036 117.711  0.00  0.00     0.185 HD
ENDBRANCH  22  29
ENDBRANCH  14  15
ENDBRANCH   2  14
TORSDOF 3
