REMARK  9 active torsions:
REMARK  status: ('A' for Active; 'I' for Inactive)
REMARK    1  A    between atoms: C1_1  and  C7_7 
REMARK    2  A    between atoms: C3_3  and  C20_20 
REMARK    3  A    between atoms: C5_5  and  C12_12 
REMARK    4  A    between atoms: C14_14  and  C17_17 
REMARK    5  A    between atoms: C16_16  and  C25_25 
REMARK    6  A    between atoms: C17_17  and  C18_18 
REMARK    7  A    between atoms: C18_18  and  C19_19 
REMARK       I    between atoms: C20_20  and  N21_21 
REMARK    8  A    between atoms: N21_21  and  C23_23 
REMARK    9  A    between atoms: N21_21  and  C24_24 
ROOT
ATOM      1  C1  O47 d   1     -17.360  -0.158  -5.042  0.00  0.00     0.049 A 
ATOM      2  C2  O47 d   1     -18.515  -0.813  -4.637  0.00  0.00    -0.053 A 
ATOM      3  C3  O47 d   1     -19.628  -0.085  -4.276  0.00  0.00     0.033 A 
ATOM      4  C4  O47 d   1     -19.618   1.295  -4.285  0.00  0.00    -0.056 A 
ATOM      5  C5  O47 d   1     -18.478   1.977  -4.692  0.00  0.00    -0.005 A 
ATOM      6  C6  O47 d   1     -17.344   1.236  -5.072  0.00  0.00    -0.056 A 
ATOM      7  H   O47 d   1     -18.541  -1.902  -4.605  0.00  0.00     0.086 H 
ATOM      8  H   O47 d   1     -20.503   1.849  -3.973  0.00  0.00     0.086 H 
ATOM      9  H   O47 d   1     -16.442   1.758  -5.394  0.00  0.00     0.086 H 
ENDROOT
BRANCH   5  10
ATOM     10  C12 O47 d   1     -18.463   3.469  -4.723  0.00  0.00     0.071 A 
ATOM     11  N11 O47 d   1     -17.484   4.066  -5.434  0.00  0.00    -0.227 NA
ATOM     12  C16 O47 d   1     -17.416   5.422  -5.472  0.00  0.00     0.167 A 
ATOM     13  N15 O47 d   1     -18.315   6.201  -4.835  0.00  0.00    -0.233 NA
ATOM     14  C14 O47 d   1     -19.303   5.659  -4.129  0.00  0.00     0.039 A 
ATOM     15  C13 O47 d   1     -19.399   4.275  -4.060  0.00  0.00    -0.030 A 
ATOM     16  H   O47 d   1     -20.205   3.814  -3.489  0.00  0.00     0.090 H 
BRANCH  12  17
ATOM     17  C25 O47 d   1     -16.323   6.059  -6.221  0.00  0.00     0.040 C 
ATOM     18  N26 O47 d   1     -16.157   7.289  -6.259  0.00  0.00    -0.308 NA
ATOM     19  H   O47 d   1     -16.795   7.905  -5.756  0.00  0.00     0.186 HD
ATOM     20  H   O47 d   1     -15.627   5.423  -6.768  0.00  0.00     0.119 H 
ENDBRANCH  12  17
BRANCH  14  21
ATOM     21  C17 O47 d   1     -20.271   6.607  -3.446  0.00  0.00    -0.025 C 
ATOM     22  H   O47 d   1     -21.149   6.053  -3.115  0.00  0.00     0.042 H 
ATOM     23  H   O47 d   1     -20.574   7.384  -4.148  0.00  0.00     0.042 H 
BRANCH  21  24
ATOM     24  C18 O47 d   1     -19.587   7.253  -2.232  0.00  0.00    -0.063 C 
ATOM     25  H   O47 d   1     -18.678   7.750  -2.571  0.00  0.00     0.033 H 
ATOM     26  H   O47 d   1     -19.367   6.473  -1.504  0.00  0.00     0.033 H 
BRANCH  24  27
ATOM     27  C19 O47 d   1     -20.486   8.290  -1.572  0.00  0.00    -0.076 C 
ATOM     28  H   O47 d   1     -20.724   9.073  -2.292  0.00  0.00     0.027 H 
ATOM     29  H   O47 d   1     -21.406   7.811  -1.236  0.00  0.00     0.027 H 
ATOM     30  H   O47 d   1     -19.969   8.726  -0.717  0.00  0.00     0.027 H 
ENDBRANCH  24  27
ENDBRANCH  21  24
ENDBRANCH  14  21
ENDBRANCH   5  10
BRANCH   3  31
ATOM     31  C20 O47 d   1     -20.859  -0.783  -3.838  0.00  0.00     0.253 C 
ATOM     32  N21 O47 d   1     -21.800  -1.015  -4.743  0.00  0.00    -0.357 N 
ATOM     33  O22 O47 d   1     -20.953  -1.096  -2.660  0.00  0.00    -0.267 OA
BRANCH  32  34
ATOM     34  C23 O47 d   1     -23.031  -1.691  -4.376  0.00  0.00    -0.016 C 
ATOM     35  H   O47 d   1     -22.798  -2.682  -3.988  0.00  0.00     0.056 H 
ATOM     36  H   O47 d   1     -23.548  -1.112  -3.611  0.00  0.00     0.056 H 
ATOM     37  H   O47 d   1     -23.669  -1.784  -5.255  0.00  0.00     0.056 H 
ENDBRANCH  32  34
BRANCH  32  38
ATOM     38  C24 O47 d   1     -21.642  -0.613  -6.134  0.00  0.00    -0.016 C 
ATOM     39  H   O47 d   1     -21.511   0.468  -6.186  0.00  0.00     0.056 H 
ATOM     40  H   O47 d   1     -20.767  -1.107  -6.556  0.00  0.00     0.056 H 
ATOM     41  H   O47 d   1     -22.530  -0.900  -6.697  0.00  0.00     0.056 H 
ENDBRANCH  32  38
ENDBRANCH   3  31
BRANCH   1  42
ATOM     42  C7  O47 d   1     -16.199  -1.029  -5.452  0.00  0.00     0.417 C 
ATOM     43  F8  O47 d   1     -16.610  -1.756  -6.457  0.00  0.00    -0.166 F 
ATOM     44  F9  O47 d   1     -15.863  -1.856  -4.486  0.00  0.00    -0.166 F 
ATOM     45  F10 O47 d   1     -15.131  -0.362  -5.826  0.00  0.00    -0.166 F 
ENDBRANCH   1  42
TORSDOF 9
