REMARK WARNING: 32 MAX_TORS EXCEEDED!!!
REMARK  53 active torsions:
REMARK  status: ('A' for Active; 'I' for Inactive)
REMARK    1  A    between atoms: N_1  and  CA_2 
REMARK    2  A    between atoms: CA_2  and  C_3 
REMARK    3  A    between atoms: CA_2  and  CB_5 
REMARK       I    between atoms: C_3  and  N_6 
REMARK    4  A    between atoms: N_6  and  CA_7 
REMARK    5  A    between atoms: CA_7  and  C_8 
REMARK    6  A    between atoms: CA_7  and  CB_10 
REMARK       I    between atoms: C_8  and  N_16 
REMARK    7  A    between atoms: CB_10  and  CG_11 
REMARK    8  A    between atoms: N_16  and  CA_17 
REMARK    9  A    between atoms: CA_17  and  C_18 
REMARK   10  A    between atoms: CA_17  and  CB_20 
REMARK       I    between atoms: C_18  and  N_25 
REMARK   11  A    between atoms: CB_20  and  CG_21 
REMARK   12  A    between atoms: CG_21  and  CD_22 
REMARK   13  A    between atoms: CD_22  and  CE_23 
REMARK   14  A    between atoms: CE_23  and  NZ_24 
REMARK   15  A    between atoms: N_25  and  CA_26 
REMARK   16  A    between atoms: CA_26  and  C_27 
REMARK   17  A    between atoms: CA_26  and  CB_29 
REMARK       I    between atoms: C_27  and  N_33 
REMARK   18  A    between atoms: CB_29  and  CG1_30 
REMARK   19  A    between atoms: CB_29  and  CG2_31 
REMARK   20  A    between atoms: CG1_30  and  CD1_32 
REMARK   21  A    between atoms: N_33  and  CA_34 
REMARK   22  A    between atoms: CA_34  and  C_35 
REMARK   23  A    between atoms: CA_34  and  CB_37 
REMARK       I    between atoms: C_35  and  N_41 
REMARK   24  A    between atoms: CB_37  and  CG_38 
REMARK   25  A    between atoms: CG_38  and  CD1_39 
REMARK   26  A    between atoms: CG_38  and  CD2_40 
REMARK   27  A    between atoms: N_41  and  CA_42 
REMARK   28  A    between atoms: CA_42  and  C_43 
REMARK   29  A    between atoms: CA_42  and  CB_45 
REMARK       I    between atoms: C_43  and  N_51 
REMARK   30  A    between atoms: CB_45  and  CG_46 
REMARK   31  A    between atoms: N_51  and  CA_52 
REMARK   32  A    between atoms: CA_52  and  C_53 
REMARK   33  A    between atoms: CA_52  and  CB_55 
REMARK       I    between atoms: C_53  and  N_62 
REMARK   34  A    between atoms: CB_55  and  CG_56 
REMARK   35  A    between atoms: CG_56  and  CD_57 
REMARK   36  A    between atoms: CD_57  and  NE_58 
REMARK       I    between atoms: NE_58  and  CZ_59 
REMARK       I    between atoms: CZ_59  and  NH1_60 
REMARK   37  A    between atoms: N_62  and  CA_63 
REMARK   38  A    between atoms: CA_63  and  C_64 
REMARK   39  A    between atoms: CA_63  and  CB_66 
REMARK       I    between atoms: C_64  and  N_70 
REMARK   40  A    between atoms: CB_66  and  CG_67 
REMARK   41  A    between atoms: CG_67  and  CD1_68 
REMARK   42  A    between atoms: CG_67  and  CD2_69 
REMARK   43  A    between atoms: N_70  and  CA_71 
REMARK   44  A    between atoms: CA_71  and  C_72 
REMARK   45  A    between atoms: CA_71  and  CB_74 
REMARK       I    between atoms: C_72  and  N_78 
REMARK   46  A    between atoms: CB_74  and  CG_75 
REMARK   47  A    between atoms: CG_75  and  CD1_76 
REMARK   48  A    between atoms: CG_75  and  CD2_77 
REMARK   49  A    between atoms: N_78  and  CA_79 
REMARK   50  A    between atoms: CA_79  and  C_80 
REMARK   51  A    between atoms: CA_79  and  CB_82 
REMARK   52  A    between atoms: CB_82  and  CG_83 
REMARK   53  A    between atoms: CG_83  and  CD_84 
REMARK       I    between atoms: CD_84  and  NE2_86 
ROOT
ATOM      1  CA  HIS d   1      23.159  39.020  30.263  0.00  0.00     0.094 C 
ATOM      2  H   HIS d   1      23.442  39.143  31.308  0.00  0.00     0.088 H 
ENDROOT
BRANCH   1   3
ATOM      3  N   HIS d   1      21.963  38.191  30.207  0.00  0.00    -0.346 N 
ATOM      4  C   LEU d   1      20.852  38.565  30.834  0.00  0.00     0.241 C 
ATOM      5  O   LEU d   1      20.770  39.610  31.476  0.00  0.00    -0.271 OA
ATOM      6  H   HIS d   1      21.978  37.316  29.683  0.00  0.00     0.163 HD
BRANCH   4   7
ATOM      7  CA  LEU d   1      19.657  37.631  30.722  0.00  0.00     0.089 C 
ATOM      8  H   LEU d   1      18.764  38.165  31.047  0.00  0.00     0.087 H 
BRANCH   7   9
ATOM      9  N   LEU d   1      19.430  37.225  29.336  0.00  0.00    -0.346 N 
ATOM     10  C   ILE d   1      19.272  38.130  28.371  0.00  0.00     0.241 C 
ATOM     11  O   ILE d   1      19.260  39.342  28.588  0.00  0.00    -0.271 OA
ATOM     12  H   LEU d   1      19.392  36.233  29.104  0.00  0.00     0.163 HD
BRANCH  10  13
ATOM     13  CA  ILE d   1      19.085  37.604  26.949  0.00  0.00     0.092 C 
ATOM     14  H   ILE d   1      19.192  38.455  26.276  0.00  0.00     0.088 H 
BRANCH  13  15
ATOM     15  N   ILE d   1      20.113  36.650  26.550  0.00  0.00    -0.346 N 
ATOM     16  C   LYS d   1      21.379  37.009  26.374  0.00  0.00     0.241 C 
ATOM     17  O   LYS d   1      21.805  38.127  26.659  0.00  0.00    -0.271 OA
ATOM     18  H   ILE d   1      19.851  35.675  26.401  0.00  0.00     0.163 HD
BRANCH  16  19
ATOM     19  CA  LYS d   1      22.302  35.943  25.791  0.00  0.00     0.089 C 
ATOM     20  H   LYS d   1      23.312  36.351  25.759  0.00  0.00     0.087 H 
BRANCH  19  21
ATOM     21  N   LYS d   1      22.361  34.742  26.620  0.00  0.00    -0.346 N 
ATOM     22  C   HIS d   1      22.408  34.787  27.949  0.00  0.00     0.241 C 
ATOM     23  O   HIS d   1      22.355  35.834  28.596  0.00  0.00    -0.271 OA
ATOM     24  H   LYS d   1      22.366  33.831  26.161  0.00  0.00     0.163 HD
BRANCH  22  25
ATOM     25  CA  HIS d   1      22.522  33.444  28.656  0.00  0.00     0.094 C 
ATOM     26  H   HIS d   1      21.723  32.798  28.293  0.00  0.00     0.088 H 
BRANCH  25  27
ATOM     27  N   HIS d   1      23.790  32.791  28.355  0.00  0.00    -0.346 N 
ATOM     28  C   LYS d   1      23.842  31.601  27.765  0.00  0.00     0.248 C 
ATOM     29  O   LYS d   1      22.839  30.988  27.396  0.00  0.00    -0.271 OA
ATOM     30  H   HIS d   1      24.661  33.260  28.604  0.00  0.00     0.163 HD
BRANCH  28  31
ATOM     31  CA  LYS d   1      25.233  31.011  27.563  0.00  0.00     0.172 C 
ATOM     32  H   LYS d   1      25.957  31.675  28.034  0.00  0.00     0.098 H 
BRANCH  31  33
ATOM     33  N   LYS d   1      25.336  29.700  28.198  0.00  0.00    -0.067 N 
ATOM     34  H   LYS d   1      25.112  29.785  29.189  0.00  0.00     0.275 HD
ATOM     35  H   LYS d   1      24.681  29.056  27.754  0.00  0.00     0.275 HD
ATOM     36  H   LYS d   1      26.287  29.346  28.092  0.00  0.00     0.275 HD
ENDBRANCH  31  33
BRANCH  31  37
ATOM     37  CB  LYS d   1      25.563  30.915  26.077  0.00  0.00    -0.042 C 
ATOM     38  H   LYS d   1      24.831  30.274  25.584  0.00  0.00     0.030 H 
ATOM     39  H   LYS d   1      25.533  31.911  25.634  0.00  0.00     0.030 H 
ATOM     40  H   LYS d   1      26.560  30.491  25.954  0.00  0.00     0.030 H 
ENDBRANCH  31  37
ENDBRANCH  28  31
ENDBRANCH  25  27
BRANCH  25  41
ATOM     41  CB  HIS d   1      22.368  33.638  30.165  0.00  0.00     0.004 C 
ATOM     42  H   HIS d   1      21.407  34.124  30.335  0.00  0.00     0.046 H 
ATOM     43  H   HIS d   1      23.221  34.224  30.507  0.00  0.00     0.046 H 
BRANCH  41  44
ATOM     44  CG  HIS d   1      22.365  32.357  30.939  0.00  0.00     0.053 A 
ATOM     45  ND1 HIS d   1      21.251  31.551  31.037  0.00  0.00    -0.247 NA
ATOM     46  CE1 HIS d   1      21.541  30.493  31.773  0.00  0.00     0.064 A 
ATOM     47  NE2 HIS d   1      22.802  30.583  32.156  0.00  0.00    -0.359 N 
ATOM     48  H   HIS d   1      20.856  29.683  32.022  0.00  0.00     0.143 H 
ATOM     49  CD2 HIS d   1      23.340  31.741  31.646  0.00  0.00     0.002 A 
ATOM     50  H   HIS d   1      23.296  29.904  32.736  0.00  0.00     0.166 HD
ATOM     51  H   HIS d   1      24.361  32.096  31.785  0.00  0.00     0.114 H 
ENDBRANCH  41  44
ENDBRANCH  25  41
ENDBRANCH  22  25
ENDBRANCH  19  21
BRANCH  19  52
ATOM     52  CB  LYS d   1      21.826  35.591  24.379  0.00  0.00    -0.038 C 
ATOM     53  H   LYS d   1      22.081  36.439  23.744  0.00  0.00     0.036 H 
ATOM     54  H   LYS d   1      20.762  35.368  24.456  0.00  0.00     0.036 H 
BRANCH  52  55
ATOM     55  CG  LYS d   1      22.484  34.364  23.753  0.00  0.00    -0.061 C 
ATOM     56  H   LYS d   1      21.937  34.118  22.843  0.00  0.00     0.033 H 
ATOM     57  H   LYS d   1      22.460  33.559  24.488  0.00  0.00     0.033 H 
BRANCH  55  58
ATOM     58  CD  LYS d   1      23.936  34.607  23.374  0.00  0.00    -0.043 C 
ATOM     59  H   LYS d   1      24.063  35.666  23.151  0.00  0.00     0.035 H 
ATOM     60  H   LYS d   1      24.177  33.988  22.510  0.00  0.00     0.035 H 
BRANCH  58  61
ATOM     61  CE  LYS d   1      24.873  34.237  24.509  0.00  0.00     0.080 C 
ATOM     62  H   LYS d   1      24.708  33.190  24.763  0.00  0.00     0.075 H 
ATOM     63  H   LYS d   1      24.666  34.894  25.354  0.00  0.00     0.075 H 
BRANCH  61  64
ATOM     64  NZ  LYS d   1      26.297  34.407  24.122  0.00  0.00    -0.079 N 
ATOM     65  H   LYS d   1      26.895  34.150  24.907  0.00  0.00     0.274 HD
ATOM     66  H   LYS d   1      26.505  33.807  23.324  0.00  0.00     0.274 HD
ATOM     67  H   LYS d   1      26.466  35.381  23.870  0.00  0.00     0.274 HD
ENDBRANCH  61  64
ENDBRANCH  58  61
ENDBRANCH  55  58
ENDBRANCH  52  55
ENDBRANCH  19  52
ENDBRANCH  16  19
ENDBRANCH  13  15
BRANCH  13  68
ATOM     68  CB  ILE d   1      17.676  37.005  26.789  0.00  0.00    -0.030 C 
ATOM     69  H   ILE d   1      17.555  36.185  27.497  0.00  0.00     0.043 H 
BRANCH  68  70
ATOM     70  CG1 ILE d   1      17.506  36.453  25.371  0.00  0.00    -0.063 C 
ATOM     71  H   ILE d   1      18.250  35.667  25.241  0.00  0.00     0.033 H 
ATOM     72  H   ILE d   1      17.616  37.292  24.684  0.00  0.00     0.033 H 
BRANCH  70  73
ATOM     73  CD1 ILE d   1      16.151  35.833  25.103  0.00  0.00    -0.076 C 
ATOM     74  H   ILE d   1      15.990  35.003  25.791  0.00  0.00     0.027 H 
ATOM     75  H   ILE d   1      15.374  36.583  25.249  0.00  0.00     0.027 H 
ATOM     76  H   ILE d   1      16.116  35.468  24.076  0.00  0.00     0.027 H 
ENDBRANCH  70  73
ENDBRANCH  68  70
BRANCH  68  77
ATOM     77  CG2 ILE d   1      16.611  38.046  27.105  0.00  0.00    -0.071 C 
ATOM     78  H   ILE d   1      16.734  38.390  28.132  0.00  0.00     0.028 H 
ATOM     79  H   ILE d   1      16.716  38.890  26.423  0.00  0.00     0.028 H 
ATOM     80  H   ILE d   1      15.623  37.601  26.985  0.00  0.00     0.028 H 
ENDBRANCH  68  77
ENDBRANCH  13  68
ENDBRANCH  10  13
ENDBRANCH   7   9
BRANCH   7  81
ATOM     81  CB  LEU d   1      19.855  36.421  31.637  0.00  0.00    -0.035 C 
ATOM     82  H   LEU d   1      20.383  36.792  32.515  0.00  0.00     0.037 H 
ATOM     83  H   LEU d   1      20.370  35.672  31.036  0.00  0.00     0.037 H 
BRANCH  81  84
ATOM     84  CG  LEU d   1      18.591  35.743  32.162  0.00  0.00    -0.059 C 
ATOM     85  H   LEU d   1      18.014  35.365  31.318  0.00  0.00     0.038 H 
BRANCH  84  86
ATOM     86  CD1 LEU d   1      18.968  34.579  33.057  0.00  0.00    -0.073 C 
ATOM     87  H   LEU d   1      19.554  33.859  32.486  0.00  0.00     0.028 H 
ATOM     88  H   LEU d   1      19.558  34.945  33.898  0.00  0.00     0.028 H 
ATOM     89  H   LEU d   1      18.062  34.100  33.428  0.00  0.00     0.028 H 
ENDBRANCH  84  86
BRANCH  84  90
ATOM     90  CD2 LEU d   1      17.726  36.741  32.916  0.00  0.00    -0.073 C 
ATOM     91  H   LEU d   1      18.288  37.144  33.758  0.00  0.00     0.028 H 
ATOM     92  H   LEU d   1      17.441  37.552  32.246  0.00  0.00     0.028 H 
ATOM     93  H   LEU d   1      16.830  36.239  33.282  0.00  0.00     0.028 H 
ENDBRANCH  84  90
ENDBRANCH  81  84
ENDBRANCH   7  81
ENDBRANCH   4   7
ENDBRANCH   1   3
BRANCH   1  94
ATOM     94  C   HIS d   1      22.868  40.389  29.660  0.00  0.00     0.241 C 
ATOM     95  O   HIS d   1      23.321  41.413  30.167  0.00  0.00    -0.271 OA
ATOM     96  N   ARG d   1      22.096  40.397  28.578  0.00  0.00    -0.346 N 
ATOM     97  H   ARG d   1      21.766  39.512  28.193  0.00  0.00     0.163 HD
BRANCH  96  98
ATOM     98  CA  ARG d   1      21.712  41.644  27.931  0.00  0.00     0.089 C 
ATOM     99  H   ARG d   1      22.627  42.186  27.692  0.00  0.00     0.087 H 
BRANCH  98 100
ATOM    100  C   ARG d   1      20.866  42.499  28.864  0.00  0.00     0.241 C 
ATOM    101  O   ARG d   1      21.165  43.672  29.076  0.00  0.00    -0.271 OA
ATOM    102  N   LEU d   1      19.812  41.906  29.420  0.00  0.00    -0.346 N 
ATOM    103  H   LEU d   1      19.652  40.914  29.243  0.00  0.00     0.163 HD
BRANCH 102 104
ATOM    104  CA  LEU d   1      18.877  42.633  30.277  0.00  0.00     0.089 C 
ATOM    105  H   LEU d   1      18.581  43.522  29.720  0.00  0.00     0.087 H 
BRANCH 104 106
ATOM    106  C   LEU d   1      19.512  43.093  31.585  0.00  0.00     0.241 C 
ATOM    107  O   LEU d   1      19.067  44.072  32.186  0.00  0.00    -0.271 OA
ATOM    108  N   LEU d   1      20.542  42.386  32.034  0.00  0.00    -0.346 N 
ATOM    109  H   LEU d   1      20.843  41.552  31.530  0.00  0.00     0.163 HD
BRANCH 108 110
ATOM    110  CA  LEU d   1      21.245  42.796  33.244  0.00  0.00     0.089 C 
ATOM    111  H   LEU d   1      20.511  43.083  33.997  0.00  0.00     0.087 H 
BRANCH 110 112
ATOM    112  C   LEU d   1      22.131  43.994  32.943  0.00  0.00     0.241 C 
ATOM    113  O   LEU d   1      23.049  44.310  33.699  0.00  0.00    -0.271 OA
ATOM    114  N   GLN d   1      21.824  44.662  31.835  0.00  0.00    -0.345 N 
ATOM    115  H   GLN d   1      20.975  44.406  31.332  0.00  0.00     0.163 HD
BRANCH 114 116
ATOM    116  CA  GLN d   1      22.644  45.741  31.308  0.00  0.00     0.096 C 
ATOM    117  H   GLN d   1      22.117  46.209  30.477  0.00  0.00     0.089 H 
BRANCH 116 118
ATOM    118  C   GLN d   1      23.968  45.173  30.809  0.00  0.00     0.196 C 
ATOM    119  O   GLN d   1      24.532  44.257  31.411  0.00  0.00    -0.646 OA
ATOM    120  O   GLN d   1      24.493  45.647  29.766  0.00  0.00    -0.646 OA
ENDBRANCH 116 118
BRANCH 116 121
ATOM    121  CB  GLN d   1      22.884  46.817  32.365  0.00  0.00    -0.029 C 
ATOM    122  H   GLN d   1      23.653  46.442  33.041  0.00  0.00     0.037 H 
ATOM    123  H   GLN d   1      21.928  47.014  32.851  0.00  0.00     0.037 H 
BRANCH 121 124
ATOM    124  CG  GLN d   1      23.383  48.134  31.798  0.00  0.00     0.011 C 
ATOM    125  H   GLN d   1      22.561  48.601  31.255  0.00  0.00     0.047 H 
ATOM    126  H   GLN d   1      24.238  47.923  31.156  0.00  0.00     0.047 H 
BRANCH 124 127
ATOM    127  CD  GLN d   1      23.834  49.092  32.879  0.00  0.00     0.215 C 
ATOM    128  OE1 GLN d   1      24.663  48.748  33.720  0.00  0.00    -0.274 OA
ATOM    129  NE2 GLN d   1      23.288  50.302  32.865  0.00  0.00    -0.370 N 
ATOM    130  H   GLN d   1      23.553  50.989  33.571  0.00  0.00     0.159 HD
ATOM    131  H   GLN d   1      22.604  50.545  32.148  0.00  0.00     0.159 HD
ENDBRANCH 124 127
ENDBRANCH 121 124
ENDBRANCH 116 121
ENDBRANCH 114 116
ENDBRANCH 110 112
BRANCH 110 132
ATOM    132  CB  LEU d   1      22.065  41.641  33.813  0.00  0.00    -0.035 C 
ATOM    133  H   LEU d   1      22.793  42.055  34.511  0.00  0.00     0.037 H 
ATOM    134  H   LEU d   1      22.540  41.121  32.981  0.00  0.00     0.037 H 
BRANCH 132 135
ATOM    135  CG  LEU d   1      21.201  40.634  34.570  0.00  0.00    -0.059 C 
ATOM    136  H   LEU d   1      20.315  40.423  33.971  0.00  0.00     0.038 H 
BRANCH 135 137
ATOM    137  CD1 LEU d   1      21.916  39.305  34.765  0.00  0.00    -0.073 C 
ATOM    138  H   LEU d   1      22.163  38.880  33.792  0.00  0.00     0.028 H 
ATOM    139  H   LEU d   1      22.831  39.466  35.335  0.00  0.00     0.028 H 
ATOM    140  H   LEU d   1      21.265  38.620  35.308  0.00  0.00     0.028 H 
ENDBRANCH 135 137
BRANCH 135 141
ATOM    141  CD2 LEU d   1      20.763  41.232  35.901  0.00  0.00    -0.073 C 
ATOM    142  H   LEU d   1      21.643  41.474  36.497  0.00  0.00     0.028 H 
ATOM    143  H   LEU d   1      20.186  42.139  35.718  0.00  0.00     0.028 H 
ATOM    144  H   LEU d   1      20.147  40.510  36.437  0.00  0.00     0.028 H 
ENDBRANCH 135 141
ENDBRANCH 132 135
ENDBRANCH 110 132
ENDBRANCH 108 110
ENDBRANCH 104 106
BRANCH 104 145
ATOM    145  CB  LEU d   1      17.647  41.778  30.586  0.00  0.00    -0.035 C 
ATOM    146  H   LEU d   1      17.023  42.397  31.231  0.00  0.00     0.037 H 
ATOM    147  H   LEU d   1      18.041  40.845  30.988  0.00  0.00     0.037 H 
BRANCH 145 148
ATOM    148  CG  LEU d   1      16.742  41.365  29.428  0.00  0.00    -0.059 C 
ATOM    149  H   LEU d   1      17.323  40.797  28.701  0.00  0.00     0.038 H 
BRANCH 148 150
ATOM    150  CD1 LEU d   1      15.621  40.493  29.967  0.00  0.00    -0.073 C 
ATOM    151  H   LEU d   1      16.046  39.606  30.438  0.00  0.00     0.028 H 
ATOM    152  H   LEU d   1      15.046  41.056  30.702  0.00  0.00     0.028 H 
ATOM    153  H   LEU d   1      14.969  40.193  29.146  0.00  0.00     0.028 H 
ENDBRANCH 148 150
BRANCH 148 154
ATOM    154  CD2 LEU d   1      16.189  42.584  28.699  0.00  0.00    -0.073 C 
ATOM    155  H   LEU d   1      15.609  43.190  29.395  0.00  0.00     0.028 H 
ATOM    156  H   LEU d   1      17.015  43.174  28.302  0.00  0.00     0.028 H 
ATOM    157  H   LEU d   1      15.549  42.256  27.880  0.00  0.00     0.028 H 
ENDBRANCH 148 154
ENDBRANCH 145 148
ENDBRANCH 104 145
ENDBRANCH 102 104
ENDBRANCH  98 100
BRANCH  98 158
ATOM    158  CB  ARG d   1      20.953  41.381  26.626  0.00  0.00    -0.036 C 
ATOM    159  H   ARG d   1      20.002  40.919  26.890  0.00  0.00     0.036 H 
ATOM    160  H   ARG d   1      21.587  40.752  26.001  0.00  0.00     0.036 H 
BRANCH 158 161
ATOM    161  CG  ARG d   1      20.641  42.645  25.832  0.00  0.00    -0.048 C 
ATOM    162  H   ARG d   1      19.902  43.229  26.380  0.00  0.00     0.035 H 
ATOM    163  H   ARG d   1      20.262  42.358  24.851  0.00  0.00     0.035 H 
BRANCH 161 164
ATOM    164  CD  ARG d   1      21.896  43.495  25.643  0.00  0.00     0.009 C 
ATOM    165  H   ARG d   1      22.688  42.844  25.273  0.00  0.00     0.064 H 
ATOM    166  H   ARG d   1      22.139  43.951  26.603  0.00  0.00     0.064 H 
BRANCH 164 167
ATOM    167  NE  ARG d   1      21.709  44.570  24.671  0.00  0.00    -0.227 N 
ATOM    168  CZ  ARG d   1      22.676  45.387  24.261  0.00  0.00     0.665 C 
ATOM    169  NH1 ARG d   1      23.909  45.260  24.735  0.00  0.00    -0.235 N 
ATOM    170  NH2 ARG d   1      22.409  46.334  23.372  0.00  0.00    -0.235 N 
ATOM    171  H   ARG d   1      24.120  44.533  25.418  0.00  0.00     0.174 HD
ATOM    172  H   ARG d   1      24.645  45.890  24.416  0.00  0.00     0.174 HD
ATOM    173  H   ARG d   1      21.463  46.435  23.003  0.00  0.00     0.174 HD
ATOM    174  H   ARG d   1      23.149  46.961  23.057  0.00  0.00     0.174 HD
ATOM    175  H   ARG d   1      20.776  44.703  24.281  0.00  0.00     0.177 HD
ENDBRANCH 164 167
ENDBRANCH 161 164
ENDBRANCH 158 161
ENDBRANCH  98 158
ENDBRANCH  96  98
ENDBRANCH   1  94
BRANCH   1 176
ATOM    176  CB  HIS d   1      24.333  38.354  29.542  0.00  0.00     0.004 C 
ATOM    177  H   HIS d   1      24.187  38.503  28.472  0.00  0.00     0.046 H 
ATOM    178  H   HIS d   1      24.346  37.305  29.838  0.00  0.00     0.046 H 
BRANCH 176 179
ATOM    179  CG  HIS d   1      25.664  38.938  29.900  0.00  0.00     0.053 A 
ATOM    180  ND1 HIS d   1      26.219  40.002  29.221  0.00  0.00    -0.247 NA
ATOM    181  CE1 HIS d   1      27.387  40.305  29.758  0.00  0.00     0.064 A 
ATOM    182  NE2 HIS d   1      27.611  39.477  30.762  0.00  0.00    -0.359 N 
ATOM    183  H   HIS d   1      28.053  41.103  29.428  0.00  0.00     0.143 H 
ATOM    184  CD2 HIS d   1      26.548  38.613  30.874  0.00  0.00     0.002 A 
ATOM    185  H   HIS d   1      28.439  39.478  31.358  0.00  0.00     0.166 HD
ATOM    186  H   HIS d   1      26.437  37.816  31.609  0.00  0.00     0.114 H 
ENDBRANCH 176 179
ENDBRANCH   1 176
TORSDOF 53
