REMARK WARNING: 32 MAX_TORS EXCEEDED!!!
REMARK  52 active torsions:
REMARK  status: ('A' for Active; 'I' for Inactive)
REMARK    1  A    between atoms: N_1  and  CA_2 
REMARK    2  A    between atoms: CA_2  and  C_3 
REMARK       I    between atoms: C_3  and  N_5 
REMARK    3  A    between atoms: N_5  and  CA_6 
REMARK    4  A    between atoms: CA_6  and  C_7 
REMARK    5  A    between atoms: CA_6  and  CB_9 
REMARK       I    between atoms: C_7  and  N_15 
REMARK    6  A    between atoms: CB_9  and  CG_10 
REMARK    7  A    between atoms: N_15  and  CA_16 
REMARK    8  A    between atoms: CA_16  and  C_17 
REMARK    9  A    between atoms: CA_16  and  CB_19 
REMARK       I    between atoms: C_17  and  N_24 
REMARK   10  A    between atoms: CB_19  and  CG_20 
REMARK   11  A    between atoms: CG_20  and  CD_21 
REMARK   12  A    between atoms: CD_21  and  CE_22 
REMARK   13  A    between atoms: CE_22  and  NZ_23 
REMARK   14  A    between atoms: N_24  and  CA_25 
REMARK   15  A    between atoms: CA_25  and  C_26 
REMARK   16  A    between atoms: CA_25  and  CB_28 
REMARK       I    between atoms: C_26  and  N_32 
REMARK   17  A    between atoms: CB_28  and  CG1_29 
REMARK   18  A    between atoms: CB_28  and  CG2_30 
REMARK   19  A    between atoms: CG1_29  and  CD1_31 
REMARK   20  A    between atoms: N_32  and  CA_33 
REMARK   21  A    between atoms: CA_33  and  C_34 
REMARK   22  A    between atoms: CA_33  and  CB_36 
REMARK       I    between atoms: C_34  and  N_40 
REMARK   23  A    between atoms: CB_36  and  CG_37 
REMARK   24  A    between atoms: CG_37  and  CD1_38 
REMARK   25  A    between atoms: CG_37  and  CD2_39 
REMARK   26  A    between atoms: N_40  and  CA_41 
REMARK   27  A    between atoms: CA_41  and  C_42 
REMARK   28  A    between atoms: CA_41  and  CB_44 
REMARK       I    between atoms: C_42  and  N_50 
REMARK   29  A    between atoms: CB_44  and  CG_45 
REMARK   30  A    between atoms: N_50  and  CA_51 
REMARK   31  A    between atoms: CA_51  and  C_52 
REMARK   32  A    between atoms: CA_51  and  CB_54 
REMARK       I    between atoms: C_52  and  N_61 
REMARK   33  A    between atoms: CB_54  and  CG_55 
REMARK   34  A    between atoms: CG_55  and  CD_56 
REMARK   35  A    between atoms: CD_56  and  NE_57 
REMARK       I    between atoms: NE_57  and  CZ_58 
REMARK       I    between atoms: CZ_58  and  NH1_59 
REMARK   36  A    between atoms: N_61  and  CA_62 
REMARK   37  A    between atoms: CA_62  and  C_63 
REMARK   38  A    between atoms: CA_62  and  CB_65 
REMARK       I    between atoms: C_63  and  N_69 
REMARK   39  A    between atoms: CB_65  and  CG_66 
REMARK   40  A    between atoms: CG_66  and  CD1_67 
REMARK   41  A    between atoms: CG_66  and  CD2_68 
REMARK   42  A    between atoms: N_69  and  CA_70 
REMARK   43  A    between atoms: CA_70  and  C_71 
REMARK   44  A    between atoms: CA_70  and  CB_73 
REMARK       I    between atoms: C_71  and  N_77 
REMARK   45  A    between atoms: CB_73  and  CG_74 
REMARK   46  A    between atoms: CG_74  and  CD1_75 
REMARK   47  A    between atoms: CG_74  and  CD2_76 
REMARK   48  A    between atoms: N_77  and  CA_78 
REMARK   49  A    between atoms: CA_78  and  C_79 
REMARK   50  A    between atoms: CA_78  and  CB_81 
REMARK   51  A    between atoms: CB_81  and  CG_82 
REMARK   52  A    between atoms: CG_82  and  CD_83 
REMARK       I    between atoms: CD_83  and  NE2_85 
ROOT
ATOM      1  CA  HIS d   1      22.655  39.467  29.729  0.00  0.00     0.094 C 
ATOM      2  H   HIS d   1      23.070  39.575  30.731  0.00  0.00     0.088 H 
ENDROOT
BRANCH   1   3
ATOM      3  N   HIS d   1      21.481  38.613  29.851  0.00  0.00    -0.346 N 
ATOM      4  C   LEU d   1      20.395  38.957  30.539  0.00  0.00     0.241 C 
ATOM      5  O   LEU d   1      20.300  40.002  31.164  0.00  0.00    -0.271 OA
ATOM      6  H   HIS d   1      21.492  37.706  29.386  0.00  0.00     0.163 HD
BRANCH   4   7
ATOM      7  CA  LEU d   1      19.235  37.971  30.491  0.00  0.00     0.089 C 
ATOM      8  H   LEU d   1      18.321  38.454  30.837  0.00  0.00     0.087 H 
BRANCH   7   9
ATOM      9  N   LEU d   1      19.024  37.532  29.105  0.00  0.00    -0.346 N 
ATOM     10  C   ILE d   1      18.858  38.438  28.141  0.00  0.00     0.241 C 
ATOM     11  O   ILE d   1      18.822  39.652  28.383  0.00  0.00    -0.271 OA
ATOM     12  H   LEU d   1      19.005  36.537  28.881  0.00  0.00     0.163 HD
BRANCH  10  13
ATOM     13  CA  ILE d   1      18.689  37.930  26.693  0.00  0.00     0.092 C 
ATOM     14  H   ILE d   1      18.928  38.782  26.056  0.00  0.00     0.088 H 
BRANCH  13  15
ATOM     15  N   ILE d   1      19.624  36.881  26.314  0.00  0.00    -0.346 N 
ATOM     16  C   LYS d   1      20.904  37.132  26.081  0.00  0.00     0.241 C 
ATOM     17  O   LYS d   1      21.434  38.208  26.339  0.00  0.00    -0.271 OA
ATOM     18  H   ILE d   1      19.284  35.924  26.225  0.00  0.00     0.163 HD
BRANCH  16  19
ATOM     19  CA  LYS d   1      21.692  35.987  25.460  0.00  0.00     0.089 C 
ATOM     20  H   LYS d   1      22.702  36.344  25.260  0.00  0.00     0.087 H 
BRANCH  19  21
ATOM     21  N   LYS d   1      21.743  34.846  26.352  0.00  0.00    -0.346 N 
ATOM     22  C   HIS d   1      21.890  34.921  27.669  0.00  0.00     0.241 C 
ATOM     23  O   HIS d   1      22.087  35.969  28.284  0.00  0.00    -0.271 OA
ATOM     24  H   LYS d   1      21.660  33.918  25.938  0.00  0.00     0.163 HD
BRANCH  22  25
ATOM     25  CA  HIS d   1      21.810  33.584  28.391  0.00  0.00     0.094 C 
ATOM     26  H   HIS d   1      20.768  33.264  28.380  0.00  0.00     0.088 H 
BRANCH  25  27
ATOM     27  N   HIS d   1      22.574  32.533  27.704  0.00  0.00    -0.346 N 
ATOM     28  C   LYS d   1      23.905  32.500  27.691  0.00  0.00     0.243 C 
ATOM     29  O   LYS d   1      24.607  33.354  28.232  0.00  0.00    -0.272 OA
ATOM     30  H   HIS d   1      22.063  31.797  27.216  0.00  0.00     0.163 HD
BRANCH  28  31
ATOM     31  CA  LYS d   1      24.543  31.322  26.960  0.00  0.00     0.152 C 
ATOM     32  H   LYS d   1      25.077  30.707  27.685  0.00  0.00     0.090 H 
ATOM     33  H   LYS d   1      23.758  30.748  26.467  0.00  0.00     0.090 H 
BRANCH  31  34
ATOM     34  N   LYS d   1      25.488  31.786  25.952  0.00  0.00    -0.071 N 
ATOM     35  H   LYS d   1      25.900  30.982  25.478  0.00  0.00     0.274 HD
ATOM     36  H   LYS d   1      24.999  32.369  25.272  0.00  0.00     0.274 HD
ATOM     37  H   LYS d   1      26.224  32.331  26.402  0.00  0.00     0.274 HD
ENDBRANCH  31  34
ENDBRANCH  28  31
ENDBRANCH  25  27
BRANCH  25  38
ATOM     38  CB  HIS d   1      22.255  33.739  29.840  0.00  0.00     0.004 C 
ATOM     39  H   HIS d   1      21.584  34.456  30.313  0.00  0.00     0.046 H 
ATOM     40  H   HIS d   1      23.297  34.059  29.830  0.00  0.00     0.046 H 
BRANCH  38  41
ATOM     41  CG  HIS d   1      22.183  32.471  30.626  0.00  0.00     0.053 A 
ATOM     42  ND1 HIS d   1      21.033  31.716  30.715  0.00  0.00    -0.247 NA
ATOM     43  CE1 HIS d   1      21.264  30.656  31.470  0.00  0.00     0.064 A 
ATOM     44  NE2 HIS d   1      22.521  30.698  31.874  0.00  0.00    -0.359 N 
ATOM     45  H   HIS d   1      20.540  29.879  31.717  0.00  0.00     0.143 H 
ATOM     46  CD2 HIS d   1      23.119  31.823  31.360  0.00  0.00     0.002 A 
ATOM     47  H   HIS d   1      22.974  30.007  32.471  0.00  0.00     0.166 HD
ATOM     48  H   HIS d   1      24.152  32.135  31.514  0.00  0.00     0.114 H 
ENDBRANCH  38  41
ENDBRANCH  25  38
ENDBRANCH  22  25
ENDBRANCH  19  21
BRANCH  19  49
ATOM     49  CB  LYS d   1      20.987  35.531  24.178  0.00  0.00    -0.038 C 
ATOM     50  H   LYS d   1      19.990  35.971  24.217  0.00  0.00     0.036 H 
ATOM     51  H   LYS d   1      21.054  34.443  24.176  0.00  0.00     0.036 H 
BRANCH  49  52
ATOM     52  CG  LYS d   1      21.580  35.980  22.863  0.00  0.00    -0.061 C 
ATOM     53  H   LYS d   1      22.661  35.840  22.878  0.00  0.00     0.033 H 
ATOM     54  H   LYS d   1      21.365  37.036  22.703  0.00  0.00     0.033 H 
BRANCH  52  55
ATOM     55  CD  LYS d   1      20.963  35.145  21.730  0.00  0.00    -0.043 C 
ATOM     56  H   LYS d   1      19.892  35.066  21.917  0.00  0.00     0.035 H 
ATOM     57  H   LYS d   1      21.461  34.175  21.719  0.00  0.00     0.035 H 
BRANCH  55  58
ATOM     58  CE  LYS d   1      21.153  35.785  20.357  0.00  0.00     0.080 C 
ATOM     59  H   LYS d   1      20.833  35.063  19.605  0.00  0.00     0.075 H 
ATOM     60  H   LYS d   1      22.203  36.060  20.260  0.00  0.00     0.075 H 
BRANCH  58  61
ATOM     61  NZ  LYS d   1      20.335  37.028  20.176  0.00  0.00    -0.079 N 
ATOM     62  H   LYS d   1      20.501  37.410  19.245  0.00  0.00     0.274 HD
ATOM     63  H   LYS d   1      19.346  36.801  20.280  0.00  0.00     0.274 HD
ATOM     64  H   LYS d   1      20.603  37.715  20.880  0.00  0.00     0.274 HD
ENDBRANCH  58  61
ENDBRANCH  55  58
ENDBRANCH  52  55
ENDBRANCH  49  52
ENDBRANCH  19  49
ENDBRANCH  16  19
ENDBRANCH  13  15
BRANCH  13  65
ATOM     65  CB  ILE d   1      17.222  37.481  26.430  0.00  0.00    -0.030 C 
ATOM     66  H   ILE d   1      16.949  36.756  27.197  0.00  0.00     0.043 H 
BRANCH  65  67
ATOM     67  CG1 ILE d   1      17.097  36.798  25.050  0.00  0.00    -0.063 C 
ATOM     68  H   ILE d   1      17.980  36.175  24.909  0.00  0.00     0.033 H 
ATOM     69  H   ILE d   1      17.000  37.584  24.301  0.00  0.00     0.033 H 
BRANCH  67  70
ATOM     70  CD1 ILE d   1      15.865  35.890  24.932  0.00  0.00    -0.076 C 
ATOM     71  H   ILE d   1      15.921  35.103  25.685  0.00  0.00     0.027 H 
ATOM     72  H   ILE d   1      14.963  36.481  25.090  0.00  0.00     0.027 H 
ATOM     73  H   ILE d   1      15.839  35.443  23.938  0.00  0.00     0.027 H 
ENDBRANCH  67  70
ENDBRANCH  65  67
BRANCH  65  74
ATOM     74  CG2 ILE d   1      16.276  38.650  26.531  0.00  0.00    -0.071 C 
ATOM     75  H   ILE d   1      16.338  39.080  27.530  0.00  0.00     0.028 H 
ATOM     76  H   ILE d   1      16.551  39.403  25.792  0.00  0.00     0.028 H 
ATOM     77  H   ILE d   1      15.258  38.309  26.343  0.00  0.00     0.028 H 
ENDBRANCH  65  74
ENDBRANCH  13  65
ENDBRANCH  10  13
ENDBRANCH   7   9
BRANCH   7  78
ATOM     78  CB  LEU d   1      19.514  36.791  31.423  0.00  0.00    -0.035 C 
ATOM     79  H   LEU d   1      20.082  37.189  32.264  0.00  0.00     0.037 H 
ATOM     80  H   LEU d   1      20.024  36.037  30.823  0.00  0.00     0.037 H 
BRANCH  78  81
ATOM     81  CG  LEU d   1      18.281  36.110  32.017  0.00  0.00    -0.059 C 
ATOM     82  H   LEU d   1      17.618  35.833  31.197  0.00  0.00     0.038 H 
BRANCH  81  83
ATOM     83  CD1 LEU d   1      18.658  34.850  32.747  0.00  0.00    -0.073 C 
ATOM     84  H   LEU d   1      19.139  34.160  32.054  0.00  0.00     0.028 H 
ATOM     85  H   LEU d   1      19.347  35.093  33.556  0.00  0.00     0.028 H 
ATOM     86  H   LEU d   1      17.761  34.388  33.159  0.00  0.00     0.028 H 
ENDBRANCH  81  83
BRANCH  81  87
ATOM     87  CD2 LEU d   1      17.536  37.062  32.930  0.00  0.00    -0.073 C 
ATOM     88  H   LEU d   1      18.194  37.375  33.741  0.00  0.00     0.028 H 
ATOM     89  H   LEU d   1      17.218  37.936  32.361  0.00  0.00     0.028 H 
ATOM     90  H   LEU d   1      16.662  36.558  33.343  0.00  0.00     0.028 H 
ENDBRANCH  81  87
ENDBRANCH  78  81
ENDBRANCH   7  78
ENDBRANCH   4   7
ENDBRANCH   1   3
BRANCH   1  91
ATOM     91  C   HIS d   1      22.308  40.830  29.182  0.00  0.00     0.241 C 
ATOM     92  O   HIS d   1      22.689  41.854  29.743  0.00  0.00    -0.271 OA
ATOM     93  N   ARG d   1      21.608  40.834  28.058  0.00  0.00    -0.346 N 
ATOM     94  H   ARG d   1      21.334  39.950  27.629  0.00  0.00     0.163 HD
BRANCH  93  95
ATOM     95  CA  ARG d   1      21.230  42.080  27.435  0.00  0.00     0.089 C 
ATOM     96  H   ARG d   1      22.138  42.625  27.178  0.00  0.00     0.087 H 
BRANCH  95  97
ATOM     97  C   ARG d   1      20.407  42.939  28.395  0.00  0.00     0.241 C 
ATOM     98  O   ARG d   1      20.670  44.132  28.555  0.00  0.00    -0.271 OA
ATOM     99  N   LEU d   1      19.411  42.329  29.031  0.00  0.00    -0.346 N 
ATOM    100  H   LEU d   1      19.269  41.328  28.895  0.00  0.00     0.163 HD
BRANCH  99 101
ATOM    101  CA  LEU d   1      18.516  43.067  29.922  0.00  0.00     0.089 C 
ATOM    102  H   LEU d   1      18.245  43.977  29.387  0.00  0.00     0.087 H 
BRANCH 101 103
ATOM    103  C   LEU d   1      19.188  43.464  31.228  0.00  0.00     0.241 C 
ATOM    104  O   LEU d   1      18.584  44.140  32.054  0.00  0.00    -0.271 OA
ATOM    105  N   LEU d   1      20.434  43.038  31.408  0.00  0.00    -0.346 N 
ATOM    106  H   LEU d   1      20.886  42.494  30.673  0.00  0.00     0.163 HD
BRANCH 105 107
ATOM    107  CA  LEU d   1      21.166  43.331  32.629  0.00  0.00     0.089 C 
ATOM    108  H   LEU d   1      20.449  43.684  33.370  0.00  0.00     0.087 H 
BRANCH 107 109
ATOM    109  C   LEU d   1      22.180  44.450  32.422  0.00  0.00     0.241 C 
ATOM    110  O   LEU d   1      22.749  44.951  33.382  0.00  0.00    -0.271 OA
ATOM    111  N   GLN d   1      22.387  44.854  31.170  0.00  0.00    -0.345 N 
ATOM    112  H   GLN d   1      21.875  44.402  30.413  0.00  0.00     0.163 HD
BRANCH 111 113
ATOM    113  CA  GLN d   1      23.329  45.929  30.849  0.00  0.00     0.096 C 
ATOM    114  H   GLN d   1      24.221  45.750  31.449  0.00  0.00     0.089 H 
BRANCH 113 115
ATOM    115  C   GLN d   1      22.770  47.314  31.210  0.00  0.00     0.196 C 
ATOM    116  O   GLN d   1      21.563  47.467  31.424  0.00  0.00    -0.646 OA
ATOM    117  O   GLN d   1      23.549  48.301  31.288  0.00  0.00    -0.646 OA
ENDBRANCH 113 115
BRANCH 113 118
ATOM    118  CB  GLN d   1      23.693  45.909  29.357  0.00  0.00    -0.029 C 
ATOM    119  H   GLN d   1      24.366  46.752  29.203  0.00  0.00     0.037 H 
ATOM    120  H   GLN d   1      22.745  45.929  28.819  0.00  0.00     0.037 H 
BRANCH 118 121
ATOM    121  CG  GLN d   1      24.442  44.675  28.842  0.00  0.00     0.011 C 
ATOM    122  H   GLN d   1      23.914  43.788  29.191  0.00  0.00     0.047 H 
ATOM    123  H   GLN d   1      25.465  44.719  29.215  0.00  0.00     0.047 H 
BRANCH 121 124
ATOM    124  CD  GLN d   1      24.495  44.626  27.307  0.00  0.00     0.215 C 
ATOM    125  OE1 GLN d   1      24.300  45.644  26.635  0.00  0.00    -0.274 OA
ATOM    126  NE2 GLN d   1      24.743  43.437  26.751  0.00  0.00    -0.370 N 
ATOM    127  H   GLN d   1      24.777  43.346  25.736  0.00  0.00     0.159 HD
ATOM    128  H   GLN d   1      24.899  42.620  27.342  0.00  0.00     0.159 HD
ENDBRANCH 121 124
ENDBRANCH 118 121
ENDBRANCH 113 118
ENDBRANCH 111 113
ENDBRANCH 107 109
BRANCH 107 129
ATOM    129  CB  LEU d   1      21.832  42.065  33.181  0.00  0.00    -0.035 C 
ATOM    130  H   LEU d   1      22.590  42.394  33.891  0.00  0.00     0.037 H 
ATOM    131  H   LEU d   1      22.211  41.511  32.323  0.00  0.00     0.037 H 
BRANCH 129 132
ATOM    132  CG  LEU d   1      20.895  41.114  33.943  0.00  0.00    -0.059 C 
ATOM    133  H   LEU d   1      20.086  40.853  33.261  0.00  0.00     0.038 H 
BRANCH 132 134
ATOM    134  CD1 LEU d   1      21.568  39.802  34.337  0.00  0.00    -0.073 C 
ATOM    135  H   LEU d   1      21.907  39.285  33.439  0.00  0.00     0.028 H 
ATOM    136  H   LEU d   1      22.422  40.012  34.981  0.00  0.00     0.028 H 
ATOM    137  H   LEU d   1      20.854  39.175  34.871  0.00  0.00     0.028 H 
ENDBRANCH 132 134
BRANCH 132 138
ATOM    138  CD2 LEU d   1      20.321  41.808  35.163  0.00  0.00    -0.073 C 
ATOM    139  H   LEU d   1      21.134  42.112  35.822  0.00  0.00     0.028 H 
ATOM    140  H   LEU d   1      19.758  42.687  34.848  0.00  0.00     0.028 H 
ATOM    141  H   LEU d   1      19.660  41.122  35.692  0.00  0.00     0.028 H 
ENDBRANCH 132 138
ENDBRANCH 129 132
ENDBRANCH 107 129
ENDBRANCH 105 107
ENDBRANCH 101 103
BRANCH 101 142
ATOM    142  CB  LEU d   1      17.259  42.258  30.235  0.00  0.00    -0.035 C 
ATOM    143  H   LEU d   1      16.622  42.892  30.852  0.00  0.00     0.037 H 
ATOM    144  H   LEU d   1      17.590  41.335  30.711  0.00  0.00     0.037 H 
BRANCH 142 145
ATOM    145  CG  LEU d   1      16.432  41.854  29.018  0.00  0.00    -0.059 C 
ATOM    146  H   LEU d   1      17.022  41.172  28.406  0.00  0.00     0.038 H 
BRANCH 145 147
ATOM    147  CD1 LEU d   1      15.171  41.122  29.450  0.00  0.00    -0.073 C 
ATOM    148  H   LEU d   1      15.445  40.225  30.006  0.00  0.00     0.028 H 
ATOM    149  H   LEU d   1      14.572  41.776  30.084  0.00  0.00     0.028 H 
ATOM    150  H   LEU d   1      14.595  40.842  28.568  0.00  0.00     0.028 H 
ENDBRANCH 145 147
BRANCH 145 151
ATOM    151  CD2 LEU d   1      16.099  43.073  28.171  0.00  0.00    -0.073 C 
ATOM    152  H   LEU d   1      15.527  43.783  28.768  0.00  0.00     0.028 H 
ATOM    153  H   LEU d   1      17.023  43.542  27.832  0.00  0.00     0.028 H 
ATOM    154  H   LEU d   1      15.509  42.764  27.308  0.00  0.00     0.028 H 
ENDBRANCH 145 151
ENDBRANCH 142 145
ENDBRANCH 101 142
ENDBRANCH  99 101
ENDBRANCH  95  97
BRANCH  95 155
ATOM    155  CB  ARG d   1      20.434  41.808  26.165  0.00  0.00    -0.036 C 
ATOM    156  H   ARG d   1      19.561  41.215  26.439  0.00  0.00     0.036 H 
ATOM    157  H   ARG d   1      21.091  41.294  25.463  0.00  0.00     0.036 H 
BRANCH 155 158
ATOM    158  CG  ARG d   1      19.945  43.069  25.501  0.00  0.00    -0.048 C 
ATOM    159  H   ARG d   1      19.246  43.585  26.160  0.00  0.00     0.035 H 
ATOM    160  H   ARG d   1      19.436  42.821  24.570  0.00  0.00     0.035 H 
BRANCH 158 161
ATOM    161  CD  ARG d   1      21.116  43.952  25.216  0.00  0.00     0.009 C 
ATOM    162  H   ARG d   1      21.873  43.364  24.697  0.00  0.00     0.064 H 
ATOM    163  H   ARG d   1      21.491  44.343  26.162  0.00  0.00     0.064 H 
BRANCH 161 164
ATOM    164  NE  ARG d   1      20.746  45.072  24.371  0.00  0.00    -0.227 N 
ATOM    165  CZ  ARG d   1      21.622  45.942  23.890  0.00  0.00     0.665 C 
ATOM    166  NH1 ARG d   1      22.907  45.809  24.188  0.00  0.00    -0.235 N 
ATOM    167  NH2 ARG d   1      21.216  46.942  23.120  0.00  0.00    -0.235 N 
ATOM    168  H   ARG d   1      23.215  45.041  24.784  0.00  0.00     0.174 HD
ATOM    169  H   ARG d   1      23.587  46.475  23.821  0.00  0.00     0.174 HD
ATOM    170  H   ARG d   1      20.226  47.044  22.896  0.00  0.00     0.174 HD
ATOM    171  H   ARG d   1      21.893  47.610  22.752  0.00  0.00     0.174 HD
ATOM    172  H   ARG d   1      19.761  45.196  24.135  0.00  0.00     0.177 HD
ENDBRANCH 161 164
ENDBRANCH 158 161
ENDBRANCH 155 158
ENDBRANCH  95 155
ENDBRANCH  93  95
ENDBRANCH   1  91
BRANCH   1 173
ATOM    173  CB  HIS d   1      23.659  38.838  28.778  0.00  0.00     0.004 C 
ATOM    174  H   HIS d   1      23.983  39.616  28.087  0.00  0.00     0.046 H 
ATOM    175  H   HIS d   1      23.164  37.997  28.293  0.00  0.00     0.046 H 
BRANCH 173 176
ATOM    176  CG  HIS d   1      24.877  38.308  29.454  0.00  0.00     0.053 A 
ATOM    177  ND1 HIS d   1      25.128  36.957  29.583  0.00  0.00    -0.247 NA
ATOM    178  CE1 HIS d   1      26.270  36.787  30.221  0.00  0.00     0.064 A 
ATOM    179  NE2 HIS d   1      26.767  37.977  30.514  0.00  0.00    -0.359 N 
ATOM    180  H   HIS d   1      26.727  35.828  30.465  0.00  0.00     0.143 H 
ATOM    181  CD2 HIS d   1      25.916  38.945  30.043  0.00  0.00     0.002 A 
ATOM    182  H   HIS d   1      27.642  38.148  31.010  0.00  0.00     0.166 HD
ATOM    183  H   HIS d   1      26.051  40.023  30.127  0.00  0.00     0.114 H 
ENDBRANCH 173 176
ENDBRANCH   1 173
TORSDOF 52
