REMARK  14 active torsions:
REMARK  status: ('A' for Active; 'I' for Inactive)
REMARK    1  A    between atoms: C1_1  and  C12_12 
REMARK    2  A    between atoms: C3_3  and  C7_7 
REMARK    3  A    between atoms: C5_5  and  C9_9 
REMARK    4  A    between atoms: C9_9  and  C10_10 
REMARK    5  A    between atoms: C10_10  and  C11_11 
REMARK    6  A    between atoms: C14_14  and  C22_22 
REMARK    7  A    between atoms: C16_16  and  C18_18 
REMARK       I    between atoms: C22_22  and  N24_24 
REMARK    8  A    between atoms: N24_24  and  C25_25 
REMARK    9  A    between atoms: N24_24  and  C32_32 
REMARK   10  A    between atoms: C25_25  and  C26_26 
REMARK   11  A    between atoms: C32_32  and  C33_33 
REMARK   12  A    between atoms: C33_33  and  N34_34 
REMARK   13  A    between atoms: N34_34  and  C35_35 
REMARK   14  A    between atoms: N34_34  and  C36_36 
ROOT
ATOM      1  C12 O75 d   1      12.788  -4.031   6.450  0.00  0.00    -0.005 A 
ATOM      2  C13 O75 d   1      11.413  -3.799   6.558  0.00  0.00    -0.056 A 
ATOM      3  C14 O75 d   1      10.506  -4.791   6.198  0.00  0.00     0.033 A 
ATOM      4  C15 O75 d   1      10.963  -6.032   5.774  0.00  0.00    -0.053 A 
ATOM      5  C16 O75 d   1      12.332  -6.270   5.659  0.00  0.00     0.049 A 
ATOM      6  C17 O75 d   1      13.237  -5.274   6.001  0.00  0.00    -0.056 A 
ATOM      7  H   O75 d   1      11.051  -2.839   6.925  0.00  0.00     0.086 H 
ATOM      8  H   O75 d   1      10.251  -6.821   5.531  0.00  0.00     0.086 H 
ATOM      9  H   O75 d   1      14.307  -5.464   5.918  0.00  0.00     0.086 H 
ENDROOT
BRANCH   3  10
ATOM     10  C22 O75 d   1       9.019  -4.608   6.341  0.00  0.00     0.254 C 
ATOM     11  O23 O75 d   1       8.645  -4.550   7.482  0.00  0.00    -0.267 OA
ATOM     12  N24 O75 d   1       8.136  -4.609   5.344  0.00  0.00    -0.342 N 
BRANCH  12  13
ATOM     13  C25 O75 d   1       8.498  -4.711   3.936  0.00  0.00     0.022 C 
ATOM     14  H   O75 d   1       7.984  -5.563   3.491  0.00  0.00     0.071 H 
ATOM     15  H   O75 d   1       9.576  -4.847   3.848  0.00  0.00     0.071 H 
BRANCH  13  16
ATOM     16  C26 O75 d   1       8.092  -3.449   3.217  0.00  0.00    -0.040 A 
ATOM     17  C27 O75 d   1       8.371  -2.212   3.788  0.00  0.00    -0.075 A 
ATOM     18  C28 O75 d   1       7.976  -1.051   3.131  0.00  0.00    -0.082 A 
ATOM     19  H   O75 d   1       8.895  -2.153   4.742  0.00  0.00     0.084 H 
ATOM     20  C29 O75 d   1       7.323  -1.144   1.908  0.00  0.00    -0.083 A 
ATOM     21  H   O75 d   1       8.177  -0.075   3.573  0.00  0.00     0.083 H 
ATOM     22  C30 O75 d   1       7.054  -2.377   1.339  0.00  0.00    -0.082 A 
ATOM     23  H   O75 d   1       7.019  -0.234   1.390  0.00  0.00     0.083 H 
ATOM     24  C31 O75 d   1       7.439  -3.542   1.999  0.00  0.00    -0.075 A 
ATOM     25  H   O75 d   1       6.543  -2.436   0.378  0.00  0.00     0.083 H 
ATOM     26  H   O75 d   1       7.228  -4.518   1.561  0.00  0.00     0.084 H 
ENDBRANCH  13  16
ENDBRANCH  12  13
BRANCH  12  27
ATOM     27  C32 O75 d   1       6.682  -4.458   5.614  0.00  0.00     0.013 C 
ATOM     28  H   O75 d   1       6.128  -4.427   4.676  0.00  0.00     0.066 H 
ATOM     29  H   O75 d   1       6.495  -3.528   6.150  0.00  0.00     0.066 H 
BRANCH  27  30
ATOM     30  C33 O75 d   1       6.224  -5.658   6.460  0.00  0.00     0.004 C 
ATOM     31  H   O75 d   1       6.547  -5.493   7.488  0.00  0.00     0.066 H 
ATOM     32  H   O75 d   1       6.661  -6.561   6.034  0.00  0.00     0.066 H 
BRANCH  30  33
ATOM     33  N34 O75 d   1       4.764  -5.809   6.457  0.00  0.00    -0.419 N 
BRANCH  33  34
ATOM     34  C35 O75 d   1       4.213  -6.963   7.163  0.00  0.00    -0.024 C 
ATOM     35  H   O75 d   1       4.603  -7.879   6.719  0.00  0.00     0.055 H 
ATOM     36  H   O75 d   1       4.500  -6.916   8.213  0.00  0.00     0.055 H 
ATOM     37  H   O75 d   1       3.126  -6.952   7.081  0.00  0.00     0.055 H 
ENDBRANCH  33  34
BRANCH  33  38
ATOM     38  C36 O75 d   1       3.871  -4.856   5.792  0.00  0.00    -0.024 C 
ATOM     39  H   O75 d   1       4.006  -3.867   6.230  0.00  0.00     0.055 H 
ATOM     40  H   O75 d   1       4.108  -4.819   4.729  0.00  0.00     0.055 H 
ATOM     41  H   O75 d   1       2.837  -5.175   5.925  0.00  0.00     0.055 H 
ENDBRANCH  33  38
ENDBRANCH  30  33
ENDBRANCH  27  30
ENDBRANCH  12  27
ENDBRANCH   3  10
BRANCH   1  42
ATOM     42  C1  O75 d   1      13.827  -3.019   6.811  0.00  0.00     0.071 A 
ATOM     43  N2  O75 d   1      15.007  -3.093   6.164  0.00  0.00    -0.227 NA
ATOM     44  C3  O75 d   1      16.002  -2.252   6.470  0.00  0.00     0.167 A 
ATOM     45  N4  O75 d   1      15.867  -1.281   7.413  0.00  0.00    -0.233 NA
ATOM     46  C5  O75 d   1      14.712  -1.174   8.113  0.00  0.00     0.039 A 
ATOM     47  C6  O75 d   1      13.661  -2.053   7.827  0.00  0.00    -0.030 A 
ATOM     48  H   O75 d   1      12.725  -1.992   8.382  0.00  0.00     0.090 H 
BRANCH  44  49
ATOM     49  C7  O75 d   1      17.243  -2.300   5.691  0.00  0.00     0.040 C 
ATOM     50  N8  O75 d   1      17.994  -1.296   5.792  0.00  0.00    -0.308 NA
ATOM     51  H   O75 d   1      17.723  -0.515   6.389  0.00  0.00     0.186 HD
ATOM     52  H   O75 d   1      17.499  -3.153   5.063  0.00  0.00     0.119 H 
ENDBRANCH  44  49
BRANCH  46  53
ATOM     53  C9  O75 d   1      14.615  -0.091   9.182  0.00  0.00    -0.025 C 
ATOM     54  H   O75 d   1      15.323  -0.318   9.979  0.00  0.00     0.042 H 
ATOM     55  H   O75 d   1      13.596  -0.067   9.567  0.00  0.00     0.042 H 
BRANCH  53  56
ATOM     56  C10 O75 d   1      14.951   1.267   8.601  0.00  0.00    -0.063 C 
ATOM     57  H   O75 d   1      15.959   1.237   8.188  0.00  0.00     0.033 H 
ATOM     58  H   O75 d   1      14.885   2.016   9.390  0.00  0.00     0.033 H 
BRANCH  56  59
ATOM     59  C11 O75 d   1      13.979   1.625   7.500  0.00  0.00    -0.076 C 
ATOM     60  H   O75 d   1      14.036   0.876   6.710  0.00  0.00     0.027 H 
ATOM     61  H   O75 d   1      12.967   1.652   7.905  0.00  0.00     0.027 H 
ATOM     62  H   O75 d   1      14.236   2.604   7.094  0.00  0.00     0.027 H 
ENDBRANCH  56  59
ENDBRANCH  53  56
ENDBRANCH  46  53
ENDBRANCH   1  42
BRANCH   5  63
ATOM     63  C18 O75 d   1      12.860  -7.605   5.220  0.00  0.00     0.417 C 
ATOM     64  F19 O75 d   1      13.698  -7.465   4.243  0.00  0.00    -0.166 F 
ATOM     65  F20 O75 d   1      11.909  -8.422   4.884  0.00  0.00    -0.166 F 
ATOM     66  F21 O75 d   1      13.478  -8.177   6.227  0.00  0.00    -0.166 F 
ENDBRANCH   5  63
TORSDOF 14
