REMARK  6 active torsions:
REMARK  status: ('A' for Active; 'I' for Inactive)
REMARK    1  A    between atoms: N1_1  and  C2_2 
REMARK    2  A    between atoms: N7_7  and  C13_13 
REMARK    3  A    between atoms: C9_9  and  C14_14 
REMARK    4  A    between atoms: C13_13  and  C16_16 
REMARK    5  A    between atoms: C15_15  and  S17_17 
REMARK    6  A    between atoms: S17_17  and  C20_20 
ROOT
ATOM      1  N1  MQY d   1       6.893  -0.077  22.632  0.00  0.00    -0.232 N 
ATOM      2  C3  MQY d   1       7.082   1.136  22.051  0.00  0.00     0.333 A 
ATOM      3  C4  MQY d   1       5.899  -0.028  23.563  0.00  0.00     0.255 A 
ATOM      4  N7  MQY d   1       6.205   2.027  22.586  0.00  0.00    -0.316 N 
ATOM      5  O8  MQY d   1       7.905   1.398  21.176  0.00  0.00    -0.246 OA
ATOM      6  C9  MQY d   1       5.351   1.410  23.600  0.00  0.00     0.091 A 
ATOM      7  O10 MQY d   1       5.474  -0.950  24.269  0.00  0.00    -0.270 OA
ATOM      8  H3  MQY d   1       5.484   1.884  24.584  0.00  0.00     0.087 H 
ENDROOT
BRANCH   4   9
ATOM      9  C13 MQY d   1       6.079   3.454  22.228  0.00  0.00     0.025 C 
ATOM     10  H6  MQY d   1       5.045   3.761  22.442  0.00  0.00     0.071 H 
ATOM     11  H7  MQY d   1       6.273   3.545  21.149  0.00  0.00     0.071 H 
BRANCH   9  12
ATOM     12  C16 MQY d   1       7.013   4.433  22.952  0.00  0.00    -0.026 A 
ATOM     13  C18 MQY d   1       6.942   5.855  22.658  0.00  0.00     0.001 A 
ATOM     14  C23 MQY d   1       7.831   6.786  23.351  0.00  0.00     0.067 A 
ATOM     15  C24 MQY d   1       6.001   6.382  21.695  0.00  0.00    -0.070 A 
ATOM     16  N29 MQY d   1       8.738   6.277  24.280  0.00  0.00    -0.260 NA
ATOM     17  C30 MQY d   1       7.753   8.184  23.055  0.00  0.00    -0.054 A 
ATOM     18  C25 MQY d   1       8.807   4.945  24.556  0.00  0.00     0.003 A 
ATOM     19  C19 MQY d   1       7.974   3.997  23.922  0.00  0.00    -0.058 A 
ATOM     20  H13 MQY d   1       9.527   4.600  25.289  0.00  0.00     0.114 H 
ATOM     21  H11 MQY d   1       8.061   2.945  24.168  0.00  0.00     0.086 H 
ATOM     22  C32 MQY d   1       6.818   8.675  22.100  0.00  0.00    -0.081 A 
ATOM     23  H14 MQY d   1       8.413   8.877  23.564  0.00  0.00     0.087 H 
ATOM     24  C31 MQY d   1       5.947   7.776  21.424  0.00  0.00    -0.082 A 
ATOM     25  H16 MQY d   1       6.770   9.737  21.887  0.00  0.00     0.083 H 
ATOM     26  H15 MQY d   1       5.238   8.157  20.698  0.00  0.00     0.083 H 
ATOM     27  H12 MQY d   1       5.330   5.707  21.175  0.00  0.00     0.084 H 
ENDBRANCH   9  12
ENDBRANCH   4   9
BRANCH   6  28
ATOM     28  C14 MQY d   1       3.856   1.408  23.222  0.00  0.00    -0.049 C 
ATOM     29  H8  MQY d   1       3.275   0.931  24.026  0.00  0.00     0.030 H 
ATOM     30  H9  MQY d   1       3.715   0.848  22.286  0.00  0.00     0.030 H 
ATOM     31  H10 MQY d   1       3.511   2.443  23.085  0.00  0.00     0.030 H 
ENDBRANCH   6  28
BRANCH   1  32
ATOM     32  C2  MQY d   1       7.607  -1.223  22.333  0.00  0.00     0.047 A 
ATOM     33  C5  MQY d   1       6.937  -2.330  21.736  0.00  0.00    -0.055 A 
ATOM     34  C11 MQY d   1       7.635  -3.506  21.419  0.00  0.00    -0.060 A 
ATOM     35  H1  MQY d   1       5.876  -2.263  21.524  0.00  0.00     0.087 H 
ATOM     36  C15 MQY d   1       9.017  -3.596  21.689  0.00  0.00     0.068 A 
ATOM     37  H4  MQY d   1       7.114  -4.343  20.968  0.00  0.00     0.085 H 
ATOM     38  C12 MQY d   1       9.711  -2.509  22.286  0.00  0.00    -0.060 A 
ATOM     39  C6  MQY d   1       9.006  -1.325  22.606  0.00  0.00    -0.055 A 
ATOM     40  H5  MQY d   1      10.772  -2.587  22.494  0.00  0.00     0.085 H 
ATOM     41  H2  MQY d   1       9.529  -0.491  23.060  0.00  0.00     0.087 H 
BRANCH  36  42
ATOM     42  S17 MQY d   1       9.876  -5.088  21.263  0.00  0.00     0.276 S 
ATOM     43  O21 MQY d   1      11.100  -5.150  21.998  0.00  0.00    -0.213 OA
ATOM     44  O22 MQY d   1       8.965  -6.192  21.354  0.00  0.00    -0.213 OA
BRANCH  42  45
ATOM     45  C20 MQY d   1      10.301  -4.883  19.531  0.00  0.00     0.503 C 
ATOM     46  F26 MQY d   1      10.936  -5.969  19.144  0.00  0.00    -0.157 F 
ATOM     47  F27 MQY d   1      11.103  -3.829  19.424  0.00  0.00    -0.157 F 
ATOM     48  F28 MQY d   1       9.188  -4.698  18.826  0.00  0.00    -0.157 F 
ENDBRANCH  42  45
ENDBRANCH  36  42
ENDBRANCH   1  32
TORSDOF 6
