REMARK  11 active torsions:
REMARK  status: ('A' for Active; 'I' for Inactive)
REMARK    1  A    between atoms: C6_3  and  C5_2 
REMARK    2  A    between atoms: C5_2  and  N_14 
REMARK    3  A    between atoms: C17_9  and  C18_20 
REMARK    4  A    between atoms: C2_12  and  C_11 
REMARK    5  A    between atoms: C_11  and  C31_31 
REMARK    6  A    between atoms: C3_13  and  C2_12 
REMARK    7  A    between atoms: N_14  and  C3_13 
REMARK    8  A    between atoms: N_14  and  C25_26 
REMARK    9  A    between atoms: C9_15  and  C12_17 
REMARK   10  A    between atoms: C23_25  and  C30_30 
REMARK   11  A    between atoms: C27_28  and  C29_29 
ROOT
ATOM      1  C5  46A d   1      37.145  82.146  46.529  0.00  0.00     0.035 C 
ATOM      2  H   46A d   1      36.766  81.342  47.159  0.00  0.00     0.072 H 
ATOM      3  H   46A d   1      36.516  83.010  46.314  0.00  0.00     0.072 H 
ENDROOT
BRANCH   1   4
ATOM      4  C6  46A d   1      37.373  81.494  45.175  0.00  0.00    -0.040 A 
ATOM      5  C7  46A d   1      36.350  80.636  44.723  0.00  0.00    -0.074 A 
ATOM      6  C8  46A d   1      36.455  79.966  43.491  0.00  0.00    -0.072 A 
ATOM      7  H   46A d   1      35.463  80.489  45.339  0.00  0.00     0.084 H 
ATOM      8  C9  46A d   1      37.575  80.134  42.671  0.00  0.00    -0.025 A 
ATOM      9  H   46A d   1      35.650  79.305  43.170  0.00  0.00     0.084 H 
ATOM     10  C10 46A d   1      38.605  80.991  43.109  0.00  0.00    -0.072 A 
ATOM     11  C11 46A d   1      38.515  81.673  44.355  0.00  0.00    -0.074 A 
ATOM     12  H   46A d   1      39.486  81.134  42.483  0.00  0.00     0.084 H 
ATOM     13  H   46A d   1      39.322  82.331  44.678  0.00  0.00     0.084 H 
BRANCH   8  14
ATOM     14  C12 46A d   1      37.666  79.370  41.357  0.00  0.00    -0.012 A 
ATOM     15  C13 46A d   1      38.756  78.552  41.186  0.00  0.00    -0.071 A 
ATOM     16  C14 46A d   1      38.941  77.782  40.018  0.00  0.00    -0.082 A 
ATOM     17  H   46A d   1      39.502  78.496  41.978  0.00  0.00     0.084 H 
ATOM     18  C15 46A d   1      38.002  77.813  38.967  0.00  0.00    -0.082 A 
ATOM     19  H   46A d   1      39.826  77.152  39.927  0.00  0.00     0.083 H 
ATOM     20  C16 46A d   1      36.857  78.631  39.077  0.00  0.00    -0.068 A 
ATOM     21  H   46A d   1      38.159  77.208  38.074  0.00  0.00     0.083 H 
ATOM     22  C17 46A d   1      36.642  79.409  40.219  0.00  0.00     0.026 A 
ATOM     23  H   46A d   1      36.133  78.657  38.263  0.00  0.00     0.085 H 
BRANCH  22  24
ATOM     24  C18 46A d   1      35.415  80.222  40.252  0.00  0.00     0.198 A 
ATOM     25  N19 46A d   1      34.201  79.738  39.944  0.00  0.00    -0.136 NA
ATOM     26  N20 46A d   1      33.297  80.733  40.094  0.00  0.00     0.022 NA
ATOM     27  N21 46A d   1      33.970  81.861  40.504  0.00  0.00    -0.200 N 
ATOM     28  N22 46A d   1      35.280  81.531  40.597  0.00  0.00    -0.139 NA
ATOM     29  H   46A d   1      33.559  82.774  40.701  0.00  0.00     0.208 HD
ENDBRANCH  22  24
ENDBRANCH   8  14
ENDBRANCH   1   4
BRANCH   1  30
ATOM     30  N   46A d   1      38.277  82.693  47.274  0.00  0.00    -0.210 N 
BRANCH  30  31
ATOM     31  C3  46A d   1      38.961  81.785  48.226  0.00  0.00     0.012 C 
ATOM     32  H   46A d   1      38.665  80.763  47.988  0.00  0.00     0.065 H 
ATOM     33  H   46A d   1      40.035  81.942  48.128  0.00  0.00     0.065 H 
BRANCH  31  34
ATOM     34  C2  46A d   1      38.573  82.062  49.685  0.00  0.00    -0.050 C 
ATOM     35  H   46A d   1      39.449  82.369  50.257  0.00  0.00     0.035 H 
ATOM     36  H   46A d   1      37.842  82.869  49.735  0.00  0.00     0.035 H 
BRANCH  34  37
ATOM     37  C   46A d   1      37.990  80.788  50.260  0.00  0.00    -0.067 C 
ATOM     38  H   46A d   1      38.746  80.014  50.128  0.00  0.00     0.032 H 
ATOM     39  H   46A d   1      37.047  80.617  49.742  0.00  0.00     0.032 H 
BRANCH  37  40
ATOM     40  C31 46A d   1      37.664  80.827  51.755  0.00  0.00    -0.076 C 
ATOM     41  H   46A d   1      38.574  81.031  52.319  0.00  0.00     0.027 H 
ATOM     42  H   46A d   1      36.933  81.613  51.946  0.00  0.00     0.027 H 
ATOM     43  H   46A d   1      37.253  79.865  52.061  0.00  0.00     0.027 H 
ENDBRANCH  37  40
ENDBRANCH  34  37
ENDBRANCH  31  34
ENDBRANCH  30  31
BRANCH  30  44
ATOM     44  C25 46A d   1      38.658  84.001  47.096  0.00  0.00     0.725 A 
ATOM     45  N1  46A d   1      37.953  84.736  46.190  0.00  0.00    -0.068 NA
ATOM     46  C23 46A d   1      38.305  86.028  46.002  0.00  0.00     0.051 A 
ATOM     47  C28 46A d   1      39.383  86.619  46.716  0.00  0.00    -0.035 A 
ATOM     48  C27 46A d   1      40.068  85.790  47.636  0.00  0.00     0.051 A 
ATOM     49  H   46A d   1      39.668  87.660  46.562  0.00  0.00     0.089 H 
ATOM     50  N2  46A d   1      39.706  84.499  47.811  0.00  0.00    -0.068 NA
BRANCH  46  51
ATOM     51  C30 46A d   1      37.511  86.818  45.002  0.00  0.00    -0.035 C 
ATOM     52  H   46A d   1      37.593  86.348  44.022  0.00  0.00     0.035 H 
ATOM     53  H   46A d   1      36.465  86.843  45.308  0.00  0.00     0.035 H 
ATOM     54  H   46A d   1      37.900  87.835  44.953  0.00  0.00     0.035 H 
ENDBRANCH  46  51
BRANCH  48  55
ATOM     55  C29 46A d   1      41.218  86.301  48.451  0.00  0.00    -0.035 C 
ATOM     56  H   46A d   1      42.011  86.640  47.785  0.00  0.00     0.035 H 
ATOM     57  H   46A d   1      40.882  87.133  49.070  0.00  0.00     0.035 H 
ATOM     58  H   46A d   1      41.594  85.501  49.088  0.00  0.00     0.035 H 
ENDBRANCH  48  55
ENDBRANCH  30  44
ENDBRANCH   1  30
TORSDOF 11
