REMARK  3 active torsions:
REMARK  status: ('A' for Active; 'I' for Inactive)
REMARK       I    between atoms: C13_14  and  N1_2 
REMARK    1  A    between atoms: N1_2  and  O14_15 
REMARK    2  A    between atoms: C12_13  and  C5_6 
REMARK    3  A    between atoms: C12_13  and  C13_14 
ROOT
ATOM      1 BR   BB4 d   1       2.185  21.753 -28.907  0.00  0.00    -0.051 Br
ATOM      2  N3  BB4 d   1      -3.543  20.357 -30.807  0.00  0.00    -0.365 N 
ATOM      3  C4  BB4 d   1      -3.602  19.117 -30.180  0.00  0.00    -0.015 A 
ATOM      4  C5  BB4 d   1      -2.523  18.733 -29.481  0.00  0.00    -0.021 A 
ATOM      5  C6  BB4 d   1      -1.707  19.861 -29.693  0.00  0.00    -0.000 A 
ATOM      6  C7  BB4 d   1      -0.393  20.204 -29.234  0.00  0.00    -0.053 A 
ATOM      7  C8  BB4 d   1       0.275  21.474 -29.590  0.00  0.00     0.011 A 
ATOM      8  C9  BB4 d   1      -0.489  22.388 -30.446  0.00  0.00    -0.064 A 
ATOM      9  C10 BB4 d   1      -1.790  22.061 -30.941  0.00  0.00    -0.055 A 
ATOM     10  C11 BB4 d   1      -2.373  20.857 -30.549  0.00  0.00     0.043 A 
ATOM     11  H   BB4 d   1      -4.279  20.791 -31.364  0.00  0.00     0.165 HD
ATOM     12  H   BB4 d   1      -4.487  18.484 -30.253  0.00  0.00     0.112 H 
ATOM     13  H   BB4 d   1       0.137  19.498 -28.595  0.00  0.00     0.086 H 
ATOM     14  H   BB4 d   1      -0.050  23.349 -30.714  0.00  0.00     0.085 H 
ATOM     15  H   BB4 d   1      -2.316  22.740 -31.612  0.00  0.00     0.087 H 
ENDROOT
BRANCH   4  16
ATOM     16  C12 BB4 d   1      -2.352  17.375 -28.731  0.00  0.00     0.037 C 
ATOM     17  H   BB4 d   1      -1.321  17.103 -28.958  0.00  0.00     0.054 H 
ATOM     18  H   BB4 d   1      -3.220  16.805 -29.064  0.00  0.00     0.054 H 
BRANCH  16  19
ATOM     19  C13 BB4 d   1      -2.419  17.211 -27.060  0.00  0.00     0.245 C 
ATOM     20  N1  BB4 d   1      -1.237  16.772 -26.367  0.00  0.00    -0.237 N 
ATOM     21  H   BB4 d   1      -0.428  16.580 -26.958  0.00  0.00     0.197 HD
ATOM     22  O2  BB4 d   1      -3.488  17.459 -26.446  0.00  0.00    -0.271 OA
BRANCH  20  23
ATOM     23  O14 BB4 d   1      -1.040  16.570 -24.985  0.00  0.00    -0.287 OA
ATOM     24  H   BB4 d   1      -1.191  17.395 -24.517  0.00  0.00     0.244 HD
ENDBRANCH  20  23
ENDBRANCH  16  19
ENDBRANCH   4  16
TORSDOF 3
