REMARK  9 active torsions:
REMARK  status: ('A' for Active; 'I' for Inactive)
REMARK    1  A    between atoms: C1_1  and  C2_2 
REMARK    2  A    between atoms: C2_2  and  N3_3 
REMARK    3  A    between atoms: C7_7  and  N8_8 
REMARK    4  A    between atoms: N8_8  and  C9_9 
REMARK    5  A    between atoms: C18_15  and  C22_19 
REMARK    6  A    between atoms: C24_21  and  C25_22 
REMARK    7  A    between atoms: C25_22  and  C26_23 
REMARK       I    between atoms: C26_23  and  N27_24 
REMARK    8  A    between atoms: C29_26  and  C31_28 
REMARK    9  A    between atoms: C31_28  and  C32_29 
ROOT
ATOM      1  C22 ZG2 d   1      47.671  47.443  66.390  0.00  0.00     0.184 A 
ATOM      2  N23 ZG2 d   1      48.957  47.307  66.021  0.00  0.00    -0.225 NA
ATOM      3  C24 ZG2 d   1      49.758  47.810  67.153  0.00  0.00     0.076 A 
ATOM      4  C29 ZG2 d   1      48.863  48.229  68.054  0.00  0.00     0.085 A 
ATOM      5  O30 ZG2 d   1      47.601  48.041  67.609  0.00  0.00    -0.293 OA
ENDROOT
BRANCH   1   6
ATOM      6  C18 ZG2 d   1      46.539  47.124  65.504  0.00  0.00     0.062 A 
ATOM      7  C7  ZG2 d   1      46.696  46.753  64.148  0.00  0.00     0.060 A 
ATOM      8  C6  ZG2 d   1      45.523  46.623  63.423  0.00  0.00     0.058 A 
ATOM      9  C5  ZG2 d   1      45.126  46.264  62.069  0.00  0.00     0.038 A 
ATOM     10  C21 ZG2 d   1      44.269  46.858  64.028  0.00  0.00     0.159 A 
ATOM     11  N4  ZG2 d   1      43.781  46.327  61.941  0.00  0.00    -0.182 NA
ATOM     12  H6  ZG2 d   1      45.814  45.984  61.273  0.00  0.00     0.119 H 
ATOM     13  N3  ZG2 d   1      43.286  46.678  63.151  0.00  0.00    -0.252 N 
ATOM     14  N20 ZG2 d   1      44.144  47.230  65.323  0.00  0.00    -0.240 NA
ATOM     15  C19 ZG2 d   1      45.265  47.372  66.019  0.00  0.00     0.021 A 
ATOM     16  H17 ZG2 d   1      45.187  47.700  67.049  0.00  0.00     0.116 H 
BRANCH   7  17
ATOM     17  N8  ZG2 d   1      47.972  46.527  63.666  0.00  0.00    -0.383 N 
ATOM     18  H7  ZG2 d   1      48.743  46.681  64.332  0.00  0.00     0.160 HD
BRANCH  17  19
ATOM     19  C9  ZG2 d   1      48.354  46.098  62.331  0.00  0.00     0.013 C 
ATOM     20  C10 ZG2 d   1      49.603  45.236  62.495  0.00  0.00    -0.026 C 
ATOM     21  C11 ZG2 d   1      50.133  44.774  61.137  0.00  0.00     0.021 C 
ATOM     22  H9  ZG2 d   1      49.354  44.354  63.103  0.00  0.00     0.039 H 
ATOM     23  H10 ZG2 d   1      50.381  45.824  63.004  0.00  0.00     0.039 H 
ATOM     24  O12 ZG2 d   1      50.297  45.876  60.234  0.00  0.00    -0.391 OA
ATOM     25  H11 ZG2 d   1      49.422  44.057  60.701  0.00  0.00     0.074 H 
ATOM     26  H12 ZG2 d   1      51.106  44.283  61.282  0.00  0.00     0.074 H 
ATOM     27  C13 ZG2 d   1      49.227  46.789  60.068  0.00  0.00     0.021 C 
ATOM     28  C14 ZG2 d   1      48.674  47.248  61.425  0.00  0.00    -0.026 C 
ATOM     29  H13 ZG2 d   1      48.422  46.300  59.500  0.00  0.00     0.074 H 
ATOM     30  H14 ZG2 d   1      49.587  47.667  59.512  0.00  0.00     0.074 H 
ATOM     31  H15 ZG2 d   1      49.425  47.885  61.915  0.00  0.00     0.039 H 
ATOM     32  H16 ZG2 d   1      47.756  47.829  61.254  0.00  0.00     0.039 H 
ATOM     33  H8  ZG2 d   1      47.539  45.508  61.887  0.00  0.00     0.072 H 
ENDBRANCH  17  19
ENDBRANCH   7  17
BRANCH  13  34
ATOM     34  C2  ZG2 d   1      41.863  46.869  63.441  0.00  0.00     0.015 C 
ATOM     35  H4  ZG2 d   1      41.751  47.668  64.189  0.00  0.00     0.066 H 
ATOM     36  H5  ZG2 d   1      41.341  47.157  62.516  0.00  0.00     0.066 H 
BRANCH  34  37
ATOM     37  C1  ZG2 d   1      41.245  45.580  63.986  0.00  0.00    -0.059 C 
ATOM     38  H1  ZG2 d   1      40.178  45.745  64.197  0.00  0.00     0.029 H 
ATOM     39  H2  ZG2 d   1      41.761  45.289  64.913  0.00  0.00     0.029 H 
ATOM     40  H3  ZG2 d   1      41.352  44.778  63.240  0.00  0.00     0.029 H 
ENDBRANCH  34  37
ENDBRANCH  13  34
ENDBRANCH   1   6
BRANCH   3  41
ATOM     41  C25 ZG2 d   1      51.267  47.822  67.199  0.00  0.00     0.052 C 
ATOM     42  H18 ZG2 d   1      51.618  46.934  67.746  0.00  0.00     0.056 H 
ATOM     43  H19 ZG2 d   1      51.604  48.730  67.720  0.00  0.00     0.056 H 
BRANCH  41  44
ATOM     44  C26 ZG2 d   1      51.863  47.806  65.772  0.00  0.00     0.225 C 
ATOM     45  N27 ZG2 d   1      52.401  46.618  65.371  0.00  0.00    -0.352 N 
ATOM     46  C28 ZG2 d   1      52.998  46.448  64.040  0.00  0.00    -0.002 C 
ATOM     47  C38 ZG2 d   1      52.437  45.383  66.173  0.00  0.00    -0.002 C 
ATOM     48  C40 ZG2 d   1      52.935  44.925  63.839  0.00  0.00    -0.049 C 
ATOM     49  H20 ZG2 d   1      54.037  46.809  64.021  0.00  0.00     0.064 H 
ATOM     50  H21 ZG2 d   1      52.413  46.975  63.272  0.00  0.00     0.064 H 
ATOM     51  C39 ZG2 d   1      53.071  44.330  65.244  0.00  0.00    -0.049 C 
ATOM     52  H33 ZG2 d   1      53.760  44.586  63.195  0.00  0.00     0.035 H 
ATOM     53  H34 ZG2 d   1      51.975  44.635  63.388  0.00  0.00     0.035 H 
ATOM     54  H31 ZG2 d   1      52.532  43.374  65.315  0.00  0.00     0.035 H 
ATOM     55  H32 ZG2 d   1      54.130  44.174  65.499  0.00  0.00     0.035 H 
ATOM     56  H29 ZG2 d   1      51.420  45.081  66.465  0.00  0.00     0.064 H 
ATOM     57  H30 ZG2 d   1      53.051  45.524  67.075  0.00  0.00     0.064 H 
ATOM     58  O41 ZG2 d   1      51.854  48.805  65.065  0.00  0.00    -0.273 OA
ENDBRANCH  41  44
ENDBRANCH   3  41
BRANCH   4  59
ATOM     59  C31 ZG2 d   1      49.043  48.851  69.407  0.00  0.00     0.006 C 
ATOM     60  H22 ZG2 d   1      50.076  48.679  69.745  0.00  0.00     0.050 H 
ATOM     61  H23 ZG2 d   1      48.343  48.380  70.113  0.00  0.00     0.050 H 
BRANCH  59  62
ATOM     62  C32 ZG2 d   1      48.778  50.342  69.373  0.00  0.00    -0.052 A 
ATOM     63  C33 ZG2 d   1      49.750  51.248  68.928  0.00  0.00    -0.076 A 
ATOM     64  C34 ZG2 d   1      49.498  52.623  68.907  0.00  0.00    -0.082 A 
ATOM     65  H24 ZG2 d   1      50.712  50.877  68.595  0.00  0.00     0.084 H 
ATOM     66  C35 ZG2 d   1      48.264  53.118  69.331  0.00  0.00    -0.083 A 
ATOM     67  H25 ZG2 d   1      50.264  53.307  68.560  0.00  0.00     0.083 H 
ATOM     68  C37 ZG2 d   1      47.291  52.229  69.773  0.00  0.00    -0.082 A 
ATOM     69  H26 ZG2 d   1      48.066  54.184  69.316  0.00  0.00     0.083 H 
ATOM     70  C36 ZG2 d   1      47.540  50.856  69.789  0.00  0.00    -0.076 A 
ATOM     71  H28 ZG2 d   1      46.331  52.605  70.108  0.00  0.00     0.083 H 
ATOM     72  H27 ZG2 d   1      46.766  50.177  70.128  0.00  0.00     0.084 H 
ENDBRANCH  59  62
ENDBRANCH   4  59
TORSDOF 9
