REMARK  14 active torsions:
REMARK  status: ('A' for Active; 'I' for Inactive)
REMARK       I    between atoms: N2_2  and  C6_6 
REMARK    1  A    between atoms: C3_3  and  C23_23 
REMARK    2  A    between atoms: C6_6  and  C8_8 
REMARK    3  A    between atoms: C8_8  and  C9_9 
REMARK    4  A    between atoms: C8_8  and  O11_11 
REMARK    5  A    between atoms: C9_9  and  C10_10 
REMARK    6  A    between atoms: C9_9  and  O14_14 
REMARK       I    between atoms: C10_10  and  N13_13 
REMARK    7  A    between atoms: N13_13  and  C15_15 
REMARK    8  A    between atoms: C15_15  and  C16_16 
REMARK    9  A    between atoms: C15_15  and  C34_34 
REMARK   10  A    between atoms: C19_19  and  N22_22 
REMARK   11  A    between atoms: C29_29  and  N32_32 
REMARK   12  A    between atoms: C31_31  and  S35_35 
REMARK   13  A    between atoms: N32_32  and  C33_33 
REMARK   14  A    between atoms: S35_35  and  C38_38 
ROOT
ATOM      1  C8  786 d   1      50.050  35.012  39.609  0.00  0.00     0.145 C 
ATOM      2  H   786 d   1      49.013  35.340  39.537  0.00  0.00     0.102 H 
ENDROOT
BRANCH   1   3
ATOM      3  C6  786 d   1      50.945  35.325  38.389  0.00  0.00     0.252 C 
ATOM      4  N2  786 d   1      50.479  35.168  37.209  0.00  0.00    -0.340 N 
ATOM      5  C1  786 d   1      49.130  34.721  36.795  0.00  0.00    -0.001 C 
ATOM      6  C3  786 d   1      51.281  35.396  35.975  0.00  0.00     0.059 C 
ATOM      7  C5  786 d   1      49.053  34.702  35.234  0.00  0.00    -0.048 C 
ATOM      8  H   786 d   1      48.380  35.406  37.190  0.00  0.00     0.064 H 
ATOM      9  H   786 d   1      48.941  33.720  37.183  0.00  0.00     0.064 H 
ATOM     10  C4  786 d   1      50.374  35.345  34.775  0.00  0.00    -0.039 C 
ATOM     11  H   786 d   1      48.184  35.244  34.861  0.00  0.00     0.035 H 
ATOM     12  H   786 d   1      48.933  33.692  34.843  0.00  0.00     0.035 H 
ATOM     13  H   786 d   1      50.828  34.762  33.974  0.00  0.00     0.036 H 
ATOM     14  H   786 d   1      50.199  36.346  34.382  0.00  0.00     0.036 H 
ATOM     15  H   786 d   1      51.793  36.356  36.040  0.00  0.00     0.083 H 
ATOM     16  O7  786 d   1      52.125  35.714  38.595  0.00  0.00    -0.270 OA
BRANCH   6  17
ATOM     17  C23 786 d   1      52.262  34.199  35.825  0.00  0.00     0.088 A 
ATOM     18  N28 786 d   1      51.960  32.899  36.283  0.00  0.00    -0.225 NA
ATOM     19  C29 786 d   1      52.849  31.901  36.104  0.00  0.00     0.167 A 
ATOM     20  S30 786 d   1      54.199  32.663  35.306  0.00  0.00    -0.038 SA
ATOM     21  C31 786 d   1      53.466  34.273  35.241  0.00  0.00     0.129 A 
BRANCH  19  22
ATOM     22  N32 786 d   1      52.812  30.562  36.446  0.00  0.00    -0.373 N 
ATOM     23  H   786 d   1      53.593  29.909  36.379  0.00  0.00     0.161 HD
BRANCH  22  24
ATOM     24  C33 786 d   1      51.470  30.237  36.919  0.00  0.00    -0.019 C 
ATOM     25  H   786 d   1      51.235  30.849  37.790  0.00  0.00     0.056 H 
ATOM     26  H   786 d   1      50.748  30.438  36.127  0.00  0.00     0.056 H 
ATOM     27  H   786 d   1      51.428  29.183  37.192  0.00  0.00     0.056 H 
ENDBRANCH  22  24
ENDBRANCH  19  22
BRANCH  21  28
ATOM     28  S35 786 d   1      54.287  35.703  34.509  0.00  0.00     0.180 S 
ATOM     29  O36 786 d   1      54.543  35.288  33.141  0.00  0.00    -0.222 OA
ATOM     30  O37 786 d   1      55.576  35.906  35.158  0.00  0.00    -0.222 OA
BRANCH  28  31
ATOM     31  C38 786 d   1      53.418  37.277  34.617  0.00  0.00     0.020 C 
ATOM     32  H   786 d   1      54.016  38.054  34.141  0.00  0.00     0.049 H 
ATOM     33  H   786 d   1      52.457  37.195  34.110  0.00  0.00     0.049 H 
ATOM     34  H   786 d   1      53.257  37.531  35.665  0.00  0.00     0.049 H 
ENDBRANCH  28  31
ENDBRANCH  21  28
ENDBRANCH   6  17
ENDBRANCH   1   3
BRANCH   1  35
ATOM     35  C9  786 d   1      50.190  33.452  39.762  0.00  0.00     0.145 C 
ATOM     36  H   786 d   1      50.014  32.884  38.849  0.00  0.00     0.102 H 
BRANCH  35  37
ATOM     37  C10 786 d   1      49.162  33.006  40.792  0.00  0.00     0.250 C 
ATOM     38  O12 786 d   1      47.942  32.901  40.472  0.00  0.00    -0.271 OA
ATOM     39  N13 786 d   1      49.612  32.770  42.045  0.00  0.00    -0.350 N 
ATOM     40  H   786 d   1      50.608  32.893  42.229  0.00  0.00     0.163 HD
BRANCH  39  41
ATOM     41  C15 786 d   1      48.739  32.341  43.171  0.00  0.00     0.034 C 
ATOM     42  H   786 d   1      47.946  31.697  42.791  0.00  0.00     0.079 H 
BRANCH  41  43
ATOM     43  C16 786 d   1      49.551  31.530  44.185  0.00  0.00    -0.036 A 
ATOM     44  C17 786 d   1      48.927  31.140  45.429  0.00  0.00    -0.073 A 
ATOM     45  C18 786 d   1      49.683  30.407  46.380  0.00  0.00    -0.055 A 
ATOM     46  H   786 d   1      47.890  31.405  45.634  0.00  0.00     0.084 H 
ATOM     47  C19 786 d   1      51.015  30.031  46.125  0.00  0.00     0.058 A 
ATOM     48  H   786 d   1      49.222  30.129  47.328  0.00  0.00     0.087 H 
ATOM     49  C20 786 d   1      51.634  30.389  44.909  0.00  0.00    -0.055 A 
ATOM     50  C21 786 d   1      50.900  31.152  43.949  0.00  0.00    -0.073 A 
ATOM     51  H   786 d   1      52.661  30.087  44.704  0.00  0.00     0.087 H 
ATOM     52  H   786 d   1      51.384  31.449  43.019  0.00  0.00     0.084 H 
BRANCH  47  53
ATOM     53  N22 786 d   1      51.754  29.261  47.075  0.00  0.00    -0.245 N 
ATOM     54  N24 786 d   1      51.156  28.212  47.841  0.00  0.00    -0.180 NA
ATOM     55  C25 786 d   1      52.109  27.720  48.601  0.00  0.00     0.023 A 
ATOM     56  C26 786 d   1      53.357  28.440  48.326  0.00  0.00    -0.048 A 
ATOM     57  H   786 d   1      51.991  26.909  49.319  0.00  0.00     0.117 H 
ATOM     58  C27 786 d   1      53.071  29.353  47.411  0.00  0.00     0.006 A 
ATOM     59  H   786 d   1      54.329  28.259  48.785  0.00  0.00     0.087 H 
ATOM     60  H   786 d   1      53.779  30.067  46.992  0.00  0.00     0.114 H 
ENDBRANCH  47  53
ENDBRANCH  41  43
BRANCH  41  61
ATOM     61  C34 786 d   1      48.063  33.578  43.826  0.00  0.00    -0.053 C 
ATOM     62  H   786 d   1      48.831  34.252  44.206  0.00  0.00     0.030 H 
ATOM     63  H   786 d   1      47.458  34.096  43.082  0.00  0.00     0.030 H 
ATOM     64  H   786 d   1      47.427  33.250  44.648  0.00  0.00     0.030 H 
ENDBRANCH  41  61
ENDBRANCH  39  41
ENDBRANCH  35  37
BRANCH  35  65
ATOM     65  O14 786 d   1      51.584  33.244  40.235  0.00  0.00    -0.383 OA
ATOM     66  H   786 d   1      51.727  33.749  41.038  0.00  0.00     0.210 HD
ENDBRANCH  35  65
ENDBRANCH   1  35
BRANCH   1  67
ATOM     67  O11 786 d   1      50.713  35.613  40.693  0.00  0.00    -0.383 OA
ATOM     68  H   786 d   1      51.639  35.359  40.681  0.00  0.00     0.210 HD
ENDBRANCH   1  67
TORSDOF 14
