REMARK WARNING: 32 MAX_TORS EXCEEDED!!!
REMARK  57 active torsions:
REMARK  status: ('A' for Active; 'I' for Inactive)
REMARK    1  A    between atoms: N_1  and  CA_2 
REMARK    2  A    between atoms: CA_2  and  C_3 
REMARK    3  A    between atoms: CA_2  and  CB_5 
REMARK       I    between atoms: C_3  and  N_10 
REMARK    4  A    between atoms: CB_5  and  CG_6 
REMARK    5  A    between atoms: CG_6  and  CD_7 
REMARK    6  A    between atoms: CA_11  and  C_12 
REMARK       I    between atoms: C_12  and  N_17 
REMARK    7  A    between atoms: N_17  and  CA_18 
REMARK    8  A    between atoms: CA_18  and  C_19 
REMARK    9  A    between atoms: CA_18  and  CB_21 
REMARK       I    between atoms: C_19  and  N_24 
REMARK   10  A    between atoms: CB_21  and  CG1_22 
REMARK   11  A    between atoms: CB_21  and  CG2_23 
REMARK   12  A    between atoms: N_24  and  CA_25 
REMARK   13  A    between atoms: CA_25  and  C_26 
REMARK   14  A    between atoms: CA_25  and  CB_28 
REMARK       I    between atoms: C_26  and  N_32 
REMARK   15  A    between atoms: CB_28  and  CG_29 
REMARK   16  A    between atoms: CA_33  and  C_34 
REMARK       I    between atoms: C_34  and  N_39 
REMARK   17  A    between atoms: N_39  and  CA_40 
REMARK   18  A    between atoms: CA_40  and  C_41 
REMARK   19  A    between atoms: CA_40  and  CB_43 
REMARK       I    between atoms: C_41  and  N_48 
REMARK   20  A    between atoms: CB_43  and  CG_44 
REMARK   21  A    between atoms: CG_44  and  CD_45 
REMARK   22  A    between atoms: CD_45  and  CE_46 
REMARK   23  A    between atoms: CE_46  and  NZ_47 
REMARK   24  A    between atoms: N_48  and  CA_49 
REMARK   25  A    between atoms: CA_49  and  C_50 
REMARK   26  A    between atoms: CA_49  and  CB_52 
REMARK       I    between atoms: C_50  and  N_56 
REMARK   27  A    between atoms: CB_52  and  CG_53 
REMARK   28  A    between atoms: CG_53  and  CD1_54 
REMARK   29  A    between atoms: CG_53  and  CD2_55 
REMARK   30  A    between atoms: N_56  and  CA_57 
REMARK   31  A    between atoms: CA_57  and  C_58 
REMARK   32  A    between atoms: CA_57  and  CB_60 
REMARK       I    between atoms: C_58  and  N_65 
REMARK   33  A    between atoms: CB_60  and  CG_61 
REMARK   34  A    between atoms: CG_61  and  CD_62 
REMARK   35  A    between atoms: CA_66  and  C_67 
REMARK       I    between atoms: C_67  and  N_72 
REMARK   36  A    between atoms: N_72  and  CA_73 
REMARK   37  A    between atoms: CA_73  and  C_74 
REMARK   38  A    between atoms: CA_73  and  CB_76 
REMARK       I    between atoms: C_74  and  N_86 
REMARK   39  A    between atoms: CB_76  and  CG_77 
REMARK   40  A    between atoms: N_86  and  CA_87 
REMARK   41  A    between atoms: CA_87  and  C_88 
REMARK   42  A    between atoms: CA_87  and  CB_90 
REMARK       I    between atoms: C_88  and  N_95 
REMARK   43  A    between atoms: CB_90  and  CG_91 
REMARK   44  A    between atoms: CG_91  and  CD_92 
REMARK   45  A    between atoms: CD_92  and  CE_93 
REMARK   46  A    between atoms: CE_93  and  NZ_94 
REMARK   47  A    between atoms: N_95  and  CA_96 
REMARK   48  A    between atoms: CA_96  and  C_97 
REMARK   49  A    between atoms: CA_96  and  CB_99 
REMARK       I    between atoms: C_97  and  N_105 
REMARK   50  A    between atoms: CB_99  and  CG_100 
REMARK   51  A    between atoms: CA_106  and  C_107 
REMARK       I    between atoms: C_107  and  N_112 
REMARK   52  A    between atoms: N_112  and  CA_113 
REMARK   53  A    between atoms: CA_113  and  C_114 
REMARK       I    between atoms: C_114  and  N_116 
REMARK   54  A    between atoms: N_116  and  CA_117 
REMARK   55  A    between atoms: CA_117  and  C_118 
REMARK   56  A    between atoms: CA_117  and  CB_120 
REMARK   57  A    between atoms: CB_120  and  OG_121 
ROOT
ATOM      1  CA  GLU d   1      50.352   3.170  -7.549  0.00  0.00     0.090 C 
ATOM      2  H61 GLU d   1      50.949   3.411  -6.657  0.00  0.00     0.087 H 
ENDROOT
BRANCH   1   3
ATOM      3  N   GLU d   1      49.937   4.396  -8.213  0.00  0.00    -0.346 N 
ATOM      4  C   LEU d   1      50.766   5.418  -8.410  0.00  0.00     0.241 C 
ATOM      5  O   LEU d   1      51.950   5.419  -8.039  0.00  0.00    -0.271 OA
ATOM      6  H60 GLU d   1      48.993   4.474  -8.534  0.00  0.00     0.163 HD
BRANCH   4   7
ATOM      7  CA  LEU d   1      50.178   6.606  -9.143  0.00  0.00     0.089 C 
ATOM      8  H50 LEU d   1      49.157   6.800  -8.783  0.00  0.00     0.087 H 
BRANCH   7   9
ATOM      9  N   LEU d   1      51.014   7.758  -8.885  0.00  0.00    -0.346 N 
ATOM     10  C   LYS d   1      50.696   8.711  -8.001  0.00  0.00     0.241 C 
ATOM     11  O   LYS d   1      49.688   8.672  -7.293  0.00  0.00    -0.271 OA
ATOM     12  H49 LEU d   1      51.871   7.846  -9.392  0.00  0.00     0.163 HD
BRANCH  10  13
ATOM     13  CA  LYS d   1      51.646   9.912  -7.942  0.00  0.00     0.089 C 
ATOM     14  H37 LYS d   1      52.508   9.651  -7.310  0.00  0.00     0.087 H 
BRANCH  13  15
ATOM     15  N   LYS d   1      52.127  10.272  -9.281  0.00  0.00    -0.346 N 
ATOM     16  C   PRO d   1      51.319  10.760 -10.244  0.00  0.00     0.241 C 
ATOM     17  O   PRO d   1      50.084  10.825 -10.160  0.00  0.00    -0.271 OA
ATOM     18  H36 LYS d   1      53.098  10.150  -9.489  0.00  0.00     0.163 HD
BRANCH  16  19
ATOM     19  CA  PRO d   1      52.000  11.293 -11.505  0.00  0.00     0.091 C 
ATOM     20  N   PRO d   1      53.474  11.504 -11.331  0.00  0.00    -0.337 N 
ATOM     21  C   ASP d   1      53.885  12.617 -10.613  0.00  0.00     0.243 C 
ATOM     22  CD  PRO d   1      54.236  10.426 -12.001  0.00  0.00    -0.001 C 
ATOM     23  O   ASP d   1      53.083  13.434 -10.126  0.00  0.00    -0.271 OA
ATOM     24  CG  PRO d   1      53.314  10.054 -13.161  0.00  0.00    -0.048 C 
ATOM     25  H34 PRO d   1      54.394   9.571 -11.327  0.00  0.00     0.064 H 
ATOM     26  H35 PRO d   1      55.208  10.791 -12.365  0.00  0.00     0.064 H 
ATOM     27  CB  PRO d   1      51.888  10.308 -12.683  0.00  0.00    -0.036 C 
ATOM     28  H32 PRO d   1      53.537  10.679 -14.039  0.00  0.00     0.035 H 
ATOM     29  H33 PRO d   1      53.443   8.994 -13.423  0.00  0.00     0.035 H 
ATOM     30  H30 PRO d   1      51.287  10.748 -13.492  0.00  0.00     0.036 H 
ATOM     31  H31 PRO d   1      51.424   9.368 -12.351  0.00  0.00     0.036 H 
ATOM     32  H29 PRO d   1      51.522  12.247 -11.773  0.00  0.00     0.087 H 
BRANCH  21  33
ATOM     33  CA  ASP d   1      55.414  12.861 -10.403  0.00  0.00     0.099 C 
ATOM     34  H26 ASP d   1      55.824  13.086 -11.399  0.00  0.00     0.088 H 
BRANCH  33  35
ATOM     35  N   ASP d   1      55.750  14.038  -9.541  0.00  0.00    -0.345 N 
ATOM     36  C   VAL d   1      56.081  15.259 -10.000  0.00  0.00     0.241 C 
ATOM     37  O   VAL d   1      55.839  15.644 -11.146  0.00  0.00    -0.271 OA
ATOM     38  H25 ASP d   1      55.727  13.907  -8.550  0.00  0.00     0.163 HD
BRANCH  36  39
ATOM     39  CA  VAL d   1      56.701  16.246  -8.975  0.00  0.00     0.092 C 
ATOM     40  H17 VAL d   1      56.794  17.231  -9.456  0.00  0.00     0.088 H 
BRANCH  39  41
ATOM     41  N   VAL d   1      55.695  16.373  -7.882  0.00  0.00    -0.346 N 
ATOM     42  C   PRO d   1      55.672  17.006  -6.681  0.00  0.00     0.241 C 
ATOM     43  O   PRO d   1      54.569  17.189  -6.137  0.00  0.00    -0.271 OA
ATOM     44  H16 VAL d   1      54.846  15.881  -8.077  0.00  0.00     0.163 HD
BRANCH  42  45
ATOM     45  CA  PRO d   1      56.958  17.543  -5.877  0.00  0.00     0.091 C 
ATOM     46  N   PRO d   1      57.961  16.533  -5.452  0.00  0.00    -0.337 N 
ATOM     47  C   GLU d   1      57.421  15.403  -4.878  0.00  0.00     0.251 C 
ATOM     48  CD  PRO d   1      59.331  17.117  -5.424  0.00  0.00    -0.001 C 
ATOM     49  O   GLU d   1      56.244  15.356  -4.469  0.00  0.00    -0.271 OA
ATOM     50  CG  PRO d   1      59.143  18.540  -5.901  0.00  0.00    -0.048 C 
ATOM     51  H14 PRO d   1      60.003  16.566  -6.098  0.00  0.00     0.064 H 
ATOM     52  H15 PRO d   1      59.741  17.100  -4.403  0.00  0.00     0.064 H 
ATOM     53  CB  PRO d   1      57.803  18.623  -6.580  0.00  0.00    -0.036 C 
ATOM     54  H12 PRO d   1      59.172  19.229  -5.044  0.00  0.00     0.035 H 
ATOM     55  H13 PRO d   1      59.940  18.805  -6.612  0.00  0.00     0.035 H 
ATOM     56  H10 PRO d   1      57.357  19.619  -6.442  0.00  0.00     0.036 H 
ATOM     57  H11 PRO d   1      57.896  18.408  -7.655  0.00  0.00     0.036 H 
ATOM     58  H9  PRO d   1      56.547  17.995  -4.962  0.00  0.00     0.087 H 
BRANCH  47  59
ATOM     59  CA  GLU d   1      58.291  14.129  -4.707  0.00  0.00     0.176 C 
ATOM     60  H4  GLU d   1      58.499  14.002  -3.634  0.00  0.00     0.099 H 
BRANCH  59  61
ATOM     61  N   GLU d   1      57.466  12.952  -5.179  0.00  0.00    -0.066 N 
ATOM     62  H1  GLU d   1      58.003  12.105  -5.081  0.00  0.00     0.275 HD
ATOM     63  H2  GLU d   1      57.217  13.083  -6.147  0.00  0.00     0.275 HD
ATOM     64  H3  GLU d   1      56.628  12.885  -4.623  0.00  0.00     0.275 HD
ENDBRANCH  59  61
BRANCH  59  65
ATOM     65  CB  GLU d   1      59.663  14.194  -5.435  0.00  0.00    -0.021 C 
ATOM     66  H5  GLU d   1      60.395  14.602  -4.723  0.00  0.00     0.037 H 
ATOM     67  H6  GLU d   1      59.553  14.884  -6.284  0.00  0.00     0.037 H 
BRANCH  65  68
ATOM     68  CG  GLU d   1      60.251  12.844  -5.996  0.00  0.00     0.018 C 
ATOM     69  H7  GLU d   1      61.336  12.969  -6.125  0.00  0.00     0.049 H 
ATOM     70  H8  GLU d   1      59.786  12.646  -6.973  0.00  0.00     0.049 H 
BRANCH  68  71
ATOM     71  CD  GLU d   1      60.012  11.624  -5.095  0.00  0.00     0.172 C 
ATOM     72  OE1 GLU d   1      59.222  10.735  -5.497  0.00  0.00    -0.648 OA
ATOM     73  OE2 GLU d   1      60.601  11.570  -3.984  0.00  0.00    -0.648 OA
ENDBRANCH  68  71
ENDBRANCH  65  68
ENDBRANCH  59  65
ENDBRANCH  47  59
ENDBRANCH  42  45
ENDBRANCH  39  41
BRANCH  39  74
ATOM     74  CB  VAL d   1      58.165  15.826  -8.542  0.00  0.00    -0.033 C 
ATOM     75  H18 VAL d   1      58.253  16.015  -7.462  0.00  0.00     0.042 H 
BRANCH  74  76
ATOM     76  CG1 VAL d   1      58.466  14.333  -8.773  0.00  0.00    -0.071 C 
ATOM     77  H19 VAL d   1      59.495  14.112  -8.452  0.00  0.00     0.028 H 
ATOM     78  H20 VAL d   1      58.357  14.098  -9.842  0.00  0.00     0.028 H 
ATOM     79  H21 VAL d   1      57.761  13.722  -8.190  0.00  0.00     0.028 H 
ENDBRANCH  74  76
BRANCH  74  80
ATOM     80  CG2 VAL d   1      59.193  16.682  -9.250  0.00  0.00    -0.071 C 
ATOM     81  H22 VAL d   1      58.967  17.745  -9.077  0.00  0.00     0.028 H 
ATOM     82  H23 VAL d   1      59.164  16.472 -10.329  0.00  0.00     0.028 H 
ATOM     83  H24 VAL d   1      60.195  16.452  -8.858  0.00  0.00     0.028 H 
ENDBRANCH  74  80
ENDBRANCH  39  74
ENDBRANCH  36  39
ENDBRANCH  33  35
BRANCH  33  84
ATOM     84  CB  ASP d   1      56.138  11.575  -9.900  0.00  0.00     0.043 C 
ATOM     85  H27 ASP d   1      57.220  11.770  -9.881  0.00  0.00     0.052 H 
ATOM     86  H28 ASP d   1      55.925  10.758 -10.604  0.00  0.00     0.052 H 
BRANCH  84  87
ATOM     87  CG  ASP d   1      55.696  11.130  -8.485  0.00  0.00     0.175 C 
ATOM     88  OD1 ASP d   1      54.784  10.264  -8.392  0.00  0.00    -0.648 OA
ATOM     89  OD2 ASP d   1      56.272  11.625  -7.475  0.00  0.00    -0.648 OA
ENDBRANCH  84  87
ENDBRANCH  33  84
ENDBRANCH  21  33
ENDBRANCH  16  19
ENDBRANCH  13  15
BRANCH  13  90
ATOM     90  CB  LYS d   1      50.926  11.112  -7.338  0.00  0.00    -0.038 C 
ATOM     91  H38 LYS d   1      50.336  10.762  -6.478  0.00  0.00     0.036 H 
ATOM     92  H39 LYS d   1      50.251  11.528  -8.101  0.00  0.00     0.036 H 
BRANCH  90  93
ATOM     93  CG  LYS d   1      51.873  12.251  -6.850  0.00  0.00    -0.061 C 
ATOM     94  H40 LYS d   1      52.454  12.629  -7.704  0.00  0.00     0.033 H 
ATOM     95  H41 LYS d   1      52.559  11.850  -6.089  0.00  0.00     0.033 H 
BRANCH  93  96
ATOM     96  CD  LYS d   1      51.072  13.393  -6.247  0.00  0.00    -0.043 C 
ATOM     97  H42 LYS d   1      50.713  13.101  -5.249  0.00  0.00     0.035 H 
ATOM     98  H43 LYS d   1      50.212  13.618  -6.894  0.00  0.00     0.035 H 
BRANCH  96  99
ATOM     99  CE  LYS d   1      51.956  14.636  -6.126  0.00  0.00     0.080 C 
ATOM    100  H44 LYS d   1      52.824  14.549  -6.796  0.00  0.00     0.075 H 
ATOM    101  H45 LYS d   1      52.304  14.753  -5.089  0.00  0.00     0.075 H 
BRANCH  99 102
ATOM    102  NZ  LYS d   1      51.123  15.801  -6.519  0.00  0.00    -0.079 N 
ATOM    103  H46 LYS d   1      51.672  16.644  -6.452  0.00  0.00     0.274 HD
ATOM    104  H47 LYS d   1      50.328  15.868  -5.903  0.00  0.00     0.274 HD
ATOM    105  H48 LYS d   1      50.804  15.681  -7.468  0.00  0.00     0.274 HD
ENDBRANCH  99 102
ENDBRANCH  96  99
ENDBRANCH  93  96
ENDBRANCH  90  93
ENDBRANCH  13  90
ENDBRANCH  10  13
ENDBRANCH   7   9
BRANCH   7 106
ATOM    106  CB  LEU d   1      50.145   6.311 -10.636  0.00  0.00    -0.035 C 
ATOM    107  H51 LEU d   1      49.712   5.307 -10.760  0.00  0.00     0.037 H 
ATOM    108  H52 LEU d   1      51.186   6.308 -10.990  0.00  0.00     0.037 H 
BRANCH 106 109
ATOM    109  CG  LEU d   1      49.364   7.253 -11.542  0.00  0.00    -0.059 C 
ATOM    110  H53 LEU d   1      49.558   8.291 -11.235  0.00  0.00     0.038 H 
BRANCH 109 111
ATOM    111  CD1 LEU d   1      49.850   7.055 -12.997  0.00  0.00    -0.073 C 
ATOM    112  H54 LEU d   1      49.294   7.730 -13.664  0.00  0.00     0.028 H 
ATOM    113  H55 LEU d   1      49.677   6.013 -13.303  0.00  0.00     0.028 H 
ATOM    114  H56 LEU d   1      50.925   7.282 -13.059  0.00  0.00     0.028 H 
ENDBRANCH 109 111
BRANCH 109 115
ATOM    115  CD2 LEU d   1      47.892   6.988 -11.441  0.00  0.00    -0.073 C 
ATOM    116  H57 LEU d   1      47.564   7.133 -10.401  0.00  0.00     0.028 H 
ATOM    117  H58 LEU d   1      47.684   5.953 -11.750  0.00  0.00     0.028 H 
ATOM    118  H59 LEU d   1      47.348   7.683 -12.098  0.00  0.00     0.028 H 
ENDBRANCH 109 115
ENDBRANCH 106 109
ENDBRANCH   7 106
ENDBRANCH   4   7
ENDBRANCH   1   3
BRANCH   1 119
ATOM    119  C   GLU d   1      51.196   2.332  -8.519  0.00  0.00     0.243 C 
ATOM    120  O   GLU d   1      51.094   2.526  -9.724  0.00  0.00    -0.271 OA
ATOM    121  N   PRO d   1      52.015   1.412  -7.994  0.00  0.00    -0.337 N 
ATOM    122  CA  PRO d   1      53.004   0.675  -8.780  0.00  0.00     0.091 C 
ATOM    123  CD  PRO d   1      52.138   1.063  -6.558  0.00  0.00    -0.001 C 
ATOM    124  CB  PRO d   1      53.609  -0.297  -7.754  0.00  0.00    -0.036 C 
ATOM    125  H66 PRO d   1      53.766   1.369  -9.164  0.00  0.00     0.087 H 
ATOM    126  CG  PRO d   1      53.493   0.437  -6.476  0.00  0.00    -0.048 C 
ATOM    127  H67 PRO d   1      54.661  -0.513  -7.990  0.00  0.00     0.036 H 
ATOM    128  H68 PRO d   1      53.040  -1.238  -7.720  0.00  0.00     0.036 H 
ATOM    129  H69 PRO d   1      54.276   1.204  -6.390  0.00  0.00     0.035 H 
ATOM    130  H70 PRO d   1      53.558  -0.251  -5.620  0.00  0.00     0.035 H 
ATOM    131  H71 PRO d   1      51.355   0.351  -6.256  0.00  0.00     0.064 H 
ATOM    132  H72 PRO d   1      52.080   1.962  -5.927  0.00  0.00     0.064 H 
BRANCH 122 133
ATOM    133  C   PRO d   1      52.441  -0.120  -9.946  0.00  0.00     0.241 C 
ATOM    134  O   PRO d   1      53.198  -0.392 -10.872  0.00  0.00    -0.271 OA
ATOM    135  N   TRP d   1      51.154  -0.449  -9.950  0.00  0.00    -0.346 N 
ATOM    136  H73 TRP d   1      50.541  -0.078  -9.252  0.00  0.00     0.163 HD
BRANCH 135 137
ATOM    137  CA  TRP d   1      50.627  -1.363 -10.984  0.00  0.00     0.093 C 
ATOM    138  H74 TRP d   1      51.478  -1.884 -11.447  0.00  0.00     0.088 H 
BRANCH 137 139
ATOM    139  C   TRP d   1      49.929  -0.597 -12.035  0.00  0.00     0.241 C 
ATOM    140  O   TRP d   1      49.415  -1.157 -12.992  0.00  0.00    -0.271 OA
ATOM    141  N   LYS d   1      49.907   0.721 -11.885  0.00  0.00    -0.346 N 
ATOM    142  H83 LYS d   1      50.294   1.131 -11.059  0.00  0.00     0.163 HD
BRANCH 141 143
ATOM    143  CA  LYS d   1      49.331   1.570 -12.900  0.00  0.00     0.089 C 
ATOM    144  H84 LYS d   1      48.440   1.078 -13.317  0.00  0.00     0.087 H 
BRANCH 143 145
ATOM    145  C   LYS d   1      50.354   1.811 -14.013  0.00  0.00     0.241 C 
ATOM    146  O   LYS d   1      51.533   1.942 -13.737  0.00  0.00    -0.271 OA
ATOM    147  N   HIS d   1      49.862   1.889 -15.243  0.00  0.00    -0.346 N 
ATOM    148  H96 HIS d   1      48.905   1.643 -15.394  0.00  0.00     0.163 HD
BRANCH 147 149
ATOM    149  CA  HIS d   1      50.655   2.316 -16.373  0.00  0.00     0.095 C 
ATOM    150  H97 HIS d   1      51.726   2.203 -16.150  0.00  0.00     0.088 H 
BRANCH 149 151
ATOM    151  C   HIS d   1      50.333   3.791 -16.558  0.00  0.00     0.243 C 
ATOM    152  O   HIS d   1      49.151   4.140 -16.653  0.00  0.00    -0.271 OA
ATOM    153  N   PRO d   1      51.358   4.669 -16.585  0.00  0.00    -0.337 N 
ATOM    154  CA  PRO d   1      51.032   6.124 -16.624  0.00  0.00     0.091 C 
ATOM    155  CD  PRO d   1      52.795   4.373 -16.763  0.00  0.00    -0.001 C 
ATOM    156  CB  PRO d   1      52.389   6.833 -16.642  0.00  0.00    -0.036 C 
ATOM    157 3H10 PRO d   1      50.463   6.418 -15.729  0.00  0.00     0.087 H 
ATOM    158  CG  PRO d   1      53.473   5.710 -16.622  0.00  0.00    -0.048 C 
ATOM    159 4H10 PRO d   1      52.493   7.478 -15.757  0.00  0.00     0.036 H 
ATOM    160 5H10 PRO d   1      52.488   7.441 -17.553  0.00  0.00     0.036 H 
ATOM    161 6H10 PRO d   1      54.024   5.746 -15.671  0.00  0.00     0.035 H 
ATOM    162 7H10 PRO d   1      54.173   5.858 -17.457  0.00  0.00     0.035 H 
ATOM    163 8H10 PRO d   1      52.984   3.944 -17.758  0.00  0.00     0.064 H 
ATOM    164 9H10 PRO d   1      53.147   3.675 -15.990  0.00  0.00     0.064 H 
BRANCH 154 165
ATOM    165  C   PRO d   1      50.203   6.436 -17.872  0.00  0.00     0.241 C 
ATOM    166  O   PRO d   1      50.534   5.929 -18.955  0.00  0.00    -0.271 OA
ATOM    167  N   GLY d   1      49.094   7.177 -17.689  0.00  0.00    -0.351 N 
ATOM    168 0H11 GLY d   1      48.959   7.598 -16.792  0.00  0.00     0.163 HD
BRANCH 167 169
ATOM    169  CA  GLY d   1      48.055   7.414 -18.728  0.00  0.00     0.069 C 
ATOM    170 1H11 GLY d   1      47.112   7.666 -18.221  0.00  0.00     0.078 H 
ATOM    171 2H11 GLY d   1      47.925   6.486 -19.303  0.00  0.00     0.078 H 
BRANCH 169 172
ATOM    172  C   GLY d   1      48.390   8.548 -19.713  0.00  0.00     0.236 C 
ATOM    173  O   GLY d   1      49.375   9.288 -19.530  0.00  0.00    -0.272 OA
ATOM    174  N   SER d   1      47.587   8.676 -20.772  0.00  0.00    -0.343 N 
ATOM    175 3H11 SER d   1      46.837   8.027 -20.901  0.00  0.00     0.163 HD
BRANCH 174 176
ATOM    176  CA  SER d   1      47.784   9.750 -21.749  0.00  0.00     0.116 C 
ATOM    177 4H11 SER d   1      48.772  10.195 -21.558  0.00  0.00     0.093 H 
BRANCH 176 178
ATOM    178  C   SER d   1      46.735  10.879 -21.600  0.00  0.00     0.198 C 
ATOM    179  O   SER d   1      46.070  10.995 -20.556  0.00  0.00    -0.646 OA
ATOM    180  OXT SER d   1      46.539  11.690 -22.522  0.00  0.00    -0.646 OA
ENDBRANCH 176 178
BRANCH 176 181
ATOM    181  CB  SER d   1      47.799   9.180 -23.167  0.00  0.00     0.045 C 
ATOM    182 5H11 SER d   1      48.124   8.130 -23.136  0.00  0.00     0.077 H 
ATOM    183 6H11 SER d   1      48.497   9.761 -23.788  0.00  0.00     0.077 H 
BRANCH 181 184
ATOM    184  OG  SER d   1      46.496   9.255 -23.725  0.00  0.00    -0.398 OA
ATOM    185 7H11 SER d   1      46.216  10.162 -23.752  0.00  0.00     0.209 HD
ENDBRANCH 181 184
ENDBRANCH 176 181
ENDBRANCH 174 176
ENDBRANCH 169 172
ENDBRANCH 167 169
ENDBRANCH 154 165
ENDBRANCH 149 151
BRANCH 149 186
ATOM    186  CB  HIS d   1      50.318   1.451 -17.594  0.00  0.00     0.004 C 
ATOM    187  H98 HIS d   1      50.901   1.811 -18.455  0.00  0.00     0.046 H 
ATOM    188  H99 HIS d   1      49.244   1.549 -17.811  0.00  0.00     0.046 H 
BRANCH 186 189
ATOM    189  CG  HIS d   1      50.637  -0.007 -17.368  0.00  0.00     0.053 A 
ATOM    190  ND1 HIS d   1      49.674  -0.951 -17.049  0.00  0.00    -0.247 NA
ATOM    191  CE1 HIS d   1      50.248  -2.125 -16.846  0.00  0.00     0.064 A 
ATOM    192  NE2 HIS d   1      51.553  -1.972 -16.986  0.00  0.00    -0.359 N 
ATOM    193 1H10 HIS d   1      49.735  -3.055 -16.606  0.00  0.00     0.143 H 
ATOM    194  CD2 HIS d   1      51.824  -0.659 -17.310  0.00  0.00     0.002 A 
ATOM    195 2H10 HIS d   1      52.257  -2.716 -16.871  0.00  0.00     0.166 HD
ATOM    196 0H10 HIS d   1      52.808  -0.227 -17.486  0.00  0.00     0.114 H 
ENDBRANCH 186 189
ENDBRANCH 149 186
ENDBRANCH 147 149
ENDBRANCH 143 145
BRANCH 143 197
ATOM    197  CB  LYS d   1      48.939   2.916 -12.321  0.00  0.00    -0.038 C 
ATOM    198  H85 LYS d   1      48.627   3.568 -13.150  0.00  0.00     0.036 H 
ATOM    199  H86 LYS d   1      49.822   3.348 -11.827  0.00  0.00     0.036 H 
BRANCH 197 200
ATOM    200  CG  LYS d   1      47.795   2.862 -11.296  0.00  0.00    -0.061 C 
ATOM    201  H87 LYS d   1      47.822   3.763 -10.666  0.00  0.00     0.033 H 
ATOM    202  H88 LYS d   1      47.909   1.969 -10.664  0.00  0.00     0.033 H 
BRANCH 200 203
ATOM    203  CD  LYS d   1      46.471   2.797 -12.031  0.00  0.00    -0.043 C 
ATOM    204  H89 LYS d   1      46.355   1.809 -12.501  0.00  0.00     0.035 H 
ATOM    205  H90 LYS d   1      46.437   3.577 -12.805  0.00  0.00     0.035 H 
BRANCH 203 206
ATOM    206  CE  LYS d   1      45.304   3.032 -10.983  0.00  0.00     0.080 C 
ATOM    207  H91 LYS d   1      45.570   2.524 -10.044  0.00  0.00     0.075 H 
ATOM    208  H92 LYS d   1      44.379   2.595 -11.387  0.00  0.00     0.075 H 
BRANCH 206 209
ATOM    209  NZ  LYS d   1      45.056   4.487 -10.686  0.00  0.00    -0.079 N 
ATOM    210  H93 LYS d   1      44.307   4.570 -10.017  0.00  0.00     0.274 HD
ATOM    211  H94 LYS d   1      44.802   4.965 -11.536  0.00  0.00     0.274 HD
ATOM    212  H95 LYS d   1      45.893   4.900 -10.306  0.00  0.00     0.274 HD
ENDBRANCH 206 209
ENDBRANCH 203 206
ENDBRANCH 200 203
ENDBRANCH 197 200
ENDBRANCH 143 197
ENDBRANCH 141 143
ENDBRANCH 137 139
BRANCH 137 213
ATOM    213  CB  TRP d   1      49.691  -2.431 -10.363  0.00  0.00    -0.012 C 
ATOM    214  H75 TRP d   1      50.303  -3.203  -9.874  0.00  0.00     0.044 H 
ATOM    215  H76 TRP d   1      49.091  -2.890 -11.163  0.00  0.00     0.044 H 
BRANCH 213 216
ATOM    216  CG  TRP d   1      48.752  -1.813  -9.330  0.00  0.00    -0.028 A 
ATOM    217  CD1 TRP d   1      48.991  -1.656  -7.972  0.00  0.00    -0.015 A 
ATOM    218  NE1 TRP d   1      47.906  -1.042  -7.390  0.00  0.00    -0.365 N 
ATOM    219  H77 TRP d   1      49.894  -1.969  -7.450  0.00  0.00     0.112 H 
ATOM    220  CE2 TRP d   1      46.972  -0.740  -8.349  0.00  0.00     0.042 A 
ATOM    221  H78 TRP d   1      47.809  -0.839  -6.385  0.00  0.00     0.165 HD
ATOM    222  CD2 TRP d   1      47.455  -1.240  -9.582  0.00  0.00    -0.002 A 
ATOM    223  CZ2 TRP d   1      45.692  -0.166  -8.218  0.00  0.00    -0.056 A 
ATOM    224  CE3 TRP d   1      46.645  -1.109 -10.736  0.00  0.00    -0.070 A 
ATOM    225  CZ3 TRP d   1      45.382  -0.486 -10.619  0.00  0.00    -0.082 A 
ATOM    226  H79 TRP d   1      46.989  -1.481 -11.694  0.00  0.00     0.084 H 
ATOM    227  CH2 TRP d   1      44.929  -0.021  -9.338  0.00  0.00    -0.081 A 
ATOM    228  H81 TRP d   1      44.756  -0.359 -11.495  0.00  0.00     0.083 H 
ATOM    229  H82 TRP d   1      43.959   0.456  -9.260  0.00  0.00     0.083 H 
ATOM    230  H80 TRP d   1      45.323   0.153  -7.250  0.00  0.00     0.086 H 
ENDBRANCH 213 216
ENDBRANCH 137 213
ENDBRANCH 135 137
ENDBRANCH 122 133
ENDBRANCH   1 119
BRANCH   1 231
ATOM    231  CB  GLU d   1      49.105   2.404  -7.137  0.00  0.00    -0.029 C 
ATOM    232  H62 GLU d   1      49.402   1.373  -6.894  0.00  0.00     0.037 H 
ATOM    233  H63 GLU d   1      48.412   2.395  -7.991  0.00  0.00     0.037 H 
BRANCH 231 234
ATOM    234  CG  GLU d   1      48.335   3.005  -5.882  0.00  0.00     0.018 C 
ATOM    235  H64 GLU d   1      48.554   4.080  -5.807  0.00  0.00     0.049 H 
ATOM    236  H65 GLU d   1      48.681   2.496  -4.971  0.00  0.00     0.049 H 
BRANCH 234 237
ATOM    237  CD  GLU d   1      46.816   2.811  -6.020  0.00  0.00     0.172 C 
ATOM    238  OE1 GLU d   1      46.251   2.204  -5.120  0.00  0.00    -0.648 OA
ATOM    239  OE2 GLU d   1      46.213   3.245  -7.043  0.00  0.00    -0.648 OA
ENDBRANCH 234 237
ENDBRANCH 231 234
ENDBRANCH   1 231
TORSDOF 57
