REMARK WARNING: 32 MAX_TORS EXCEEDED!!!
REMARK  36 active torsions:
REMARK  status: ('A' for Active; 'I' for Inactive)
REMARK    1  A    between atoms: CA_2  and  C_3 
REMARK       I    between atoms: C_3  and  N_8 
REMARK    2  A    between atoms: N_8  and  CA_9 
REMARK    3  A    between atoms: CA_9  and  C_10 
REMARK    4  A    between atoms: CA_9  and  CB_12 
REMARK       I    between atoms: C_10  and  N_17 
REMARK    5  A    between atoms: CB_12  and  CG_13 
REMARK    6  A    between atoms: CG_13  and  CD_14 
REMARK    7  A    between atoms: CD_14  and  CE_15 
REMARK    8  A    between atoms: CE_15  and  NZ_16 
REMARK    9  A    between atoms: N_17  and  CA_18 
REMARK   10  A    between atoms: CA_18  and  C_19 
REMARK   11  A    between atoms: CA_18  and  CB_21 
REMARK       I    between atoms: C_19  and  N_25 
REMARK   12  A    between atoms: CB_21  and  CG_22 
REMARK   13  A    between atoms: CG_22  and  CD1_23 
REMARK   14  A    between atoms: CG_22  and  CD2_24 
REMARK   15  A    between atoms: N_25  and  CA_26 
REMARK   16  A    between atoms: CA_26  and  C_27 
REMARK   17  A    between atoms: CA_26  and  CB_29 
REMARK       I    between atoms: C_27  and  N_34 
REMARK   18  A    between atoms: CB_29  and  CG_30 
REMARK   19  A    between atoms: CG_30  and  CD_31 
REMARK   20  A    between atoms: CA_35  and  C_36 
REMARK       I    between atoms: C_36  and  N_41 
REMARK   21  A    between atoms: N_41  and  CA_42 
REMARK   22  A    between atoms: CA_42  and  C_43 
REMARK   23  A    between atoms: CA_42  and  CB_45 
REMARK       I    between atoms: C_43  and  N_55 
REMARK   24  A    between atoms: CB_45  and  CG_46 
REMARK   25  A    between atoms: N_55  and  CA_56 
REMARK   26  A    between atoms: CA_56  and  C_57 
REMARK   27  A    between atoms: CA_56  and  CB_59 
REMARK       I    between atoms: C_57  and  N_64 
REMARK   28  A    between atoms: CB_59  and  CG_60 
REMARK   29  A    between atoms: CG_60  and  CD_61 
REMARK   30  A    between atoms: CD_61  and  CE_62 
REMARK   31  A    between atoms: CE_62  and  NZ_63 
REMARK   32  A    between atoms: N_64  and  CA_65 
REMARK   33  A    between atoms: CA_65  and  C_66 
REMARK   34  A    between atoms: CA_65  and  CB_68 
REMARK       I    between atoms: C_66  and  N_74 
REMARK   35  A    between atoms: CB_68  and  CG_69 
REMARK   36  A    between atoms: CA_75  and  C_76 
ROOT
ATOM      1  N   PRO d   1      52.026   2.133  -8.052  0.00  0.00    -0.337 N 
ATOM      2  CA  PRO d   1      53.021   1.485  -8.914  0.00  0.00     0.091 C 
ATOM      3  CB  PRO d   1      53.779   0.601  -7.959  0.00  0.00    -0.036 C 
ATOM      4  CG  PRO d   1      53.557   1.186  -6.594  0.00  0.00    -0.048 C 
ATOM      5  CD  PRO d   1      52.176   1.741  -6.639  0.00  0.00    -0.001 C 
ATOM      6  H40 PRO d   1      53.688   2.248  -9.341  0.00  0.00     0.087 H 
ATOM      7  H41 PRO d   1      54.851   0.601  -8.206  0.00  0.00     0.036 H 
ATOM      8  H42 PRO d   1      53.393  -0.428  -8.002  0.00  0.00     0.036 H 
ATOM      9  H43 PRO d   1      54.288   1.982  -6.390  0.00  0.00     0.035 H 
ATOM     10  H44 PRO d   1      53.637   0.408  -5.821  0.00  0.00     0.035 H 
ATOM     11  H45 PRO d   1      51.434   0.979  -6.359  0.00  0.00     0.064 H 
ATOM     12  H46 PRO d   1      52.077   2.612  -5.974  0.00  0.00     0.064 H 
ATOM     13  C   GLU d   1      51.145   3.013  -8.584  0.00  0.00     0.243 C 
ATOM     14  O   GLU d   1      51.005   3.137  -9.788  0.00  0.00    -0.271 OA
ENDROOT
BRANCH   2  15
ATOM     15  C   PRO d   1      52.443   0.664 -10.067  0.00  0.00     0.241 C 
ATOM     16  O   PRO d   1      52.988   0.704 -11.167  0.00  0.00    -0.271 OA
ATOM     17  N   TRP d   1      51.318  -0.028  -9.847  0.00  0.00    -0.346 N 
ATOM     18  H47 TRP d   1      50.870   0.040  -8.955  0.00  0.00     0.163 HD
BRANCH  17  19
ATOM     19  CA  TRP d   1      50.720  -0.891 -10.889  0.00  0.00     0.093 C 
ATOM     20  H48 TRP d   1      51.539  -1.466 -11.345  0.00  0.00     0.088 H 
BRANCH  19  21
ATOM     21  C   TRP d   1      50.035  -0.109 -12.010  0.00  0.00     0.241 C 
ATOM     22  O   TRP d   1      49.643  -0.689 -13.032  0.00  0.00    -0.271 OA
ATOM     23  N   LYS d   1      49.901   1.215 -11.833  0.00  0.00    -0.346 N 
ATOM     24  H57 LYS d   1      50.184   1.630 -10.969  0.00  0.00     0.163 HD
BRANCH  23  25
ATOM     25  CA  LYS d   1      49.348   2.051 -12.886  0.00  0.00     0.089 C 
ATOM     26  H58 LYS d   1      48.398   1.601 -13.210  0.00  0.00     0.087 H 
BRANCH  25  27
ATOM     27  C   LYS d   1      50.271   2.147 -14.103  0.00  0.00     0.241 C 
ATOM     28  O   LYS d   1      51.486   2.066 -13.970  0.00  0.00    -0.271 OA
ATOM     29  N   HIS d   1      49.683   2.387 -15.274  0.00  0.00    -0.346 N 
ATOM     30  H70 HIS d   1      48.685   2.418 -15.324  0.00  0.00     0.163 HD
BRANCH  29  31
ATOM     31  CA  HIS d   1      50.468   2.605 -16.486  0.00  0.00     0.095 C 
ATOM     32  H71 HIS d   1      51.215   1.800 -16.540  0.00  0.00     0.088 H 
BRANCH  31  33
ATOM     33  C   HIS d   1      51.249   3.950 -16.477  0.00  0.00     0.243 C 
ATOM     34  O   HIS d   1      50.631   5.037 -16.344  0.00  0.00    -0.271 OA
ATOM     35  N   PRO d   1      52.602   3.887 -16.623  0.00  0.00    -0.336 N 
ATOM     36  CA  PRO d   1      53.451   5.105 -16.714  0.00  0.00     0.098 C 
ATOM     37  CD  PRO d   1      53.421   2.660 -16.683  0.00  0.00    -0.001 C 
ATOM     38  CB  PRO d   1      54.858   4.555 -17.035  0.00  0.00    -0.035 C 
ATOM     39  H77 PRO d   1      53.456   5.613 -15.739  0.00  0.00     0.089 H 
ATOM     40  CG  PRO d   1      54.659   3.115 -17.433  0.00  0.00    -0.048 C 
ATOM     41  H78 PRO d   1      55.506   4.621 -16.148  0.00  0.00     0.036 H 
ATOM     42  H79 PRO d   1      55.310   5.121 -17.862  0.00  0.00     0.036 H 
ATOM     43  H80 PRO d   1      55.530   2.510 -17.141  0.00  0.00     0.035 H 
ATOM     44  H81 PRO d   1      54.503   3.033 -18.519  0.00  0.00     0.035 H 
ATOM     45  H82 PRO d   1      52.898   1.862 -17.230  0.00  0.00     0.064 H 
ATOM     46  H83 PRO d   1      53.678   2.306 -15.674  0.00  0.00     0.064 H 
BRANCH  36  47
ATOM     47  C   PRO d   1      53.023   6.139 -17.787  0.00  0.00     0.196 C 
ATOM     48  O   PRO d   1      51.941   6.006 -18.420  0.00  0.00    -0.646 OA
ATOM     49  O   PRO d   1      53.767   7.126 -18.030  0.00  0.00    -0.646 OA
ENDBRANCH  36  47
ENDBRANCH  31  33
BRANCH  31  50
ATOM     50  CB  HIS d   1      49.568   2.487 -17.726  0.00  0.00     0.004 C 
ATOM     51  H72 HIS d   1      49.033   3.439 -17.860  0.00  0.00     0.046 H 
ATOM     52  H73 HIS d   1      48.842   1.679 -17.554  0.00  0.00     0.046 H 
BRANCH  50  53
ATOM     53  CG  HIS d   1      50.321   2.187 -18.983  0.00  0.00     0.053 A 
ATOM     54  ND1 HIS d   1      51.020   3.151 -19.682  0.00  0.00    -0.247 NA
ATOM     55  CE1 HIS d   1      51.610   2.592 -20.723  0.00  0.00     0.064 A 
ATOM     56  NE2 HIS d   1      51.313   1.301 -20.733  0.00  0.00    -0.359 N 
ATOM     57  H75 HIS d   1      52.236   3.106 -21.451  0.00  0.00     0.143 H 
ATOM     58  CD2 HIS d   1      50.510   1.020 -19.652  0.00  0.00     0.002 A 
ATOM     59  H76 HIS d   1      51.632   0.619 -21.436  0.00  0.00     0.166 HD
ATOM     60  H74 HIS d   1      50.103   0.046 -19.383  0.00  0.00     0.114 H 
ENDBRANCH  50  53
ENDBRANCH  31  50
ENDBRANCH  29  31
ENDBRANCH  25  27
BRANCH  25  61
ATOM     61  CB  LYS d   1      49.064   3.471 -12.362  0.00  0.00    -0.038 C 
ATOM     62  H59 LYS d   1      48.954   4.137 -13.230  0.00  0.00     0.036 H 
ATOM     63  H60 LYS d   1      49.929   3.790 -11.762  0.00  0.00     0.036 H 
BRANCH  61  64
ATOM     64  CG  LYS d   1      47.820   3.614 -11.502  0.00  0.00    -0.061 C 
ATOM     65  H61 LYS d   1      47.737   4.660 -11.173  0.00  0.00     0.033 H 
ATOM     66  H62 LYS d   1      47.921   2.960 -10.623  0.00  0.00     0.033 H 
BRANCH  64  67
ATOM     67  CD  LYS d   1      46.548   3.234 -12.252  0.00  0.00    -0.043 C 
ATOM     68  H63 LYS d   1      46.587   2.167 -12.517  0.00  0.00     0.035 H 
ATOM     69  H64 LYS d   1      46.473   3.837 -13.169  0.00  0.00     0.035 H 
BRANCH  67  70
ATOM     70  CE  LYS d   1      45.329   3.490 -11.382  0.00  0.00     0.080 C 
ATOM     71  H65 LYS d   1      45.495   3.003 -10.410  0.00  0.00     0.075 H 
ATOM     72  H66 LYS d   1      44.456   3.037 -11.875  0.00  0.00     0.075 H 
BRANCH  70  73
ATOM     73  NZ  LYS d   1      45.030   4.913 -11.137  0.00  0.00    -0.079 N 
ATOM     74  H67 LYS d   1      44.211   4.989 -10.555  0.00  0.00     0.274 HD
ATOM     75  H68 LYS d   1      44.861   5.377 -12.016  0.00  0.00     0.274 HD
ATOM     76  H69 LYS d   1      45.813   5.346 -10.673  0.00  0.00     0.274 HD
ENDBRANCH  70  73
ENDBRANCH  67  70
ENDBRANCH  64  67
ENDBRANCH  61  64
ENDBRANCH  25  61
ENDBRANCH  23  25
ENDBRANCH  19  21
BRANCH  19  77
ATOM     77  CB  TRP d   1      49.746  -1.880 -10.267  0.00  0.00    -0.012 C 
ATOM     78  H49 TRP d   1      50.326  -2.643  -9.728  0.00  0.00     0.044 H 
ATOM     79  H50 TRP d   1      49.175  -2.358 -11.077  0.00  0.00     0.044 H 
BRANCH  77  80
ATOM     80  CG  TRP d   1      48.760  -1.254  -9.293  0.00  0.00    -0.028 A 
ATOM     81  CD1 TRP d   1      48.909  -1.165  -7.954  0.00  0.00    -0.015 A 
ATOM     82  NE1 TRP d   1      47.813  -0.553  -7.394  0.00  0.00    -0.365 N 
ATOM     83  H51 TRP d   1      49.773  -1.526  -7.398  0.00  0.00     0.112 H 
ATOM     84  CE2 TRP d   1      46.903  -0.255  -8.376  0.00  0.00     0.042 A 
ATOM     85  H52 TRP d   1      47.694  -0.349  -6.391  0.00  0.00     0.165 HD
ATOM     86  CD2 TRP d   1      47.463  -0.685  -9.598  0.00  0.00    -0.002 A 
ATOM     87  CZ2 TRP d   1      45.625   0.382  -8.288  0.00  0.00    -0.056 A 
ATOM     88  CE3 TRP d   1      46.724  -0.504 -10.783  0.00  0.00    -0.070 A 
ATOM     89  CZ3 TRP d   1      45.399   0.134 -10.700  0.00  0.00    -0.082 A 
ATOM     90  H53 TRP d   1      47.123  -0.828 -11.738  0.00  0.00     0.084 H 
ATOM     91  CH2 TRP d   1      44.886   0.539  -9.459  0.00  0.00    -0.081 A 
ATOM     92  H55 TRP d   1      44.818   0.291 -11.602  0.00  0.00     0.083 H 
ATOM     93  H56 TRP d   1      43.898   0.982  -9.410  0.00  0.00     0.083 H 
ATOM     94  H54 TRP d   1      45.242   0.733  -7.337  0.00  0.00     0.086 H 
ENDBRANCH  77  80
ENDBRANCH  19  77
ENDBRANCH  17  19
ENDBRANCH   2  15
BRANCH  13  95
ATOM     95  CA  GLU d   1      50.235   3.817  -7.625  0.00  0.00     0.090 C 
ATOM     96  H35 GLU d   1      50.818   4.103  -6.737  0.00  0.00     0.087 H 
BRANCH  95  97
ATOM     97  N   GLU d   1      49.727   5.026  -8.271  0.00  0.00    -0.346 N 
ATOM     98  C   LEU d   1      50.521   6.059  -8.535  0.00  0.00     0.241 C 
ATOM     99  O   LEU d   1      51.651   6.130  -8.115  0.00  0.00    -0.271 OA
ATOM    100  H34 GLU d   1      48.760   5.077  -8.520  0.00  0.00     0.163 HD
BRANCH  98 101
ATOM    101  CA  LEU d   1      49.949   7.190  -9.366  0.00  0.00     0.089 C 
ATOM    102  H24 LEU d   1      48.916   7.386  -9.042  0.00  0.00     0.087 H 
BRANCH 101 103
ATOM    103  N   LEU d   1      50.739   8.381  -9.159  0.00  0.00    -0.346 N 
ATOM    104  C   LYS d   1      50.338   9.373  -8.374  0.00  0.00     0.241 C 
ATOM    105  O   LYS d   1      49.369   9.283  -7.592  0.00  0.00    -0.271 OA
ATOM    106  H23 LEU d   1      51.620   8.461  -9.624  0.00  0.00     0.163 HD
BRANCH 104 107
ATOM    107  CA  LYS d   1      51.110  10.690  -8.567  0.00  0.00     0.089 C 
ATOM    108  H11 LYS d   1      52.190  10.501  -8.482  0.00  0.00     0.087 H 
BRANCH 107 109
ATOM    109  N   LYS d   1      50.792  11.185  -9.916  0.00  0.00    -0.346 N 
ATOM    110  C   PRO d   1      51.703  11.357 -10.871  0.00  0.00     0.249 C 
ATOM    111  O   PRO d   1      52.905  11.013 -10.773  0.00  0.00    -0.271 OA
ATOM    112  H10 LYS d   1      49.839  11.404 -10.127  0.00  0.00     0.163 HD
BRANCH 110 113
ATOM    113  CA  PRO d   1      51.180  12.029 -12.144  0.00  0.00     0.178 C 
ATOM    114  N   PRO d   1      52.006  13.181 -12.583  0.00  0.00    -0.062 N 
ATOM    115  CD  PRO d   1      52.877  12.860 -13.739  0.00  0.00     0.083 C 
ATOM    116  H1  PRO d   1      52.588  13.471 -11.813  0.00  0.00     0.278 HD
ATOM    117  H2  PRO d   1      51.392  13.937 -12.843  0.00  0.00     0.278 HD
ATOM    118  CG  PRO d   1      52.623  11.344 -13.964  0.00  0.00    -0.040 C 
ATOM    119  H8  PRO d   1      53.934  13.052 -13.502  0.00  0.00     0.075 H 
ATOM    120  H9  PRO d   1      52.588  13.444 -14.625  0.00  0.00     0.075 H 
ATOM    121  CB  PRO d   1      51.235  11.067 -13.339  0.00  0.00    -0.028 C 
ATOM    122  H6  PRO d   1      52.616  11.110 -15.039  0.00  0.00     0.035 H 
ATOM    123  H7  PRO d   1      53.398  10.745 -13.463  0.00  0.00     0.035 H 
ATOM    124  H4  PRO d   1      50.430  11.285 -14.057  0.00  0.00     0.036 H 
ATOM    125  H5  PRO d   1      51.156  10.022 -13.006  0.00  0.00     0.036 H 
ATOM    126  H3  PRO d   1      50.146  12.357 -11.964  0.00  0.00     0.099 H 
ENDBRANCH 110 113
ENDBRANCH 107 109
BRANCH 107 127
ATOM    127  CB  LYS d   1      50.699  11.737  -7.516  0.00  0.00    -0.038 C 
ATOM    128  H12 LYS d   1      50.999  11.362  -6.526  0.00  0.00     0.036 H 
ATOM    129  H13 LYS d   1      49.605  11.844  -7.552  0.00  0.00     0.036 H 
BRANCH 127 130
ATOM    130  CG  LYS d   1      51.325  13.144  -7.706  0.00  0.00    -0.061 C 
ATOM    131  H14 LYS d   1      51.033  13.522  -8.697  0.00  0.00     0.033 H 
ATOM    132  H15 LYS d   1      52.419  13.045  -7.659  0.00  0.00     0.033 H 
BRANCH 130 133
ATOM    133  CD  LYS d   1      50.884  14.176  -6.643  0.00  0.00    -0.043 C 
ATOM    134  H16 LYS d   1      50.956  13.715  -5.647  0.00  0.00     0.035 H 
ATOM    135  H17 LYS d   1      49.841  14.466  -6.838  0.00  0.00     0.035 H 
BRANCH 133 136
ATOM    136  CE  LYS d   1      51.754  15.420  -6.674  0.00  0.00     0.080 C 
ATOM    137  H18 LYS d   1      52.250  15.481  -7.654  0.00  0.00     0.075 H 
ATOM    138  H19 LYS d   1      52.514  15.340  -5.883  0.00  0.00     0.075 H 
BRANCH 136 139
ATOM    139  NZ  LYS d   1      50.962  16.672  -6.456  0.00  0.00    -0.079 N 
ATOM    140  H20 LYS d   1      51.579  17.469  -6.485  0.00  0.00     0.274 HD
ATOM    141  H21 LYS d   1      50.508  16.630  -5.557  0.00  0.00     0.274 HD
ATOM    142  H22 LYS d   1      50.266  16.760  -7.180  0.00  0.00     0.274 HD
ENDBRANCH 136 139
ENDBRANCH 133 136
ENDBRANCH 130 133
ENDBRANCH 127 130
ENDBRANCH 107 127
ENDBRANCH 104 107
ENDBRANCH 101 103
BRANCH 101 143
ATOM    143  CB  LEU d   1      49.936   6.804 -10.847  0.00  0.00    -0.035 C 
ATOM    144  H25 LEU d   1      49.362   5.868 -10.914  0.00  0.00     0.037 H 
ATOM    145  H26 LEU d   1      50.984   6.613 -11.122  0.00  0.00     0.037 H 
BRANCH 143 146
ATOM    146  CG  LEU d   1      49.369   7.732 -11.941  0.00  0.00    -0.059 C 
ATOM    147  H27 LEU d   1      50.032   8.608 -11.997  0.00  0.00     0.038 H 
BRANCH 146 148
ATOM    148  CD1 LEU d   1      49.391   7.047 -13.295  0.00  0.00    -0.073 C 
ATOM    149  H28 LEU d   1      48.983   7.727 -14.057  0.00  0.00     0.028 H 
ATOM    150  H29 LEU d   1      48.780   6.133 -13.254  0.00  0.00     0.028 H 
ATOM    151  H30 LEU d   1      50.427   6.784 -13.556  0.00  0.00     0.028 H 
ENDBRANCH 146 148
BRANCH 146 152
ATOM    152  CD2 LEU d   1      47.969   8.244 -11.636  0.00  0.00    -0.073 C 
ATOM    153  H31 LEU d   1      47.965   8.738 -10.653  0.00  0.00     0.028 H 
ATOM    154  H32 LEU d   1      47.264   7.400 -11.624  0.00  0.00     0.028 H 
ATOM    155  H33 LEU d   1      47.665   8.965 -12.410  0.00  0.00     0.028 H 
ENDBRANCH 146 152
ENDBRANCH 143 146
ENDBRANCH 101 143
ENDBRANCH  98 101
ENDBRANCH  95  97
BRANCH  95 156
ATOM    156  CB  GLU d   1      49.053   2.948  -7.196  0.00  0.00    -0.029 C 
ATOM    157  H36 GLU d   1      49.395   1.904  -7.144  0.00  0.00     0.037 H 
ATOM    158  H37 GLU d   1      48.265   3.038  -7.958  0.00  0.00     0.037 H 
BRANCH 156 159
ATOM    159  CG  GLU d   1      48.461   3.317  -5.862  0.00  0.00     0.018 C 
ATOM    160  H38 GLU d   1      48.714   4.363  -5.636  0.00  0.00     0.049 H 
ATOM    161  H39 GLU d   1      48.887   2.661  -5.088  0.00  0.00     0.049 H 
BRANCH 159 162
ATOM    162  CD  GLU d   1      46.938   3.162  -5.863  0.00  0.00     0.172 C 
ATOM    163  OE1 GLU d   1      46.359   2.800  -4.824  0.00  0.00    -0.648 OA
ATOM    164  OE2 GLU d   1      46.341   3.410  -6.916  0.00  0.00    -0.648 OA
ENDBRANCH 159 162
ENDBRANCH 156 159
ENDBRANCH  95 156
ENDBRANCH  13  95
TORSDOF 36
