REMARK  2 active torsions:
REMARK  status: ('A' for Active; 'I' for Inactive)
REMARK    1  A    between atoms: C8_8  and  C10_10 
REMARK    2  A    between atoms: C10_10  and  O16_16 
ROOT
ATOM      1  C10 PX5 d   1      30.724 -22.844  15.284  0.00  0.00     0.127 C 
ATOM      2  C11 PX5 d   1      32.196 -22.672  15.382  0.00  0.00    -0.061 C 
ATOM      3  C12 PX5 d   1      33.065 -23.635  15.583  0.00  0.00    -0.039 C 
ATOM      4  C13 PX5 d   1      32.607 -24.911  16.084  0.00  0.00     0.149 C 
ATOM      5  C14 PX5 d   1      31.141 -25.114  16.331  0.00  0.00    -0.003 C 
ATOM      6  C15 PX5 d   1      30.238 -24.268  15.452  0.00  0.00    -0.021 C 
ATOM      7  O17 PX5 d   1      33.389 -25.776  16.288  0.00  0.00    -0.293 OA
ATOM      8  H   PX5 d   1      32.588 -21.660  15.278  0.00  0.00     0.082 H 
ATOM      9  H   PX5 d   1      34.123 -23.474  15.374  0.00  0.00     0.088 H 
ATOM     10  H   PX5 d   1      30.946 -24.825  17.364  0.00  0.00     0.044 H 
ATOM     11  H   PX5 d   1      30.919 -26.158  16.109  0.00  0.00     0.044 H 
ATOM     12  H   PX5 d   1      30.218 -24.727  14.463  0.00  0.00     0.039 H 
ATOM     13  H   PX5 d   1      29.259 -24.227  15.930  0.00  0.00     0.039 H 
ENDROOT
BRANCH   1  14
ATOM     14  C8  PX5 d   1      30.151 -22.054  16.384  0.00  0.00     0.114 A 
ATOM     15  S7  PX5 d   1      28.666 -21.286  16.512  0.00  0.00    -0.069 SA
ATOM     16  C4  PX5 d   1      29.097 -20.886  18.032  0.00  0.00     0.035 A 
ATOM     17  C3  PX5 d   1      30.333 -21.312  18.428  0.00  0.00     0.075 A 
ATOM     18  C5  PX5 d   1      28.338 -20.142  18.918  0.00  0.00    -0.064 A 
ATOM     19  C2  PX5 d   1      30.802 -21.029  19.668  0.00  0.00    -0.054 A 
ATOM     20  N9  PX5 d   1      30.895 -21.994  17.462  0.00  0.00    -0.241 NA
ATOM     21  C1  PX5 d   1      30.044 -20.299  20.518  0.00  0.00    -0.081 A 
ATOM     22  H   PX5 d   1      31.784 -21.387  19.978  0.00  0.00     0.087 H 
ATOM     23  C6  PX5 d   1      28.810 -19.846  20.155  0.00  0.00    -0.082 A 
ATOM     24  H   PX5 d   1      30.427 -20.068  21.512  0.00  0.00     0.083 H 
ATOM     25  H   PX5 d   1      28.212 -19.255  20.848  0.00  0.00     0.083 H 
ATOM     26  H   PX5 d   1      27.351 -19.790  18.619  0.00  0.00     0.085 H 
ENDBRANCH   1  14
BRANCH   1  27
ATOM     27  O16 PX5 d   1      30.321 -22.410  14.037  0.00  0.00    -0.379 OA
ATOM     28  H   PX5 d   1      29.370 -22.514  13.955  0.00  0.00     0.211 HD
ENDBRANCH   1  27
TORSDOF 2
