REMARK  7 active torsions:
REMARK  status: ('A' for Active; 'I' for Inactive)
REMARK    1  A    between atoms: BOR_15  and  OAC_3 
REMARK    2  A    between atoms: BOR_15  and  OAD_4 
REMARK    3  A    between atoms: NAM_12  and  CAK_10 
REMARK    4  A    between atoms: CAK_10  and  BOR_15 
REMARK    5  A    between atoms: CAL_11  and  CAN_13 
REMARK    6  A    between atoms: SAP_14  and  CAL_11 
REMARK    7  A    between atoms: NAM_12  and  SAP_14 
ROOT
ATOM      1  CAL BSF d   1      23.344   5.483  13.349  0.00  0.00     0.070 C 
ATOM      2  H   BSF d   1      24.087   4.696  13.220  0.00  0.00     0.066 H 
ATOM      3  H   BSF d   1      22.662   5.283  14.175  0.00  0.00     0.066 H 
ENDROOT
BRANCH   1   4
ATOM      4  CAN BSF d   1      22.529   5.564  12.083  0.00  0.00    -0.043 A 
ATOM      5  CAI BSF d   1      23.121   5.241  10.876  0.00  0.00    -0.076 A 
ATOM      6  CAG BSF d   1      22.393   5.315   9.702  0.00  0.00    -0.082 A 
ATOM      7  H   BSF d   1      24.165   4.927  10.849  0.00  0.00     0.084 H 
ATOM      8  CAF BSF d   1      21.072   5.727   9.745  0.00  0.00    -0.083 A 
ATOM      9  H   BSF d   1      22.856   5.051   8.751  0.00  0.00     0.083 H 
ATOM     10  CAH BSF d   1      20.472   6.041  10.966  0.00  0.00    -0.082 A 
ATOM     11  H   BSF d   1      20.498   5.807   8.822  0.00  0.00     0.083 H 
ATOM     12  CAJ BSF d   1      21.203   5.966  12.146  0.00  0.00    -0.076 A 
ATOM     13  H   BSF d   1      19.426   6.346  10.994  0.00  0.00     0.083 H 
ATOM     14  H   BSF d   1      20.743   6.218  13.102  0.00  0.00     0.084 H 
ENDBRANCH   1   4
BRANCH   1  15
ATOM     15  SAP BSF d   1      24.228   7.038  13.713  0.00  0.00     0.230 S 
ATOM     16  OAA BSF d   1      23.206   8.113  13.999  0.00  0.00    -0.206 OA
ATOM     17  OAB BSF d   1      25.092   7.411  12.541  0.00  0.00    -0.206 OA
BRANCH  15  18
ATOM     18  NAM BSF d   1      25.014   6.690  15.117  0.00  0.00    -0.322 N 
ATOM     19  H   BSF d   1      24.666   6.960  16.037  0.00  0.00     0.171 HD
BRANCH  18  20
ATOM     20  CAK BSF d   1      26.261   5.955  14.911  0.00  0.00     0.037 C 
ATOM     21  H   BSF d   1      27.060   6.657  14.672  0.00  0.00     0.058 H 
ATOM     22  H   BSF d   1      26.135   5.251  14.089  0.00  0.00     0.058 H 
BRANCH  20  23
ATOM     23  BOR BSF d   1      26.642   5.145  16.260  0.00  0.00     0.510 B 
BRANCH  23  24
ATOM     24  OAC BSF d   1      25.562   4.094  16.591  0.00  0.00    -0.436 OA
ATOM     25  H   BSF d   1      25.420   3.531  15.826  0.00  0.00     0.184 HD
ENDBRANCH  23  24
BRANCH  23  26
ATOM     26  OAD BSF d   1      26.764   5.953  17.536  0.00  0.00    -0.436 OA
ATOM     27  H   BSF d   1      27.028   5.375  18.256  0.00  0.00     0.184 HD
ENDBRANCH  23  26
ENDBRANCH  20  23
ENDBRANCH  18  20
ENDBRANCH  15  18
ENDBRANCH   1  15
TORSDOF 7
