REMARK  8 active torsions:
REMARK  status: ('A' for Active; 'I' for Inactive)
REMARK    1  A    between atoms: BOR_18  and  OAE_5 
REMARK    2  A    between atoms: BOR_18  and  OAF_6 
REMARK    3  A    between atoms: NAN_13  and  CAL_11 
REMARK    4  A    between atoms: CAL_11  and  BOR_18 
REMARK    5  A    between atoms: CAP_15  and  CAM_12 
REMARK    6  A    between atoms: CAM_12  and  SAS_17 
REMARK    7  A    between atoms: SAS_17  and  NAN_13 
REMARK    8  A    between atoms: CAO_14  and  CAQ_16 
ROOT
ATOM      1  CAM BSG d   1      23.312   4.877  13.397  0.00  0.00     0.070 C 
ATOM      2  H   BSG d   1      24.035   4.062  13.379  0.00  0.00     0.066 H 
ATOM      3  H   BSG d   1      22.612   4.889  14.233  0.00  0.00     0.066 H 
ENDROOT
BRANCH   1   4
ATOM      4  CAP BSG d   1      22.475   4.719  12.155  0.00  0.00    -0.043 A 
ATOM      5  CAH BSG d   1      23.026   4.217  10.978  0.00  0.00    -0.075 A 
ATOM      6  CAJ BSG d   1      22.210   4.007   9.872  0.00  0.00    -0.066 A 
ATOM      7  H   BSG d   1      24.091   3.990  10.925  0.00  0.00     0.084 H 
ATOM      8  CAQ BSG d   1      20.859   4.361   9.937  0.00  0.00     0.040 A 
ATOM      9  H   BSG d   1      22.620   3.570   8.962  0.00  0.00     0.085 H 
ATOM     10  CAK BSG d   1      20.314   4.800  11.139  0.00  0.00    -0.066 A 
ATOM     11  CAI BSG d   1      21.123   5.014  12.249  0.00  0.00    -0.075 A 
ATOM     12  H   BSG d   1      19.241   4.978  11.211  0.00  0.00     0.085 H 
ATOM     13  H   BSG d   1      20.703   5.406  13.175  0.00  0.00     0.084 H 
BRANCH   8  14
ATOM     14  CAO BSG d   1      19.885   4.112   8.776  0.00  0.00     0.209 C 
ATOM     15  OAA BSG d   1      20.264   3.489   7.759  0.00  0.00    -0.644 OA
ATOM     16  OAD BSG d   1      18.733   4.579   8.910  0.00  0.00    -0.644 OA
ENDBRANCH   8  14
ENDBRANCH   1   4
BRANCH   1  17
ATOM     17  SAS BSG d   1      24.283   6.408  13.532  0.00  0.00     0.230 S 
ATOM     18  OAB BSG d   1      23.311   7.549  13.699  0.00  0.00    -0.206 OA
ATOM     19  OAC BSG d   1      25.088   6.470  12.274  0.00  0.00    -0.206 OA
BRANCH  17  20
ATOM     20  NAN BSG d   1      25.109   6.156  14.940  0.00  0.00    -0.322 N 
ATOM     21  H   BSG d   1      24.791   6.509  15.843  0.00  0.00     0.171 HD
BRANCH  20  22
ATOM     22  CAL BSG d   1      26.337   5.382  14.775  0.00  0.00     0.037 C 
ATOM     23  H   BSG d   1      27.164   6.037  14.501  0.00  0.00     0.058 H 
ATOM     24  H   BSG d   1      26.218   4.647  13.979  0.00  0.00     0.058 H 
BRANCH  22  25
ATOM     25  BOR BSG d   1      26.646   4.642  16.184  0.00  0.00     0.510 B 
BRANCH  25  26
ATOM     26  OAE BSG d   1      26.837   5.502  17.403  0.00  0.00    -0.436 OA
ATOM     27  H   BSG d   1      27.140   4.957  18.133  0.00  0.00     0.184 HD
ENDBRANCH  25  26
BRANCH  25  28
ATOM     28  OAF BSG d   1      25.596   3.570  16.519  0.00  0.00    -0.436 OA
ATOM     29  H   BSG d   1      25.458   3.008  15.753  0.00  0.00     0.184 HD
ENDBRANCH  25  28
ENDBRANCH  22  25
ENDBRANCH  20  22
ENDBRANCH  17  20
ENDBRANCH   1  17
TORSDOF 8
