REMARK  4 active torsions:
REMARK  status: ('A' for Active; 'I' for Inactive)
REMARK       I    between atoms: N7_3  and  C16_7 
REMARK    1  A    between atoms: C14_6  and  C22_11 
REMARK    2  A    between atoms: C16_7  and  C18_9 
REMARK    3  A    between atoms: C18_9  and  N34_20 
REMARK    4  A    between atoms: C25_14  and  C26_15 
ROOT
ATOM      1  N34 O8G d   1      30.425  77.249  10.344  0.00  0.00    -0.106 NA
ATOM      2  N36 O8G d   1      30.977  78.192  10.046  0.00  0.00    -0.167 NA
ATOM      3  N37 O8G d   1      31.515  79.125   9.724  0.00  0.00     0.068 N 
ENDROOT
BRANCH   1   4
ATOM      4  C18 O8G d   1      31.087  76.359  11.345  0.00  0.00     0.120 C 
ATOM      5  H10 O8G d   1      31.634  76.970  12.078  0.00  0.00     0.086 H 
ATOM      6  H11 O8G d   1      30.327  75.756  11.864  0.00  0.00     0.086 H 
BRANCH   4   7
ATOM      7  C16 O8G d   1      32.075  75.426  10.605  0.00  0.00     0.242 C 
ATOM      8  N7  O8G d   1      32.543  74.286  11.186  0.00  0.00    -0.351 N 
ATOM      9  C4  O8G d   1      33.535  73.391  10.480  0.00  0.00    -0.002 C 
ATOM     10  C8  O8G d   1      32.108  73.963  12.628  0.00  0.00    -0.002 C 
ATOM     11  C1  O8G d   1      33.526  71.953  10.942  0.00  0.00    -0.040 C 
ATOM     12  H3  O8G d   1      33.306  73.407   9.404  0.00  0.00     0.064 H 
ATOM     13  H4  O8G d   1      34.543  73.798  10.646  0.00  0.00     0.064 H 
ATOM     14  C14 O8G d   1      33.505  71.879  12.500  0.00  0.00     0.015 C 
ATOM     15  H1  O8G d   1      34.428  71.447  10.568  0.00  0.00     0.036 H 
ATOM     16  H2  O8G d   1      32.632  71.451  10.544  0.00  0.00     0.036 H 
ATOM     17  C11 O8G d   1      32.178  72.466  12.994  0.00  0.00    -0.040 C 
ATOM     18  H9  O8G d   1      34.352  72.454  12.902  0.00  0.00     0.053 H 
ATOM     19  H7  O8G d   1      31.342  71.933  12.518  0.00  0.00     0.036 H 
ATOM     20  H8  O8G d   1      32.111  72.352  14.086  0.00  0.00     0.036 H 
ATOM     21  H5  O8G d   1      31.069  74.301  12.758  0.00  0.00     0.064 H 
ATOM     22  H6  O8G d   1      32.763  74.517  13.317  0.00  0.00     0.064 H 
ATOM     23  O17 O8G d   1      32.400  75.779   9.459  0.00  0.00    -0.271 OA
BRANCH  14  24
ATOM     24  C22 O8G d   1      33.570  70.456  13.011  0.00  0.00     0.177 A 
ATOM     25  N21 O8G d   1      33.451  69.367  12.269  0.00  0.00    -0.203 NA
ATOM     26  C25 O8G d   1      33.513  68.328  13.106  0.00  0.00     0.196 A 
ATOM     27  N24 O8G d   1      33.680  68.753  14.361  0.00  0.00    -0.105 NA
ATOM     28  O23 O8G d   1      33.725  70.132  14.331  0.00  0.00    -0.195 OA
BRANCH  26  29
ATOM     29  C26 O8G d   1      33.438  66.992  12.728  0.00  0.00     0.054 A 
ATOM     30  C27 O8G d   1      33.481  66.456  11.508  0.00  0.00    -0.062 A 
ATOM     31  C29 O8G d   1      33.346  65.109  11.511  0.00  0.00    -0.075 A 
ATOM     32  H12 O8G d   1      33.612  67.043  10.600  0.00  0.00     0.085 H 
ATOM     33  C31 O8G d   1      33.213  64.496  12.703  0.00  0.00    -0.044 A 
ATOM     34  H13 O8G d   1      33.345  64.541  10.582  0.00  0.00     0.084 H 
ATOM     35  S33 O8G d   1      33.240  65.739  13.852  0.00  0.00    -0.098 SA
ATOM     36  H14 O8G d   1      33.110  63.428  12.888  0.00  0.00     0.095 H 
ENDBRANCH  26  29
ENDBRANCH  14  24
ENDBRANCH   4   7
ENDBRANCH   1   4
TORSDOF 4
