REMARK  8 active torsions:
REMARK  status: ('A' for Active; 'I' for Inactive)
REMARK    1  A    between atoms: C09_7  and  S12_8 
REMARK    2  A    between atoms: S12_8  and  N14_11 
REMARK    3  A    between atoms: N14_11  and  C17_12 
REMARK    4  A    between atoms: C17_12  and  C20_13 
REMARK    5  A    between atoms: N23_17  and  C26_18 
REMARK    6  A    between atoms: C26_18  and  C29_19 
REMARK       I    between atoms: C29_19  and  N30_21 
REMARK    7  A    between atoms: C38_26  and  C46_27 
REMARK    8  A    between atoms: C49_31  and  C51_32 
ROOT
ATOM      1  C29 O8H d   1      32.075  74.245  10.347  0.00  0.00     0.239 C 
ATOM      2  O31 O8H d   1      32.340  74.486   9.155  0.00  0.00    -0.271 OA
ATOM      3  N30 O8H d   1      32.469  73.074  10.920  0.00  0.00    -0.351 N 
ATOM      4  C43 O8H d   1      33.268  72.113  10.107  0.00  0.00    -0.002 C 
ATOM      5  C40 O8H d   1      33.243  70.669  10.633  0.00  0.00    -0.040 C 
ATOM      6  C32 O8H d   1      32.140  72.799  12.371  0.00  0.00    -0.002 C 
ATOM      7  C35 O8H d   1      32.243  71.306  12.775  0.00  0.00    -0.040 C 
ATOM      8  C38 O8H d   1      33.437  70.612  12.137  0.00  0.00     0.015 C 
ATOM      9  H11 O8H d   1      34.313  72.457  10.094  0.00  0.00     0.064 H 
ATOM     10  H12 O8H d   1      32.869  72.114   9.082  0.00  0.00     0.064 H 
ATOM     11  H13 O8H d   1      34.050  70.100  10.148  0.00  0.00     0.036 H 
ATOM     12  H14 O8H d   1      32.273  70.216  10.382  0.00  0.00     0.036 H 
ATOM     13  H15 O8H d   1      31.111  73.137  12.561  0.00  0.00     0.064 H 
ATOM     14  H16 O8H d   1      32.837  73.375  12.998  0.00  0.00     0.064 H 
ATOM     15  H17 O8H d   1      31.324  70.790  12.458  0.00  0.00     0.036 H 
ATOM     16  H18 O8H d   1      32.341  71.242  13.869  0.00  0.00     0.036 H 
ATOM     17  H19 O8H d   1      34.370  71.123  12.417  0.00  0.00     0.053 H 
ENDROOT
BRANCH   1  18
ATOM     18  C26 O8H d   1      31.263  75.263  11.159  0.00  0.00     0.091 C 
ATOM     19  H9  O8H d   1      30.339  74.791  11.525  0.00  0.00     0.082 H 
ATOM     20  H10 O8H d   1      31.859  75.613  12.014  0.00  0.00     0.082 H 
BRANCH  18  21
ATOM     21  N23 O8H d   1      30.927  76.399  10.296  0.00  0.00    -0.252 N 
ATOM     22  C24 O8H d   1      29.828  76.481   9.556  0.00  0.00     0.028 A 
ATOM     23  C20 O8H d   1      29.939  77.625   8.917  0.00  0.00     0.093 A 
ATOM     24  H8  O8H d   1      29.014  75.760   9.492  0.00  0.00     0.117 H 
ATOM     25  N21 O8H d   1      31.094  78.137   9.324  0.00  0.00    -0.134 NA
ATOM     26  N22 O8H d   1      31.643  77.374  10.117  0.00  0.00    -0.066 NA
BRANCH  23  27
ATOM     27  C17 O8H d   1      28.924  78.228   7.943  0.00  0.00     0.046 C 
ATOM     28  H6  O8H d   1      28.415  77.416   7.403  0.00  0.00     0.074 H 
ATOM     29  H7  O8H d   1      28.183  78.812   8.509  0.00  0.00     0.074 H 
BRANCH  27  30
ATOM     30  N14 O8H d   1      29.592  79.108   6.972  0.00  0.00    -0.310 N 
ATOM     31  H5  O8H d   1      30.583  79.215   6.889  0.00  0.00     0.172 HD
BRANCH  30  32
ATOM     32  S12 O8H d   1      28.469  79.903   6.028  0.00  0.00     0.259 S 
ATOM     33  O13 O8H d   1      27.611  78.909   5.339  0.00  0.00    -0.201 OA
ATOM     34  O16 O8H d   1      29.127  80.760   4.998  0.00  0.00    -0.201 OA
BRANCH  32  35
ATOM     35  C09 O8H d   1      27.515  80.971   6.984  0.00  0.00     0.079 A 
ATOM     36  C07 O8H d   1      28.054  82.168   7.452  0.00  0.00    -0.059 A 
ATOM     37  C05 O8H d   1      27.235  82.997   8.218  0.00  0.00    -0.066 A 
ATOM     38  H1  O8H d   1      29.078  82.446   7.228  0.00  0.00     0.085 H 
ATOM     39  C04 O8H d   1      25.904  82.630   8.502  0.00  0.00     0.006 A 
ATOM     40  H2  O8H d   1      27.626  83.933   8.599  0.00  0.00     0.085 H 
ATOM     41  I01 O8H d   1      24.618  83.849   9.675  0.00  0.00    -0.045 I 
ATOM     42  C02 O8H d   1      25.382  81.430   8.025  0.00  0.00    -0.066 A 
ATOM     43  C10 O8H d   1      26.203  80.600   7.268  0.00  0.00    -0.059 A 
ATOM     44  H3  O8H d   1      24.357  81.148   8.239  0.00  0.00     0.085 H 
ATOM     45  H4  O8H d   1      25.818  79.657   6.896  0.00  0.00     0.085 H 
ENDBRANCH  32  35
ENDBRANCH  30  32
ENDBRANCH  27  30
ENDBRANCH  23  27
ENDBRANCH  18  21
ENDBRANCH   1  18
BRANCH   8  46
ATOM     46  C46 O8H d   1      33.482  69.173  12.607  0.00  0.00     0.177 A 
ATOM     47  N50 O8H d   1      33.445  68.078  11.841  0.00  0.00    -0.203 NA
ATOM     48  C49 O8H d   1      33.500  66.983  12.632  0.00  0.00     0.196 A 
ATOM     49  N48 O8H d   1      33.588  67.391  13.906  0.00  0.00    -0.105 NA
ATOM     50  O47 O8H d   1      33.582  68.812  13.917  0.00  0.00    -0.195 OA
BRANCH  48  51
ATOM     51  C51 O8H d   1      33.444  65.645  12.200  0.00  0.00     0.054 A 
ATOM     52  C52 O8H d   1      33.662  65.160  10.983  0.00  0.00    -0.062 A 
ATOM     53  C54 O8H d   1      33.502  63.821  10.853  0.00  0.00    -0.075 A 
ATOM     54  H20 O8H d   1      33.950  65.795  10.147  0.00  0.00     0.085 H 
ATOM     55  C56 O8H d   1      33.142  63.121  11.942  0.00  0.00    -0.044 A 
ATOM     56  H21 O8H d   1      33.660  63.327   9.895  0.00  0.00     0.084 H 
ATOM     57  S58 O8H d   1      33.003  64.268  13.163  0.00  0.00    -0.098 SA
ATOM     58  H22 O8H d   1      32.977  62.047  12.017  0.00  0.00     0.095 H 
ENDBRANCH  48  51
ENDBRANCH   8  46
TORSDOF 8
