REMARK  13 active torsions:
REMARK  status: ('A' for Active; 'I' for Inactive)
REMARK    1  A    between atoms: C5_1  and  C6_2 
REMARK    2  A    between atoms: C6_2  and  C7_3 
REMARK    3  A    between atoms: C7_3  and  C8_4 
REMARK    4  A    between atoms: C7_3  and  C10_5 
REMARK    5  A    between atoms: C7_3  and  C9_20 
REMARK    6  A    between atoms: C15_6  and  C16_15 
REMARK    7  A    between atoms: C16_15  and  C17_7 
REMARK    8  A    between atoms: C14_24  and  C20_8 
REMARK    9  A    between atoms: C23_26  and  C24_11 
REMARK   10  A    between atoms: C3_16  and  C2_17 
REMARK   11  A    between atoms: C2_17  and  C1_18 
REMARK   12  A    between atoms: C11_21  and  C12_22 
REMARK   13  A    between atoms: C12_22  and  N13_23 
ROOT
ATOM      1  C5  01T d   1      16.376 -35.124  17.824  0.00  0.00     0.044 A 
ATOM      2  C15 01T d   1      17.700 -33.460  16.050  0.00  0.00    -0.012 A 
ATOM      3  C3  01T d   1      16.529 -33.054  16.683  0.00  0.00     0.042 A 
ATOM      4  N4  01T d   1      15.919 -33.890  17.552  0.00  0.00    -0.257 NA
ATOM      5  C11 01T d   1      17.533 -35.569  17.208  0.00  0.00     0.004 A 
ATOM      6  C14 01T d   1      18.193 -34.739  16.303  0.00  0.00    -0.007 A 
ENDROOT
BRANCH   1   7
ATOM      7  C6  01T d   1      15.589 -35.960  18.811  0.00  0.00    -0.018 C 
ATOM      8  H   01T d   1      15.235 -35.297  19.600  0.00  0.00     0.043 H 
ATOM      9  H   01T d   1      16.247 -36.746  19.181  0.00  0.00     0.043 H 
BRANCH   7  10
ATOM     10  C7  01T d   1      14.363 -36.634  18.179  0.00  0.00    -0.046 C 
BRANCH  10  11
ATOM     11  C8  01T d   1      14.736 -37.411  16.930  0.00  0.00    -0.069 C 
ATOM     12  H   01T d   1      13.861 -37.948  16.563  0.00  0.00     0.028 H 
ATOM     13  H   01T d   1      15.087 -36.719  16.165  0.00  0.00     0.028 H 
ATOM     14  H   01T d   1      15.527 -38.123  17.169  0.00  0.00     0.028 H 
ENDBRANCH  10  11
BRANCH  10  15
ATOM     15  C10 01T d   1      13.806 -37.627  19.185  0.00  0.00    -0.069 C 
ATOM     16  H   01T d   1      13.463 -37.092  20.070  0.00  0.00     0.028 H 
ATOM     17  H   01T d   1      12.970 -38.165  18.738  0.00  0.00     0.028 H 
ATOM     18  H   01T d   1      14.586 -38.334  19.466  0.00  0.00     0.028 H 
ENDBRANCH  10  15
BRANCH  10  19
ATOM     19  C9  01T d   1      13.261 -35.657  17.800  0.00  0.00    -0.069 C 
ATOM     20  H   01T d   1      12.428 -36.204  17.360  0.00  0.00     0.028 H 
ATOM     21  H   01T d   1      12.921 -35.131  18.692  0.00  0.00     0.028 H 
ATOM     22  H   01T d   1      13.647 -34.938  17.078  0.00  0.00     0.028 H 
ENDBRANCH  10  19
ENDBRANCH   7  10
ENDBRANCH   1   7
BRANCH   5  23
ATOM     23  C12 01T d   1      18.069 -36.952  17.527  0.00  0.00     0.106 C 
ATOM     24  H   01T d   1      18.129 -37.533  16.607  0.00  0.00     0.082 H 
ATOM     25  H   01T d   1      17.400 -37.440  18.236  0.00  0.00     0.082 H 
BRANCH  23  26
ATOM     26  N13 01T d   1      19.394 -36.851  18.114  0.00  0.00    -0.075 N 
ATOM     27  H   01T d   1      19.744 -37.786  18.324  0.00  0.00     0.274 HD
ATOM     28  H   01T d   1      20.023 -36.392  17.455  0.00  0.00     0.274 HD
ATOM     29  H   01T d   1      19.343 -36.305  18.974  0.00  0.00     0.274 HD
ENDBRANCH  23  26
ENDBRANCH   5  23
BRANCH   3  30
ATOM     30  C2  01T d   1      15.896 -31.701  16.448  0.00  0.00    -0.028 C 
ATOM     31  H   01T d   1      16.111 -31.369  15.432  0.00  0.00     0.041 H 
ATOM     32  H   01T d   1      16.303 -30.980  17.157  0.00  0.00     0.041 H 
BRANCH  30  33
ATOM     33  C1  01T d   1      14.394 -31.809  16.639  0.00  0.00    -0.071 C 
ATOM     34  H   01T d   1      13.990 -32.530  15.928  0.00  0.00     0.028 H 
ATOM     35  H   01T d   1      14.181 -32.140  17.655  0.00  0.00     0.028 H 
ATOM     36  H   01T d   1      13.937 -30.834  16.470  0.00  0.00     0.028 H 
ENDBRANCH  30  33
ENDBRANCH   3  30
BRANCH   6  37
ATOM     37  C20 01T d   1      19.449 -35.245  15.670  0.00  0.00    -0.025 A 
ATOM     38  C21 01T d   1      20.665 -34.651  16.006  0.00  0.00    -0.072 A 
ATOM     39  C22 01T d   1      21.844 -35.133  15.453  0.00  0.00    -0.076 A 
ATOM     40  H   01T d   1      20.690 -33.811  16.700  0.00  0.00     0.084 H 
ATOM     41  C23 01T d   1      21.809 -36.205  14.569  0.00  0.00    -0.062 A 
ATOM     42  H   01T d   1      22.797 -34.671  15.712  0.00  0.00     0.084 H 
ATOM     43  C25 01T d   1      20.603 -36.817  14.233  0.00  0.00    -0.076 A 
ATOM     44  C26 01T d   1      19.427 -36.336  14.790  0.00  0.00    -0.072 A 
ATOM     45  H   01T d   1      20.584 -37.661  13.543  0.00  0.00     0.084 H 
ATOM     46  H   01T d   1      18.478 -36.810  14.541  0.00  0.00     0.084 H 
BRANCH  41  47
ATOM     47  C24 01T d   1      23.091 -36.704  13.969  0.00  0.00    -0.051 C 
ATOM     48  H   01T d   1      23.562 -35.901  13.403  0.00  0.00     0.033 H 
ATOM     49  H   01T d   1      23.760 -37.031  14.765  0.00  0.00     0.033 H 
ATOM     50  H   01T d   1      22.878 -37.542  13.305  0.00  0.00     0.033 H 
ENDBRANCH  41  47
ENDBRANCH   6  37
BRANCH   2  51
ATOM     51  C16 01T d   1      18.386 -32.547  15.054  0.00  0.00     0.042 C 
ATOM     52  H   01T d   1      17.579 -32.069  14.499  0.00  0.00     0.056 H 
ATOM     53  H   01T d   1      19.078 -33.187  14.507  0.00  0.00     0.056 H 
BRANCH  51  54
ATOM     54  C17 01T d   1      19.231 -31.410  15.591  0.00  0.00     0.177 C 
ATOM     55  O19 01T d   1      19.043 -30.920  16.728  0.00  0.00    -0.648 OA
ATOM     56  O18 01T d   1      20.108 -30.975  14.814  0.00  0.00    -0.648 OA
ENDBRANCH  51  54
ENDBRANCH   2  51
TORSDOF 13
