REMARK  5 active torsions:
REMARK  status: ('A' for Active; 'I' for Inactive)
REMARK    1  A    between atoms: C13_5  and  N5_16 
REMARK    2  A    between atoms: C17_7  and  C16_22 
REMARK    3  A    between atoms: C25_26  and  C20_8 
REMARK    4  A    between atoms: C24_11  and  C36_36 
REMARK    5  A    between atoms: C16_22  and  N42_42 
ROOT
ATOM      1  C17 IQO d   1       8.240  -6.278  14.470  0.00  0.00    -0.030 A 
ATOM      2  C20 IQO d   1       7.570  -4.775  12.214  0.00  0.00    -0.005 A 
ATOM      3  C21 IQO d   1       8.797  -4.578  12.875  0.00  0.00    -0.070 A 
ATOM      4  C22 IQO d   1       9.117  -5.321  13.985  0.00  0.00    -0.074 A 
ATOM      5  C18 IQO d   1       7.000  -6.496  13.818  0.00  0.00    -0.074 A 
ATOM      6  C19 IQO d   1       6.670  -5.742  12.690  0.00  0.00    -0.070 A 
ATOM      7  H   IQO d   1       9.498  -3.831  12.503  0.00  0.00     0.084 H 
ATOM      8  H   IQO d   1      10.069  -5.156  14.489  0.00  0.00     0.084 H 
ATOM      9  H   IQO d   1       6.308  -7.248  14.195  0.00  0.00     0.084 H 
ATOM     10  H   IQO d   1       5.719  -5.903  12.182  0.00  0.00     0.084 H 
ENDROOT
BRANCH   1  11
ATOM     11  C16 IQO d   1       8.605  -7.077  15.711  0.00  0.00     0.137 C 
ATOM     12  H   IQO d   1       7.832  -6.893  16.457  0.00  0.00     0.087 H 
ATOM     13  H   IQO d   1       9.599  -6.758  16.024  0.00  0.00     0.087 H 
BRANCH  11  14
ATOM     14  N42 IQO d   1       8.661  -8.536  15.481  0.00  0.00     0.092 N 
ATOM     15  C15 IQO d   1       8.611  -9.300  16.770  0.00  0.00     0.116 C 
ATOM     16  C14 IQO d   1       8.620 -10.811  16.553  0.00  0.00    -0.021 C 
ATOM     17  H   IQO d   1       9.495  -9.038  17.351  0.00  0.00     0.080 H 
ATOM     18  H   IQO d   1       7.684  -9.039  17.281  0.00  0.00     0.080 H 
ATOM     19  C13 IQO d   1       9.811 -11.238  15.714  0.00  0.00     0.025 C 
ATOM     20  H   IQO d   1       8.685 -11.302  17.524  0.00  0.00     0.038 H 
ATOM     21  H   IQO d   1       7.707 -11.093  16.029  0.00  0.00     0.038 H 
ATOM     22  C12 IQO d   1       9.869 -10.485  14.377  0.00  0.00    -0.021 C 
ATOM     23  H   IQO d   1      10.706 -10.935  16.258  0.00  0.00     0.073 H 
ATOM     24  C11 IQO d   1       9.793  -8.945  14.580  0.00  0.00     0.116 C 
ATOM     25  H   IQO d   1       9.017 -10.794  13.772  0.00  0.00     0.038 H 
ATOM     26  H   IQO d   1      10.816 -10.721  13.891  0.00  0.00     0.038 H 
ATOM     27  H   IQO d   1       9.629  -8.486  13.605  0.00  0.00     0.080 H 
ATOM     28  H   IQO d   1      10.725  -8.621  15.044  0.00  0.00     0.080 H 
BRANCH  19  29
ATOM     29  N5  IQO d   1       9.949 -12.698  15.598  0.00  0.00    -0.293 N 
ATOM     30  C4  IQO d   1      11.138 -13.389  15.819  0.00  0.00     0.066 A 
ATOM     31  C3  IQO d   1      10.927 -14.695  15.637  0.00  0.00     0.063 A 
ATOM     32  C9  IQO d   1      12.427 -12.885  16.187  0.00  0.00    -0.055 A 
ATOM     33  C6  IQO d   1      11.985 -15.647  15.802  0.00  0.00    -0.055 A 
ATOM     34  N2  IQO d   1       9.583 -14.900  15.286  0.00  0.00    -0.306 N 
ATOM     35  C7  IQO d   1      13.294 -15.187  16.170  0.00  0.00    -0.081 A 
ATOM     36  H   IQO d   1      11.798 -16.710  15.650  0.00  0.00     0.087 H 
ATOM     37  C8  IQO d   1      13.513 -13.795  16.362  0.00  0.00    -0.081 A 
ATOM     38  H   IQO d   1      14.111 -15.897  16.301  0.00  0.00     0.083 H 
ATOM     39  H   IQO d   1      14.500 -13.427  16.640  0.00  0.00     0.083 H 
ATOM     40  C1  IQO d   1       8.977 -13.648  15.264  0.00  0.00     0.328 A 
ATOM     41  H   IQO d   1       9.137 -15.795  15.086  0.00  0.00     0.171 HD
ATOM     42  O10 IQO d   1       7.793 -13.417  14.999  0.00  0.00    -0.246 OA
ATOM     43  H   IQO d   1      12.578 -11.815  16.332  0.00  0.00     0.087 H 
ENDBRANCH  19  29
ENDBRANCH  11  14
ENDBRANCH   1  11
BRANCH   2  44
ATOM     44  C25 IQO d   1       7.250  -3.993  11.054  0.00  0.00     0.097 A 
ATOM     45  C24 IQO d   1       7.168  -2.495  11.105  0.00  0.00     0.097 A 
ATOM     46  N23 IQO d   1       6.881  -1.803   9.976  0.00  0.00    -0.243 NA
ATOM     47  C32 IQO d   1       6.678  -2.487   8.821  0.00  0.00     0.088 A 
ATOM     48  C27 IQO d   1       6.756  -3.906   8.775  0.00  0.00     0.088 A 
ATOM     49  C31 IQO d   1       6.387  -1.772   7.646  0.00  0.00    -0.025 A 
ATOM     50  C28 IQO d   1       6.540  -4.574   7.548  0.00  0.00    -0.023 A 
ATOM     51  N26 IQO d   1       7.038  -4.636   9.883  0.00  0.00    -0.243 NA
ATOM     52  C29 IQO d   1       6.256  -3.823   6.399  0.00  0.00     0.087 A 
ATOM     53  H   IQO d   1       6.594  -5.661   7.496  0.00  0.00     0.090 H 
ATOM     54  C30 IQO d   1       6.179  -2.476   6.437  0.00  0.00     0.064 A 
ATOM     55  N34 IQO d   1       6.008  -4.185   5.089  0.00  0.00    -0.242 NA
ATOM     56  N35 IQO d   1       5.889  -1.926   5.195  0.00  0.00    -0.349 N 
ATOM     57  C33 IQO d   1       5.801  -3.028   4.438  0.00  0.00     0.065 A 
ATOM     58  H   IQO d   1       5.774  -0.948   4.931  0.00  0.00     0.167 HD
ATOM     59  H   IQO d   1       5.578  -2.989   3.372  0.00  0.00     0.143 H 
ATOM     60  H   IQO d   1       6.322  -0.684   7.667  0.00  0.00     0.090 H 
BRANCH  45  61
ATOM     61  C36 IQO d   1       7.406  -1.727  12.367  0.00  0.00    -0.005 A 
ATOM     62  C37 IQO d   1       8.342  -0.614  12.366  0.00  0.00    -0.071 A 
ATOM     63  C38 IQO d   1       8.575   0.124  13.557  0.00  0.00    -0.082 A 
ATOM     64  H   IQO d   1       8.866  -0.345  11.449  0.00  0.00     0.084 H 
ATOM     65  C39 IQO d   1       7.892  -0.223  14.759  0.00  0.00    -0.083 A 
ATOM     66  H   IQO d   1       9.277   0.957  13.552  0.00  0.00     0.083 H 
ATOM     67  C40 IQO d   1       6.958  -1.328  14.772  0.00  0.00    -0.082 A 
ATOM     68  H   IQO d   1       8.074   0.346  15.671  0.00  0.00     0.083 H 
ATOM     69  C41 IQO d   1       6.716  -2.074  13.584  0.00  0.00    -0.071 A 
ATOM     70  H   IQO d   1       6.438  -1.590  15.694  0.00  0.00     0.083 H 
ATOM     71  H   IQO d   1       6.011  -2.905  13.595  0.00  0.00     0.084 H 
ENDBRANCH  45  61
ENDBRANCH   2  44
TORSDOF 5
