REMARK  18 active torsions:
REMARK  status: ('A' for Active; 'I' for Inactive)
REMARK    1  A    between atoms: C1_1  and  O1_2 
REMARK    2  A    between atoms: C2_3  and  C1_1 
REMARK    3  A    between atoms: S8_9  and  C5_6 
REMARK    4  A    between atoms: N11_12  and  S8_9 
REMARK    5  A    between atoms: N11_12  and  C12_13 
REMARK    6  A    between atoms: C16_17  and  N11_12 
REMARK    7  A    between atoms: C12_13  and  C13_14 
REMARK    8  A    between atoms: C13_14  and  C14_15 
REMARK    9  A    between atoms: C13_14  and  C15_16 
REMARK   10  A    between atoms: C15_16  and  C18_19 
REMARK   11  A    between atoms: C17_18  and  C16_17 
REMARK   12  A    between atoms: C17_18  and  O18_20 
REMARK   13  A    between atoms: C19_21  and  C17_18 
REMARK   14  A    between atoms: C19_21  and  N20_22 
REMARK   15  A    between atoms: C32_34  and  C19_21 
REMARK       I    between atoms: N20_22  and  C21_23 
REMARK   16  A    between atoms: C21_23  and  O23_25 
REMARK   17  A    between atoms: O23_25  and  C24_26 
REMARK   18  A    between atoms: C38_40  and  C32_34 
ROOT
ATOM      1  C17 K2A d   1      19.902  29.472  15.852  0.00  0.00     0.067 C 
ATOM      2  H18 K2A d   1      20.934  29.852  15.870  0.00  0.00     0.088 H 
ENDROOT
BRANCH   1   3
ATOM      3  C16 K2A d   1      18.983  30.572  16.419  0.00  0.00     0.019 C 
ATOM      4  H16 K2A d   1      17.930  30.302  16.251  0.00  0.00     0.061 H 
ATOM      5  H17 K2A d   1      19.163  30.689  17.498  0.00  0.00     0.061 H 
BRANCH   3   6
ATOM      6  N11 K2A d   1      19.295  31.841  15.716  0.00  0.00    -0.204 NA
BRANCH   6   7
ATOM      7  S8  K2A d   1      18.059  32.458  14.851  0.00  0.00     0.243 S 
ATOM      8  O9  K2A d   1      18.705  33.286  13.877  0.00  0.00    -0.206 OA
ATOM      9  O10 K2A d   1      17.310  31.387  14.292  0.00  0.00    -0.206 OA
BRANCH   7  10
ATOM     10  C5  K2A d   1      17.048  33.378  15.756  0.00  0.00     0.074 A 
ATOM     11  C4  K2A d   1      16.020  32.807  16.510  0.00  0.00    -0.060 A 
ATOM     12  C3  K2A d   1      15.173  33.606  17.298  0.00  0.00    -0.073 A 
ATOM     13  H5  K2A d   1      15.873  31.733  16.487  0.00  0.00     0.085 H 
ATOM     14  C2  K2A d   1      15.340  34.986  17.325  0.00  0.00    -0.035 A 
ATOM     15  H4  K2A d   1      14.388  33.145  17.886  0.00  0.00     0.084 H 
ATOM     16  C7  K2A d   1      16.358  35.564  16.577  0.00  0.00    -0.073 A 
ATOM     17  C6  K2A d   1      17.202  34.769  15.805  0.00  0.00    -0.060 A 
ATOM     18  H7  K2A d   1      16.496  36.639  16.594  0.00  0.00     0.084 H 
ATOM     19  H6  K2A d   1      17.994  35.236  15.231  0.00  0.00     0.085 H 
BRANCH  14  20
ATOM     20  C1  K2A d   1      14.438  35.872  18.160  0.00  0.00     0.040 C 
ATOM     21  H1  K2A d   1      14.478  36.902  17.776  0.00  0.00     0.081 H 
ATOM     22  H2  K2A d   1      13.404  35.500  18.104  0.00  0.00     0.081 H 
BRANCH  20  23
ATOM     23  O1  K2A d   1      14.878  35.853  19.520  0.00  0.00    -0.396 OA
ATOM     24  H3  K2A d   1      14.312  36.409  20.043  0.00  0.00     0.209 HD
ENDBRANCH  20  23
ENDBRANCH  14  20
ENDBRANCH   7  10
ENDBRANCH   6   7
BRANCH   6  25
ATOM     25  C12 K2A d   1      20.005  32.881  16.512  0.00  0.00    -0.004 C 
ATOM     26  H8  K2A d   1      19.614  32.877  17.540  0.00  0.00     0.058 H 
ATOM     27  H9  K2A d   1      19.829  33.866  16.056  0.00  0.00     0.058 H 
BRANCH  25  28
ATOM     28  C13 K2A d   1      21.508  32.608  16.548  0.00  0.00    -0.046 C 
ATOM     29  H10 K2A d   1      21.653  31.612  16.992  0.00  0.00     0.041 H 
BRANCH  28  30
ATOM     30  C14 K2A d   1      22.136  32.570  15.153  0.00  0.00    -0.072 C 
ATOM     31  H11 K2A d   1      23.214  32.371  15.242  0.00  0.00     0.028 H 
ATOM     32  H12 K2A d   1      21.982  33.539  14.655  0.00  0.00     0.028 H 
ATOM     33  H13 K2A d   1      21.663  31.773  14.560  0.00  0.00     0.028 H 
ENDBRANCH  28  30
BRANCH  28  34
ATOM     34  C15 K2A d   1      22.189  33.627  17.465  0.00  0.00    -0.064 C 
ATOM     35  H14 K2A d   1      23.258  33.376  17.536  0.00  0.00     0.033 H 
ATOM     36  H15 K2A d   1      21.730  33.562  18.463  0.00  0.00     0.033 H 
BRANCH  34  37
ATOM     37  C18 K2A d   1      22.061  35.049  16.968  0.00  0.00    -0.076 C 
ATOM     38  H19 K2A d   1      22.569  35.729  17.668  0.00  0.00     0.027 H 
ATOM     39  H20 K2A d   1      20.997  35.320  16.901  0.00  0.00     0.027 H 
ATOM     40  H21 K2A d   1      22.524  35.133  15.974  0.00  0.00     0.027 H 
ENDBRANCH  34  37
ENDBRANCH  28  34
ENDBRANCH  25  28
ENDBRANCH   6  25
ENDBRANCH   3   6
ENDBRANCH   1   3
BRANCH   1  41
ATOM     41  O18 K2A d   1      19.824  28.306  16.699  0.00  0.00    -0.392 OA
ATOM     42  H22 K2A d   1      20.104  28.535  17.578  0.00  0.00     0.210 HD
ENDBRANCH   1  41
BRANCH   1  43
ATOM     43  C19 K2A d   1      19.572  29.082  14.411  0.00  0.00     0.044 C 
ATOM     44  H23 K2A d   1      19.502  29.998  13.806  0.00  0.00     0.077 H 
BRANCH  43  45
ATOM     45  N20 K2A d   1      20.651  28.250  13.923  0.00  0.00    -0.329 N 
ATOM     46  C21 K2A d   1      21.533  28.623  13.011  0.00  0.00     0.361 C 
ATOM     47  O22 K2A d   1      21.600  29.681  12.412  0.00  0.00    -0.238 OA
ATOM     48  H24 K2A d   1      20.735  27.328  14.302  0.00  0.00     0.165 HD
BRANCH  46  49
ATOM     49  O23 K2A d   1      22.514  27.609  12.764  0.00  0.00    -0.296 OA
BRANCH  49  50
ATOM     50  C24 K2A d   1      23.340  27.757  11.619  0.00  0.00     0.078 C 
ATOM     51  C25 K2A d   1      24.660  27.161  12.053  0.00  0.00     0.048 C 
ATOM     52  O26 K2A d   1      24.458  25.754  11.894  0.00  0.00    -0.358 OA
ATOM     53  H26 K2A d   1      24.879  27.411  13.102  0.00  0.00     0.078 H 
ATOM     54  H27 K2A d   1      25.481  27.515  11.413  0.00  0.00     0.078 H 
ATOM     55  C27 K2A d   1      23.561  25.526  10.811  0.00  0.00     0.137 C 
ATOM     56  O28 K2A d   1      22.552  24.595  11.186  0.00  0.00    -0.361 OA
ATOM     57  C31 K2A d   1      22.885  26.847  10.510  0.00  0.00     0.023 C 
ATOM     58  H28 K2A d   1      24.109  25.157   9.932  0.00  0.00     0.129 H 
ATOM     59  C29 K2A d   1      21.273  25.242  11.234  0.00  0.00     0.023 C 
ATOM     60  C30 K2A d   1      21.398  26.535  10.438  0.00  0.00    -0.035 C 
ATOM     61  H29 K2A d   1      21.001  25.465  12.276  0.00  0.00     0.074 H 
ATOM     62  H30 K2A d   1      20.505  24.595  10.785  0.00  0.00     0.074 H 
ATOM     63  H31 K2A d   1      20.804  27.339  10.897  0.00  0.00     0.037 H 
ATOM     64  H32 K2A d   1      21.076  26.389   9.396  0.00  0.00     0.037 H 
ATOM     65  H33 K2A d   1      23.212  27.260   9.544  0.00  0.00     0.051 H 
ATOM     66  H25 K2A d   1      23.414  28.805  11.292  0.00  0.00     0.088 H 
ENDBRANCH  49  50
ENDBRANCH  46  49
ENDBRANCH  43  45
BRANCH  43  67
ATOM     67  C32 K2A d   1      18.266  28.293  14.255  0.00  0.00    -0.020 C 
ATOM     68  H34 K2A d   1      17.428  28.912  14.608  0.00  0.00     0.043 H 
ATOM     69  H35 K2A d   1      18.325  27.376  14.860  0.00  0.00     0.043 H 
BRANCH  67  70
ATOM     70  C38 K2A d   1      18.028  27.917  12.807  0.00  0.00    -0.056 A 
ATOM     71  C33 K2A d   1      17.719  28.895  11.858  0.00  0.00    -0.077 A 
ATOM     72  C34 K2A d   1      17.515  28.551  10.525  0.00  0.00    -0.082 A 
ATOM     73  H36 K2A d   1      17.637  29.932  12.163  0.00  0.00     0.084 H 
ATOM     74  C35 K2A d   1      17.597  27.227  10.123  0.00  0.00    -0.083 A 
ATOM     75  H37 K2A d   1      17.291  29.323   9.797  0.00  0.00     0.083 H 
ATOM     76  C36 K2A d   1      17.894  26.262  11.055  0.00  0.00    -0.082 A 
ATOM     77  H38 K2A d   1      17.429  26.956   9.087  0.00  0.00     0.083 H 
ATOM     78  C37 K2A d   1      18.106  26.594  12.389  0.00  0.00    -0.077 A 
ATOM     79  H39 K2A d   1      17.964  25.225  10.746  0.00  0.00     0.083 H 
ATOM     80  H40 K2A d   1      18.334  25.815  13.108  0.00  0.00     0.084 H 
ENDBRANCH  67  70
ENDBRANCH  43  67
ENDBRANCH   1  43
TORSDOF 18
