REMARK  16 active torsions:
REMARK  status: ('A' for Active; 'I' for Inactive)
REMARK    1  A    between atoms: S8_10  and  C5_7 
REMARK    2  A    between atoms: N11_13  and  S8_10 
REMARK    3  A    between atoms: N11_13  and  C12_14 
REMARK    4  A    between atoms: C16_18  and  N11_13 
REMARK    5  A    between atoms: C12_14  and  C13_15 
REMARK    6  A    between atoms: C13_15  and  C14_16 
REMARK    7  A    between atoms: C13_15  and  C15_17 
REMARK    8  A    between atoms: C15_17  and  C18_20 
REMARK    9  A    between atoms: C17_19  and  C16_18 
REMARK   10  A    between atoms: C17_19  and  O18_21 
REMARK   11  A    between atoms: C19_22  and  C17_19 
REMARK   12  A    between atoms: C19_22  and  N20_23 
REMARK   13  A    between atoms: C32_35  and  C19_22 
REMARK       I    between atoms: N20_23  and  C21_24 
REMARK   14  A    between atoms: C21_24  and  O23_26 
REMARK   15  A    between atoms: O23_26  and  C24_27 
REMARK   16  A    between atoms: C38_41  and  C32_35 
ROOT
ATOM      1  C17 K20 d   1      19.956  29.381  15.765  0.00  0.00     0.067 C 
ATOM      2  H16 K20 d   1      20.983  29.772  15.724  0.00  0.00     0.088 H 
ENDROOT
BRANCH   1   3
ATOM      3  C16 K20 d   1      19.054  30.512  16.274  0.00  0.00     0.019 C 
ATOM      4  H14 K20 d   1      17.999  30.228  16.148  0.00  0.00     0.061 H 
ATOM      5  H15 K20 d   1      19.259  30.698  17.338  0.00  0.00     0.061 H 
BRANCH   3   6
ATOM      6  N11 K20 d   1      19.337  31.734  15.492  0.00  0.00    -0.204 NA
BRANCH   6   7
ATOM      7  S8  K20 d   1      18.029  32.341  14.748  0.00  0.00     0.243 S 
ATOM      8  O9  K20 d   1      17.314  31.217  14.243  0.00  0.00    -0.206 OA
ATOM      9  O10 K20 d   1      18.520  33.207  13.683  0.00  0.00    -0.206 OA
BRANCH   7  10
ATOM     10  C5  K20 d   1      17.122  33.174  15.807  0.00  0.00     0.077 A 
ATOM     11  C4  K20 d   1      17.337  34.543  16.035  0.00  0.00    -0.026 A 
ATOM     12  C3  K20 d   1      16.595  35.218  17.002  0.00  0.00     0.106 A 
ATOM     13  H3  K20 d   1      18.083  35.076  15.457  0.00  0.00     0.090 H 
ATOM     14  C2  K20 d   1      15.605  34.581  17.722  0.00  0.00     0.105 A 
ATOM     15  O2  K20 d   1      16.634  36.546  17.374  0.00  0.00    -0.323 OA
ATOM     16  O1  K20 d   1      15.012  35.470  18.597  0.00  0.00    -0.323 OA
ATOM     17  C7  K20 d   1      15.350  33.231  17.512  0.00  0.00    -0.046 A 
ATOM     18  C1  K20 d   1      15.686  36.742  18.431  0.00  0.00     0.115 A 
ATOM     19  H1  K20 d   1      16.201  37.027  19.360  0.00  0.00     0.118 H 
ATOM     20  H2  K20 d   1      14.964  37.525  18.158  0.00  0.00     0.118 H 
ATOM     21  C6  K20 d   1      16.114  32.546  16.550  0.00  0.00    -0.058 A 
ATOM     22  H5  K20 d   1      14.580  32.718  18.077  0.00  0.00     0.087 H 
ATOM     23  H4  K20 d   1      15.916  31.494  16.377  0.00  0.00     0.086 H 
ENDBRANCH   7  10
ENDBRANCH   6   7
BRANCH   6  24
ATOM     24  C12 K20 d   1      20.108  32.745  16.258  0.00  0.00    -0.004 C 
ATOM     25  H6  K20 d   1      19.694  32.797  17.276  0.00  0.00     0.058 H 
ATOM     26  H7  K20 d   1      19.987  33.720  15.763  0.00  0.00     0.058 H 
BRANCH  24  27
ATOM     27  C13 K20 d   1      21.606  32.441  16.362  0.00  0.00    -0.046 C 
ATOM     28  H8  K20 d   1      21.709  31.438  16.801  0.00  0.00     0.041 H 
BRANCH  27  29
ATOM     29  C14 K20 d   1      22.334  32.419  15.012  0.00  0.00    -0.072 C 
ATOM     30  H9  K20 d   1      23.399  32.195  15.173  0.00  0.00     0.028 H 
ATOM     31  H10 K20 d   1      22.235  33.401  14.526  0.00  0.00     0.028 H 
ATOM     32  H11 K20 d   1      21.890  31.645  14.368  0.00  0.00     0.028 H 
ENDBRANCH  27  29
BRANCH  27  33
ATOM     33  C15 K20 d   1      22.257  33.446  17.319  0.00  0.00    -0.064 C 
ATOM     34  H12 K20 d   1      23.337  33.241  17.354  0.00  0.00     0.033 H 
ATOM     35  H13 K20 d   1      21.823  33.303  18.320  0.00  0.00     0.033 H 
BRANCH  33  36
ATOM     36  C18 K20 d   1      22.059  34.888  16.917  0.00  0.00    -0.076 C 
ATOM     37  H17 K20 d   1      22.553  35.544  17.649  0.00  0.00     0.027 H 
ATOM     38  H18 K20 d   1      20.983  35.116  16.887  0.00  0.00     0.027 H 
ATOM     39  H19 K20 d   1      22.497  35.055  15.922  0.00  0.00     0.027 H 
ENDBRANCH  33  36
ENDBRANCH  27  33
ENDBRANCH  24  27
ENDBRANCH   6  24
ENDBRANCH   3   6
ENDBRANCH   1   3
BRANCH   1  40
ATOM     40  O18 K20 d   1      19.942  28.262  16.659  0.00  0.00    -0.392 OA
ATOM     41  H20 K20 d   1      19.055  27.931  16.736  0.00  0.00     0.210 HD
ENDBRANCH   1  40
BRANCH   1  42
ATOM     42  C19 K20 d   1      19.579  28.915  14.364  0.00  0.00     0.044 C 
ATOM     43  H21 K20 d   1      19.485  29.804  13.723  0.00  0.00     0.077 H 
BRANCH  42  44
ATOM     44  N20 K20 d   1      20.649  28.080  13.871  0.00  0.00    -0.329 N 
ATOM     45  C21 K20 d   1      21.491  28.434  12.913  0.00  0.00     0.361 C 
ATOM     46  O22 K20 d   1      21.554  29.480  12.275  0.00  0.00    -0.238 OA
ATOM     47  H22 K20 d   1      20.761  27.175  14.280  0.00  0.00     0.165 HD
BRANCH  45  48
ATOM     48  O23 K20 d   1      22.454  27.405  12.672  0.00  0.00    -0.296 OA
BRANCH  48  49
ATOM     49  C24 K20 d   1      23.252  27.549  11.503  0.00  0.00     0.078 C 
ATOM     50  C25 K20 d   1      24.577  26.961  11.921  0.00  0.00     0.048 C 
ATOM     51  O26 K20 d   1      24.306  25.561  11.897  0.00  0.00    -0.358 OA
ATOM     52  H24 K20 d   1      24.861  27.295  12.930  0.00  0.00     0.078 H 
ATOM     53  H25 K20 d   1      25.373  27.225  11.209  0.00  0.00     0.078 H 
ATOM     54  C27 K20 d   1      23.460  25.290  10.786  0.00  0.00     0.137 C 
ATOM     55  O28 K20 d   1      22.481  24.336  11.170  0.00  0.00    -0.361 OA
ATOM     56  C31 K20 d   1      22.781  26.596  10.418  0.00  0.00     0.023 C 
ATOM     57  H26 K20 d   1      24.046  24.908   9.937  0.00  0.00     0.129 H 
ATOM     58  C29 K20 d   1      21.202  24.968  11.250  0.00  0.00     0.023 C 
ATOM     59  C30 K20 d   1      21.305  26.232  10.399  0.00  0.00    -0.035 C 
ATOM     60  H27 K20 d   1      20.968  25.227  12.293  0.00  0.00     0.074 H 
ATOM     61  H28 K20 d   1      20.421  24.303  10.854  0.00  0.00     0.074 H 
ATOM     62  H29 K20 d   1      20.701  27.042  10.834  0.00  0.00     0.037 H 
ATOM     63  H30 K20 d   1      20.968  26.035   9.371  0.00  0.00     0.037 H 
ATOM     64  H31 K20 d   1      23.086  26.973   9.431  0.00  0.00     0.051 H 
ATOM     65  H23 K20 d   1      23.310  28.591  11.155  0.00  0.00     0.088 H 
ENDBRANCH  48  49
ENDBRANCH  45  48
ENDBRANCH  42  44
BRANCH  42  66
ATOM     66  C32 K20 d   1      18.272  28.129  14.272  0.00  0.00    -0.020 C 
ATOM     67  H32 K20 d   1      17.445  28.760  14.629  0.00  0.00     0.043 H 
ATOM     68  H33 K20 d   1      18.346  27.230  14.901  0.00  0.00     0.043 H 
BRANCH  66  69
ATOM     69  C38 K20 d   1      18.000  27.714  12.836  0.00  0.00    -0.056 A 
ATOM     70  C33 K20 d   1      18.106  26.383  12.439  0.00  0.00    -0.077 A 
ATOM     71  C34 K20 d   1      17.872  26.017  11.120  0.00  0.00    -0.082 A 
ATOM     72  H34 K20 d   1      18.374  25.625  13.167  0.00  0.00     0.084 H 
ATOM     73  C35 K20 d   1      17.512  26.965  10.180  0.00  0.00    -0.083 A 
ATOM     74  H35 K20 d   1      17.973  24.979  10.825  0.00  0.00     0.083 H 
ATOM     75  C36 K20 d   1      17.418  28.293  10.556  0.00  0.00    -0.082 A 
ATOM     76  H36 K20 d   1      17.305  26.670   9.158  0.00  0.00     0.083 H 
ATOM     77  C37 K20 d   1      17.651  28.658  11.882  0.00  0.00    -0.077 A 
ATOM     78  H37 K20 d   1      17.164  29.049   9.822  0.00  0.00     0.083 H 
ATOM     79  H38 K20 d   1      17.558  29.698  12.172  0.00  0.00     0.084 H 
ENDBRANCH  66  69
ENDBRANCH  42  66
ENDBRANCH   1  42
TORSDOF 16
