REMARK  19 active torsions:
REMARK  status: ('A' for Active; 'I' for Inactive)
REMARK    1  A    between atoms: C1_1  and  O1_2 
REMARK    2  A    between atoms: C2_3  and  C1_1 
REMARK    3  A    between atoms: S8_10  and  C5_6 
REMARK    4  A    between atoms: N11_13  and  S8_10 
REMARK    5  A    between atoms: N11_13  and  C12_14 
REMARK    6  A    between atoms: C16_18  and  N11_13 
REMARK    7  A    between atoms: C12_14  and  C13_15 
REMARK    8  A    between atoms: C13_15  and  C14_16 
REMARK    9  A    between atoms: C13_15  and  C15_17 
REMARK   10  A    between atoms: C14_16  and  C20_23 
REMARK   11  A    between atoms: C15_17  and  C18_20 
REMARK   12  A    between atoms: C17_19  and  C16_18 
REMARK   13  A    between atoms: C17_19  and  O18_21 
REMARK   14  A    between atoms: C19_22  and  C17_19 
REMARK   15  A    between atoms: C19_22  and  N20_24 
REMARK   16  A    between atoms: C32_35  and  C19_22 
REMARK       I    between atoms: N20_24  and  C21_25 
REMARK   17  A    between atoms: C21_25  and  O23_27 
REMARK   18  A    between atoms: O23_27  and  C24_28 
REMARK   19  A    between atoms: C38_41  and  C32_35 
ROOT
ATOM      1  C17 F53 d   1      19.794  29.434  15.881  0.00  0.00     0.071 C 
ATOM      2  H17 F53 d   1      20.807  29.863  15.902  0.00  0.00     0.088 H 
ENDROOT
BRANCH   1   3
ATOM      3  C16 F53 d   1      18.823  30.498  16.431  0.00  0.00     0.031 C 
ATOM      4  H15 F53 d   1      17.788  30.205  16.203  0.00  0.00     0.069 H 
ATOM      5  H16 F53 d   1      18.949  30.584  17.520  0.00  0.00     0.069 H 
BRANCH   3   6
ATOM      6  N11 F53 d   1      19.121  31.798  15.794  0.00  0.00    -0.304 N 
BRANCH   6   7
ATOM      7  S8  F53 d   1      17.929  32.399  14.872  0.00  0.00     0.260 S 
ATOM      8  O9  F53 d   1      18.597  33.215  13.928  0.00  0.00    -0.200 OA
ATOM      9  O10 F53 d   1      17.218  31.289  14.294  0.00  0.00    -0.200 OA
BRANCH   7  10
ATOM     10  C5  F53 d   1      16.910  33.327  15.755  0.00  0.00     0.079 A 
ATOM     11  C4  F53 d   1      17.074  34.725  15.848  0.00  0.00    -0.060 A 
ATOM     12  C3  F53 d   1      16.236  35.515  16.658  0.00  0.00    -0.073 A 
ATOM     13  H5  F53 d   1      17.865  35.203  15.282  0.00  0.00     0.085 H 
ATOM     14  C2  F53 d   1      15.206  34.922  17.379  0.00  0.00    -0.035 A 
ATOM     15  H4  F53 d   1      16.394  36.586  16.719  0.00  0.00     0.084 H 
ATOM     16  C7  F53 d   1      15.021  33.542  17.302  0.00  0.00    -0.073 A 
ATOM     17  C6  F53 d   1      15.881  32.746  16.516  0.00  0.00    -0.060 A 
ATOM     18  H7  F53 d   1      14.210  33.077  17.851  0.00  0.00     0.084 H 
ATOM     19  H6  F53 d   1      15.746  31.671  16.499  0.00  0.00     0.085 H 
BRANCH  14  20
ATOM     20  C1  F53 d   1      14.296  35.789  18.235  0.00  0.00     0.040 C 
ATOM     21  H1  F53 d   1      14.232  36.799  17.804  0.00  0.00     0.081 H 
ATOM     22  H2  F53 d   1      13.291  35.344  18.277  0.00  0.00     0.081 H 
BRANCH  20  23
ATOM     23  O1  F53 d   1      14.851  35.860  19.559  0.00  0.00    -0.396 OA
ATOM     24  H3  F53 d   1      14.293  36.399  20.107  0.00  0.00     0.209 HD
ENDBRANCH  20  23
ENDBRANCH  14  20
ENDBRANCH   7  10
ENDBRANCH   6   7
BRANCH   6  25
ATOM     25  C12 F53 d   1      19.781  32.844  16.627  0.00  0.00     0.009 C 
ATOM     26  H8  F53 d   1      19.436  32.761  17.668  0.00  0.00     0.066 H 
ATOM     27  H9  F53 d   1      19.531  33.841  16.236  0.00  0.00     0.066 H 
BRANCH  25  28
ATOM     28  C13 F53 d   1      21.289  32.632  16.568  0.00  0.00    -0.039 C 
ATOM     29  H10 F53 d   1      21.493  31.594  16.868  0.00  0.00     0.042 H 
BRANCH  28  30
ATOM     30  C14 F53 d   1      21.849  32.816  15.156  0.00  0.00    -0.064 C 
ATOM     31  H11 F53 d   1      21.696  33.864  14.857  0.00  0.00     0.033 H 
ATOM     32  H12 F53 d   1      21.293  32.156  14.475  0.00  0.00     0.033 H 
BRANCH  30  33
ATOM     33  C20 F53 d   1      23.330  32.494  15.031  0.00  0.00    -0.076 C 
ATOM     34  H23 F53 d   1      23.653  32.651  13.991  0.00  0.00     0.027 H 
ATOM     35  H24 F53 d   1      23.502  31.445  15.314  0.00  0.00     0.027 H 
ATOM     36  H25 F53 d   1      23.906  33.153  15.697  0.00  0.00     0.027 H 
ENDBRANCH  30  33
ENDBRANCH  28  30
BRANCH  28  37
ATOM     37  C15 F53 d   1      21.975  33.555  17.577  0.00  0.00    -0.064 C 
ATOM     38  H13 F53 d   1      23.050  33.324  17.587  0.00  0.00     0.033 H 
ATOM     39  H14 F53 d   1      21.549  33.362  18.573  0.00  0.00     0.033 H 
BRANCH  37  40
ATOM     40  C18 F53 d   1      21.803  35.024  17.258  0.00  0.00    -0.076 C 
ATOM     41  H18 F53 d   1      22.319  35.627  18.020  0.00  0.00     0.027 H 
ATOM     42  H19 F53 d   1      20.732  35.276  17.254  0.00  0.00     0.027 H 
ATOM     43  H20 F53 d   1      22.233  35.237  16.268  0.00  0.00     0.027 H 
ENDBRANCH  37  40
ENDBRANCH  28  37
ENDBRANCH  25  28
ENDBRANCH   6  25
ENDBRANCH   3   6
ENDBRANCH   1   3
BRANCH   1  44
ATOM     44  O18 F53 d   1      19.789  28.243  16.695  0.00  0.00    -0.392 OA
ATOM     45  H21 F53 d   1      20.054  28.465  17.580  0.00  0.00     0.210 HD
ENDBRANCH   1  44
BRANCH   1  46
ATOM     46  C19 F53 d   1      19.467  29.049  14.433  0.00  0.00     0.044 C 
ATOM     47  H22 F53 d   1      19.364  29.971  13.841  0.00  0.00     0.077 H 
BRANCH  46  48
ATOM     48  N20 F53 d   1      20.562  28.257  13.923  0.00  0.00    -0.329 N 
ATOM     49  C21 F53 d   1      21.457  28.638  13.010  0.00  0.00     0.361 C 
ATOM     50  O22 F53 d   1      21.555  29.684  12.400  0.00  0.00    -0.238 OA
ATOM     51  H26 F53 d   1      20.659  27.332  14.290  0.00  0.00     0.165 HD
BRANCH  49  52
ATOM     52  O23 F53 d   1      22.439  27.609  12.764  0.00  0.00    -0.296 OA
BRANCH  52  53
ATOM     53  C24 F53 d   1      23.277  27.779  11.629  0.00  0.00     0.078 C 
ATOM     54  C25 F53 d   1      24.591  27.181  12.126  0.00  0.00     0.048 C 
ATOM     55  O26 F53 d   1      24.390  25.776  11.972  0.00  0.00    -0.358 OA
ATOM     56  H28 F53 d   1      24.769  27.441  13.180  0.00  0.00     0.078 H 
ATOM     57  H29 F53 d   1      25.438  27.527  11.515  0.00  0.00     0.078 H 
ATOM     58  C27 F53 d   1      23.516  25.546  10.872  0.00  0.00     0.137 C 
ATOM     59  O8  F53 d   1      22.521  24.606  11.272  0.00  0.00    -0.361 OA
ATOM     60  C31 F53 d   1      22.848  26.854  10.511  0.00  0.00     0.023 C 
ATOM     61  H30 F53 d   1      24.080  25.158  10.011  0.00  0.00     0.129 H 
ATOM     62  C29 F53 d   1      21.237  25.251  11.318  0.00  0.00     0.023 C 
ATOM     63  C30 F53 d   1      21.365  26.490  10.439  0.00  0.00    -0.035 C 
ATOM     64  H31 F53 d   1      20.989  25.538  12.351  0.00  0.00     0.074 H 
ATOM     65  H32 F53 d   1      20.457  24.581  10.926  0.00  0.00     0.074 H 
ATOM     66  H33 F53 d   1      20.744  27.310  10.828  0.00  0.00     0.037 H 
ATOM     67  H34 F53 d   1      21.069  26.265   9.404  0.00  0.00     0.037 H 
ATOM     68  H35 F53 d   1      23.184  27.253   9.542  0.00  0.00     0.051 H 
ATOM     69  H27 F53 d   1      23.351  28.827  11.303  0.00  0.00     0.088 H 
ENDBRANCH  52  53
ENDBRANCH  49  52
ENDBRANCH  46  48
BRANCH  46  70
ATOM     70  C32 F53 d   1      18.190  28.221  14.273  0.00  0.00    -0.020 C 
ATOM     71  H36 F53 d   1      17.334  28.792  14.662  0.00  0.00     0.043 H 
ATOM     72  H37 F53 d   1      18.291  27.282  14.836  0.00  0.00     0.043 H 
BRANCH  70  73
ATOM     73  C38 F53 d   1      17.960  27.906  12.807  0.00  0.00    -0.056 A 
ATOM     74  C33 F53 d   1      18.081  26.589  12.362  0.00  0.00    -0.077 A 
ATOM     75  C34 F53 d   1      17.897  26.228  11.032  0.00  0.00    -0.082 A 
ATOM     76  H38 F53 d   1      18.328  25.817  13.082  0.00  0.00     0.084 H 
ATOM     77  C35 F53 d   1      17.565  27.211  10.109  0.00  0.00    -0.083 A 
ATOM     78  H39 F53 d   1      18.011  25.196  10.721  0.00  0.00     0.083 H 
ATOM     79  C36 F53 d   1      17.433  28.525  10.534  0.00  0.00    -0.082 A 
ATOM     80  H40 F53 d   1      17.411  26.954   9.067  0.00  0.00     0.083 H 
ATOM     81  C37 F53 d   1      17.608  28.882  11.881  0.00  0.00    -0.077 A 
ATOM     82  H41 F53 d   1      17.189  29.294   9.810  0.00  0.00     0.083 H 
ATOM     83  H42 F53 d   1      17.470  29.910  12.196  0.00  0.00     0.084 H 
ENDBRANCH  70  73
ENDBRANCH  46  70
ENDBRANCH   1  46
TORSDOF 19
