REMARK  17 active torsions:
REMARK  status: ('A' for Active; 'I' for Inactive)
REMARK    1  A    between atoms: S8_10  and  C5_7 
REMARK    2  A    between atoms: N11_13  and  S8_10 
REMARK    3  A    between atoms: N11_13  and  C12_14 
REMARK    4  A    between atoms: C16_18  and  N11_13 
REMARK    5  A    between atoms: C12_14  and  C13_15 
REMARK    6  A    between atoms: C13_15  and  C14_16 
REMARK    7  A    between atoms: C13_15  and  C15_17 
REMARK    8  A    between atoms: C14_16  and  C20_23 
REMARK    9  A    between atoms: C15_17  and  C18_20 
REMARK   10  A    between atoms: C17_19  and  C16_18 
REMARK   11  A    between atoms: C17_19  and  O18_21 
REMARK   12  A    between atoms: C19_22  and  C17_19 
REMARK   13  A    between atoms: C19_22  and  N20_24 
REMARK   14  A    between atoms: C32_36  and  C19_22 
REMARK       I    between atoms: N20_24  and  C21_25 
REMARK   15  A    between atoms: C21_25  and  O23_27 
REMARK   16  A    between atoms: O23_27  and  C24_28 
REMARK   17  A    between atoms: C38_42  and  C32_36 
ROOT
ATOM      1  C17 K2E d   1      19.847  29.373  15.740  0.00  0.00     0.067 C 
ATOM      2  H15 K2E d   1      20.852  29.816  15.677  0.00  0.00     0.088 H 
ENDROOT
BRANCH   1   3
ATOM      3  C16 K2E d   1      18.919  30.461  16.288  0.00  0.00     0.019 C 
ATOM      4  H13 K2E d   1      17.867  30.176  16.137  0.00  0.00     0.061 H 
ATOM      5  H14 K2E d   1      19.106  30.616  17.361  0.00  0.00     0.061 H 
BRANCH   3   6
ATOM      6  N11 K2E d   1      19.230  31.689  15.532  0.00  0.00    -0.204 NA
BRANCH   6   7
ATOM      7  S8  K2E d   1      17.960  32.297  14.707  0.00  0.00     0.243 S 
ATOM      8  O9  K2E d   1      17.230  31.165  14.199  0.00  0.00    -0.206 OA
ATOM      9  O10 K2E d   1      18.489  33.168  13.683  0.00  0.00    -0.206 OA
BRANCH   7  10
ATOM     10  C5  K2E d   1      17.029  33.116  15.776  0.00  0.00     0.077 A 
ATOM     11  C4  K2E d   1      17.195  34.502  15.953  0.00  0.00    -0.026 A 
ATOM     12  C3  K2E d   1      16.457  35.190  16.908  0.00  0.00     0.106 A 
ATOM     13  H3  K2E d   1      17.907  35.039  15.337  0.00  0.00     0.090 H 
ATOM     14  C2  K2E d   1      15.521  34.550  17.690  0.00  0.00     0.105 A 
ATOM     15  O2  K2E d   1      16.505  36.526  17.244  0.00  0.00    -0.323 OA
ATOM     16  O1  K2E d   1      14.918  35.457  18.533  0.00  0.00    -0.323 OA
ATOM     17  C7  K2E d   1      15.284  33.198  17.518  0.00  0.00    -0.046 A 
ATOM     18  C1  K2E d   1      15.620  36.717  18.363  0.00  0.00     0.115 C 
ATOM     19  H1  K2E d   1      16.195  36.960  19.269  0.00  0.00     0.118 H 
ATOM     20  H2  K2E d   1      14.907  37.528  18.153  0.00  0.00     0.118 H 
ATOM     21  C6  K2E d   1      16.042  32.488  16.560  0.00  0.00    -0.058 A 
ATOM     22  H5  K2E d   1      14.529  32.692  18.108  0.00  0.00     0.087 H 
ATOM     23  H4  K2E d   1      15.858  31.428  16.424  0.00  0.00     0.086 H 
ENDBRANCH   7  10
ENDBRANCH   6   7
BRANCH   6  24
ATOM     24  C12 K2E d   1      19.951  32.691  16.351  0.00  0.00    -0.003 C 
ATOM     25  H6  K2E d   1      19.591  32.624  17.388  0.00  0.00     0.058 H 
ATOM     26  H7  K2E d   1      19.736  33.693  15.952  0.00  0.00     0.058 H 
BRANCH  24  27
ATOM     27  C13 K2E d   1      21.467  32.475  16.343  0.00  0.00    -0.043 C 
ATOM     28  H8  K2E d   1      21.663  31.447  16.682  0.00  0.00     0.041 H 
BRANCH  27  29
ATOM     29  C14 K2E d   1      22.061  32.617  14.931  0.00  0.00    -0.064 C 
ATOM     30  H9  K2E d   1      22.087  33.684  14.664  0.00  0.00     0.033 H 
ATOM     31  H10 K2E d   1      21.417  32.077  14.221  0.00  0.00     0.033 H 
BRANCH  29  32
ATOM     32  C20 K2E d   1      23.460  32.060  14.837  0.00  0.00    -0.076 C 
ATOM     33  H21 K2E d   1      23.837  32.186  13.811  0.00  0.00     0.027 H 
ATOM     34  H22 K2E d   1      23.447  30.991  15.094  0.00  0.00     0.027 H 
ATOM     35  H23 K2E d   1      24.116  32.597  15.537  0.00  0.00     0.027 H 
ENDBRANCH  29  32
ENDBRANCH  27  29
BRANCH  27  36
ATOM     36  C15 K2E d   1      22.136  33.437  17.338  0.00  0.00    -0.064 C 
ATOM     37  H11 K2E d   1      23.209  33.199  17.374  0.00  0.00     0.033 H 
ATOM     38  H12 K2E d   1      21.689  33.269  18.329  0.00  0.00     0.033 H 
BRANCH  36  39
ATOM     39  C18 K2E d   1      21.991  34.900  17.001  0.00  0.00    -0.076 C 
ATOM     40  H16 K2E d   1      22.500  35.505  17.766  0.00  0.00     0.027 H 
ATOM     41  H17 K2E d   1      20.924  35.166  16.973  0.00  0.00     0.027 H 
ATOM     42  H18 K2E d   1      22.444  35.096  16.018  0.00  0.00     0.027 H 
ENDBRANCH  36  39
ENDBRANCH  27  36
ENDBRANCH  24  27
ENDBRANCH   6  24
ENDBRANCH   3   6
ENDBRANCH   1   3
BRANCH   1  43
ATOM     43  O18 K2E d   1      19.923  28.271  16.643  0.00  0.00    -0.392 OA
ATOM     44  H19 K2E d   1      19.056  27.902  16.765  0.00  0.00     0.210 HD
ENDBRANCH   1  43
BRANCH   1  45
ATOM     45  C19 K2E d   1      19.486  28.902  14.334  0.00  0.00     0.044 C 
ATOM     46  H20 K2E d   1      19.360  29.789  13.695  0.00  0.00     0.077 H 
BRANCH  45  47
ATOM     47  N20 K2E d   1      20.583  28.105  13.845  0.00  0.00    -0.329 N 
ATOM     48  C21 K2E d   1      21.477  28.446  12.931  0.00  0.00     0.361 C 
ATOM     49  O22 K2E d   1      21.627  29.493  12.330  0.00  0.00    -0.238 OA
ATOM     50  H24 K2E d   1      20.679  27.192  14.241  0.00  0.00     0.165 HD
BRANCH  48  51
ATOM     51  O23 K2E d   1      22.393  27.374  12.644  0.00  0.00    -0.296 OA
BRANCH  51  52
ATOM     52  C24 K2E d   1      23.265  27.521  11.528  0.00  0.00     0.078 C 
ATOM     53  C25 K2E d   1      24.585  26.928  12.000  0.00  0.00     0.048 C 
ATOM     54  O26 K2E d   1      24.395  25.522  11.870  0.00  0.00    -0.358 OA
ATOM     55  H26 K2E d   1      24.785  27.201  13.047  0.00  0.00     0.078 H 
ATOM     56  H27 K2E d   1      25.417  27.271  11.367  0.00  0.00     0.078 H 
ATOM     57  C27 K2E d   1      23.509  25.250  10.789  0.00  0.00     0.137 C 
ATOM     58  O28 K2E d   1      22.512  24.305  11.198  0.00  0.00    -0.361 OA
ATOM     59  C31 K2E d   1      22.833  26.564  10.440  0.00  0.00     0.023 C 
ATOM     60  H28 K2E d   1      24.066  24.859   9.925  0.00  0.00     0.129 H 
ATOM     61  C29 K2E d   1      21.260  24.976  11.335  0.00  0.00     0.023 C 
ATOM     62  C30 K2E d   1      21.356  26.190  10.410  0.00  0.00    -0.035 C 
ATOM     63  H29 K2E d   1      21.105  25.295  12.376  0.00  0.00     0.074 H 
ATOM     64  H30 K2E d   1      20.434  24.319  11.026  0.00  0.00     0.074 H 
ATOM     65  H31 K2E d   1      20.736  27.017  10.786  0.00  0.00     0.037 H 
ATOM     66  H32 K2E d   1      21.040  25.929   9.389  0.00  0.00     0.037 H 
ATOM     67  H33 K2E d   1      23.145  26.951   9.459  0.00  0.00     0.051 H 
ATOM     68  H25 K2E d   1      23.341  28.562  11.181  0.00  0.00     0.088 H 
ENDBRANCH  51  52
ENDBRANCH  48  51
ENDBRANCH  45  47
BRANCH  45  69
ATOM     69  C32 K2E d   1      18.202  28.061  14.243  0.00  0.00    -0.020 C 
ATOM     70  H34 K2E d   1      17.351  28.649  14.617  0.00  0.00     0.043 H 
ATOM     71  H35 K2E d   1      18.315  27.152  14.852  0.00  0.00     0.043 H 
BRANCH  69  72
ATOM     72  C38 K2E d   1      17.953  27.673  12.794  0.00  0.00    -0.056 A 
ATOM     73  C33 K2E d   1      18.134  26.353  12.380  0.00  0.00    -0.077 A 
ATOM     74  C34 K2E d   1      17.931  25.986  11.053  0.00  0.00    -0.082 A 
ATOM     75  H36 K2E d   1      18.437  25.603  13.102  0.00  0.00     0.084 H 
ATOM     76  C35 K2E d   1      17.528  26.938  10.129  0.00  0.00    -0.083 A 
ATOM     77  H37 K2E d   1      18.087  24.959  10.743  0.00  0.00     0.083 H 
ATOM     78  C36 K2E d   1      17.333  28.248  10.526  0.00  0.00    -0.082 A 
ATOM     79  H38 K2E d   1      17.366  26.655   9.095  0.00  0.00     0.083 H 
ATOM     80  C37 K2E d   1      17.541  28.617  11.858  0.00  0.00    -0.077 A 
ATOM     81  H39 K2E d   1      17.018  28.991   9.802  0.00  0.00     0.083 H 
ATOM     82  H40 K2E d   1      17.381  29.645  12.164  0.00  0.00     0.084 H 
ENDBRANCH  69  72
ENDBRANCH  45  69
ENDBRANCH   1  45
TORSDOF 17
