REMARK  16 active torsions:
REMARK  status: ('A' for Active; 'I' for Inactive)
REMARK    1  A    between atoms: C3_3  and  O5_5 
REMARK    2  A    between atoms: O5_5  and  C8_8 
REMARK    3  A    between atoms: C7_7  and  C11_11 
REMARK    4  A    between atoms: C8_8  and  C12_12 
REMARK    5  A    between atoms: C12_12  and  O13_13 
REMARK    6  A    between atoms: O13_13  and  C14_14 
REMARK    7  A    between atoms: C19_19  and  C20_20 
REMARK    8  A    between atoms: C21_21  and  C23_23 
REMARK       I    between atoms: C23_23  and  N27_27 
REMARK    9  A    between atoms: N27_27  and  C29_29 
REMARK   10  A    between atoms: N27_27  and  C30_30 
REMARK   11  A    between atoms: C30_30  and  C33_33 
REMARK   12  A    between atoms: C38_38  and  C40_40 
REMARK   13  A    between atoms: C40_40  and  C41_41 
REMARK   14  A    between atoms: C41_41  and  C42_42 
REMARK   15  A    between atoms: C42_42  and  O43_43 
REMARK   16  A    between atoms: O43_43  and  C44_44 
ROOT
ATOM      1  C20 LPN d   1       7.818   4.841   3.153  0.00  0.00    -0.014 C 
ATOM      2  C21 LPN d   1       6.844   5.650   4.074  0.00  0.00     0.054 C 
ATOM      3  C22 LPN d   1       9.287   5.205   3.403  0.00  0.00    -0.035 C 
ATOM      4  C24 LPN d   1       7.198   5.521   5.565  0.00  0.00     0.093 C 
ATOM      5  C25 LPN d   1       9.613   5.165   4.902  0.00  0.00     0.082 C 
ATOM      6  N28 LPN d   1       8.609   5.831   5.749  0.00  0.00    -0.074 N 
ATOM      7  H14 LPN d   1       7.717   3.776   3.408  0.00  0.00     0.048 H 
ATOM      8  H15 LPN d   1       6.937   6.713   3.808  0.00  0.00     0.058 H 
ATOM      9  H16 LPN d   1       9.477   6.218   3.020  0.00  0.00     0.036 H 
ATOM     10  H17 LPN d   1       9.931   4.486   2.875  0.00  0.00     0.036 H 
ATOM     11  H18 LPN d   1       7.000   4.493   5.903  0.00  0.00     0.076 H 
ATOM     12  H19 LPN d   1       6.587   6.224   6.151  0.00  0.00     0.076 H 
ATOM     13  H20 LPN d   1      10.582   5.661   5.059  0.00  0.00     0.075 H 
ATOM     14  H21 LPN d   1       9.685   4.112   5.213  0.00  0.00     0.075 H 
ATOM     15  H22 LPN d   1       8.836   5.607   6.705  0.00  0.00     0.277 HD
ATOM     16  H23 LPN d   1       8.713   6.823   5.603  0.00  0.00     0.277 HD
ENDROOT
BRANCH   2  17
ATOM     17  C23 LPN d   1       5.412   5.220   3.788  0.00  0.00     0.227 C 
ATOM     18  O26 LPN d   1       5.027   4.139   4.198  0.00  0.00    -0.273 OA
ATOM     19  N27 LPN d   1       4.557   5.974   3.069  0.00  0.00    -0.343 N 
BRANCH  19  20
ATOM     20  C29 LPN d   1       4.865   7.273   2.428  0.00  0.00     0.015 A 
ATOM     21  C31 LPN d   1       5.218   8.337   3.461  0.00  0.00    -0.044 A 
ATOM     22  C32 LPN d   1       3.824   8.294   2.859  0.00  0.00    -0.044 A 
ATOM     23  H27 LPN d   1       5.906   9.153   3.197  0.00  0.00     0.036 H 
ATOM     24  H28 LPN d   1       5.372   8.053   4.513  0.00  0.00     0.036 H 
ATOM     25  H29 LPN d   1       2.969   7.980   3.475  0.00  0.00     0.036 H 
ATOM     26  H30 LPN d   1       3.503   9.080   2.160  0.00  0.00     0.036 H 
ATOM     27  H24 LPN d   1       5.313   7.209   1.425  0.00  0.00     0.072 H 
ENDBRANCH  19  20
BRANCH  19  28
ATOM     28  C30 LPN d   1       3.221   5.490   2.721  0.00  0.00     0.023 C 
ATOM     29  H25 LPN d   1       3.289   4.395   2.641  0.00  0.00     0.071 H 
ATOM     30  H26 LPN d   1       2.973   5.915   1.737  0.00  0.00     0.071 H 
BRANCH  28  31
ATOM     31  C33 LPN d   1       2.053   5.793   3.639  0.00  0.00    -0.018 A 
ATOM     32  C34 LPN d   1       0.779   5.568   3.130  0.00  0.00     0.042 A 
ATOM     33 CL36 LPN d   1       0.599   4.949   1.469  0.00  0.00    -0.084 Cl
ATOM     34  C37 LPN d   1      -0.362   5.827   3.872  0.00  0.00    -0.061 A 
ATOM     35  C39 LPN d   1      -0.209   6.316   5.164  0.00  0.00    -0.075 A 
ATOM     36  H32 LPN d   1      -1.348   5.653   3.456  0.00  0.00     0.086 H 
ATOM     37  C38 LPN d   1       1.060   6.543   5.682  0.00  0.00    -0.057 A 
ATOM     38  H33 LPN d   1      -1.084   6.521   5.770  0.00  0.00     0.084 H 
ATOM     39  C35 LPN d   1       2.204   6.288   4.931  0.00  0.00    -0.068 A 
ATOM     40  H31 LPN d   1       3.190   6.471   5.343  0.00  0.00     0.085 H 
BRANCH  37  41
ATOM     41  C40 LPN d   1       1.173   7.094   7.075  0.00  0.00    -0.039 C 
ATOM     42  H34 LPN d   1       2.140   6.815   7.518  0.00  0.00     0.040 H 
ATOM     43  H35 LPN d   1       0.357   6.709   7.704  0.00  0.00     0.040 H 
BRANCH  41  44
ATOM     44  C41 LPN d   1       1.070   8.605   6.945  0.00  0.00    -0.042 C 
ATOM     45  H36 LPN d   1       0.025   8.917   7.087  0.00  0.00     0.036 H 
ATOM     46  H37 LPN d   1       1.413   8.914   5.947  0.00  0.00     0.036 H 
BRANCH  44  47
ATOM     47  C42 LPN d   1       1.942   9.250   8.005  0.00  0.00     0.019 C 
ATOM     48  H38 LPN d   1       2.922   8.751   8.034  0.00  0.00     0.074 H 
ATOM     49  H39 LPN d   1       1.457   9.163   8.988  0.00  0.00     0.074 H 
BRANCH  47  50
ATOM     50  O43 LPN d   1       2.112  10.622   7.673  0.00  0.00    -0.396 OA
BRANCH  50  51
ATOM     51  C44 LPN d   1       2.100  11.450   8.833  0.00  0.00     0.004 C 
ATOM     52  H40 LPN d   1       2.234  12.500   8.535  0.00  0.00     0.066 H 
ATOM     53  H41 LPN d   1       2.919  11.152   9.505  0.00  0.00     0.066 H 
ATOM     54  H42 LPN d   1       1.138  11.336   9.355  0.00  0.00     0.066 H 
ENDBRANCH  50  51
ENDBRANCH  47  50
ENDBRANCH  44  47
ENDBRANCH  41  44
ENDBRANCH  37  41
ENDBRANCH  28  31
ENDBRANCH  19  28
ENDBRANCH   2  17
BRANCH   1  55
ATOM     55  C19 LPN d   1       7.340   5.007   1.738  0.00  0.00    -0.053 A 
ATOM     56  C17 LPN d   1       7.783   6.059   0.923  0.00  0.00    -0.074 A 
ATOM     57  C15 LPN d   1       7.271   6.207  -0.366  0.00  0.00    -0.050 A 
ATOM     58  H12 LPN d   1       8.524   6.758   1.295  0.00  0.00     0.084 H 
ATOM     59  C14 LPN d   1       6.328   5.300  -0.860  0.00  0.00     0.068 A 
ATOM     60  H10 LPN d   1       7.606   7.029  -0.988  0.00  0.00     0.087 H 
ATOM     61  C16 LPN d   1       5.843   4.277  -0.040  0.00  0.00    -0.050 A 
ATOM     62  C18 LPN d   1       6.364   4.124   1.243  0.00  0.00    -0.074 A 
ATOM     63  H11 LPN d   1       5.069   3.609  -0.399  0.00  0.00     0.087 H 
ATOM     64  H13 LPN d   1       6.012   3.312   1.869  0.00  0.00     0.084 H 
BRANCH  59  65
ATOM     65  O13 LPN d   1       5.782   5.546  -2.093  0.00  0.00    -0.349 OA
BRANCH  65  66
ATOM     66  C12 LPN d   1       6.169   5.470  -3.442  0.00  0.00     0.046 C 
ATOM     67  H8  LPN d   1       7.220   5.771  -3.567  0.00  0.00     0.078 H 
ATOM     68  H9  LPN d   1       6.030   4.452  -3.834  0.00  0.00     0.078 H 
BRANCH  66  69
ATOM     69  C8  LPN d   1       5.224   6.465  -4.144  0.00  0.00     0.046 C 
ATOM     70  H2  LPN d   1       5.804   6.986  -4.920  0.00  0.00     0.078 H 
ATOM     71  H3  LPN d   1       4.418   5.884  -4.616  0.00  0.00     0.078 H 
BRANCH  69  72
ATOM     72  O5  LPN d   1       4.605   7.475  -3.305  0.00  0.00    -0.346 OA
BRANCH  72  73
ATOM     73  C3  LPN d   1       3.227   7.657  -3.224  0.00  0.00     0.112 A 
ATOM     74  C2  LPN d   1       2.450   8.128  -4.277  0.00  0.00     0.069 A 
ATOM     75 CL1  LPN d   1       3.170   8.552  -5.850  0.00  0.00    -0.081 Cl
ATOM     76  C4  LPN d   1       1.072   8.284  -4.149  0.00  0.00    -0.053 A 
ATOM     77  C7  LPN d   1       0.435   7.979  -2.955  0.00  0.00    -0.059 A 
ATOM     78  H1  LPN d   1       0.492   8.647  -4.990  0.00  0.00     0.087 H 
ATOM     79  C10 LPN d   1       1.191   7.520  -1.879  0.00  0.00    -0.053 A 
ATOM     80  C6  LPN d   1       2.573   7.370  -2.034  0.00  0.00     0.069 A 
ATOM     81  H4  LPN d   1       0.715   7.282  -0.935  0.00  0.00     0.087 H 
ATOM     82 CL9  LPN d   1       3.552   6.776  -0.674  0.00  0.00    -0.081 Cl
BRANCH  77  83
ATOM     83  C11 LPN d   1      -1.048   8.160  -2.838  0.00  0.00    -0.051 C 
ATOM     84  H5  LPN d   1      -1.449   8.528  -3.794  0.00  0.00     0.033 H 
ATOM     85  H6  LPN d   1      -1.267   8.889  -2.044  0.00  0.00     0.033 H 
ATOM     86  H7  LPN d   1      -1.517   7.196  -2.591  0.00  0.00     0.033 H 
ENDBRANCH  77  83
ENDBRANCH  72  73
ENDBRANCH  69  72
ENDBRANCH  66  69
ENDBRANCH  65  66
ENDBRANCH  59  65
ENDBRANCH   1  55
TORSDOF 16
