REMARK  10 active torsions:
REMARK  status: ('A' for Active; 'I' for Inactive)
REMARK    1  A    between atoms: C5_2  and  C4_1 
REMARK    2  A    between atoms: C4_1  and  C2_20 
REMARK    3  A    between atoms: C7_3  and  C8_4 
REMARK    4  A    between atoms: C12_14  and  C13_5 
REMARK    5  A    between atoms: C17_6  and  C18_18 
REMARK    6  A    between atoms: C20_7  and  C16_15 
REMARK    7  A    between atoms: C23_16  and  C24_10 
REMARK    8  A    between atoms: C18_18  and  N19_19 
REMARK    9  A    between atoms: C2_20  and  C1_21 
REMARK   10  A    between atoms: C2_20  and  C3_22 
ROOT
ATOM      1  C5  10T d   1      44.656  34.767  17.300  0.00  0.00     0.044 A 
ATOM      2  C7  10T d   1      44.227  32.707  16.245  0.00  0.00     0.049 A 
ATOM      3  C17 10T d   1      43.481  35.313  16.791  0.00  0.00     0.004 A 
ATOM      4  C12 10T d   1      43.044  33.214  15.711  0.00  0.00     0.076 A 
ATOM      5  C16 10T d   1      42.674  34.515  15.971  0.00  0.00     0.003 A 
ATOM      6  N6  10T d   1      44.988  33.494  17.023  0.00  0.00    -0.257 NA
ENDROOT
BRANCH   5   7
ATOM      7  C20 10T d   1      41.390  35.020  15.379  0.00  0.00    -0.024 A 
ATOM      8  C21 10T d   1      41.384  35.993  14.374  0.00  0.00    -0.072 A 
ATOM      9  C22 10T d   1      40.180  36.464  13.845  0.00  0.00    -0.076 A 
ATOM     10  H   10T d   1      42.329  36.388  14.000  0.00  0.00     0.084 H 
ATOM     11  C23 10T d   1      38.970  35.955  14.309  0.00  0.00    -0.062 A 
ATOM     12  H   10T d   1      40.188  37.230  13.069  0.00  0.00     0.084 H 
ATOM     13  C25 10T d   1      38.973  34.988  15.303  0.00  0.00    -0.076 A 
ATOM     14  C26 10T d   1      40.175  34.515  15.837  0.00  0.00    -0.072 A 
ATOM     15  H   10T d   1      38.027  34.592  15.672  0.00  0.00     0.084 H 
ATOM     16  H   10T d   1      40.162  33.750  16.613  0.00  0.00     0.084 H 
BRANCH  11  17
ATOM     17  C24 10T d   1      37.668  36.438  13.746  0.00  0.00    -0.051 C 
ATOM     18  H   10T d   1      37.576  37.511  13.915  0.00  0.00     0.033 H 
ATOM     19  H   10T d   1      37.638  36.234  12.676  0.00  0.00     0.033 H 
ATOM     20  H   10T d   1      36.846  35.920  14.239  0.00  0.00     0.033 H 
ENDBRANCH  11  17
ENDBRANCH   5   7
BRANCH   3  21
ATOM     21  C18 10T d   1      43.060  36.750  17.095  0.00  0.00     0.106 C 
ATOM     22  H   10T d   1      42.975  37.298  16.157  0.00  0.00     0.082 H 
ATOM     23  H   10T d   1      43.809  37.207  17.742  0.00  0.00     0.082 H 
BRANCH  21  24
ATOM     24  N19 10T d   1      41.773  36.776  17.773  0.00  0.00    -0.075 N 
ATOM     25  H   10T d   1      41.511  37.743  17.966  0.00  0.00     0.274 HD
ATOM     26  H   10T d   1      41.067  36.344  17.177  0.00  0.00     0.274 HD
ATOM     27  H   10T d   1      41.842  36.259  18.650  0.00  0.00     0.274 HD
ENDBRANCH  21  24
ENDBRANCH   3  21
BRANCH   4  28
ATOM     28  C13 10T d   1      42.145  32.382  14.842  0.00  0.00     0.212 C 
ATOM     29  O14 10T d   1      41.567  31.364  15.346  0.00  0.00    -0.644 OA
ATOM     30  O15 10T d   1      42.010  32.763  13.648  0.00  0.00    -0.644 OA
ENDBRANCH   4  28
BRANCH   1  31
ATOM     31  C4  10T d   1      45.613  35.511  18.208  0.00  0.00    -0.021 C 
ATOM     32  H   10T d   1      46.232  34.758  18.696  0.00  0.00     0.043 H 
ATOM     33  H   10T d   1      45.003  36.114  18.881  0.00  0.00     0.043 H 
BRANCH  31  34
ATOM     34  C2  10T d   1      46.562  36.468  17.499  0.00  0.00    -0.056 C 
ATOM     35  H   10T d   1      46.003  37.273  17.022  0.00  0.00     0.039 H 
BRANCH  34  36
ATOM     36  C1  10T d   1      47.495  37.054  18.551  0.00  0.00    -0.073 C 
ATOM     37  H   10T d   1      48.100  36.257  18.983  0.00  0.00     0.028 H 
ATOM     38  H   10T d   1      48.146  37.795  18.086  0.00  0.00     0.028 H 
ATOM     39  H   10T d   1      46.904  37.529  19.335  0.00  0.00     0.028 H 
ENDBRANCH  34  36
BRANCH  34  40
ATOM     40  C3  10T d   1      47.311  35.784  16.364  0.00  0.00    -0.073 C 
ATOM     41  H   10T d   1      47.959  36.508  15.870  0.00  0.00     0.028 H 
ATOM     42  H   10T d   1      47.914  34.970  16.767  0.00  0.00     0.028 H 
ATOM     43  H   10T d   1      46.594  35.386  15.645  0.00  0.00     0.028 H 
ENDBRANCH  34  40
ENDBRANCH  31  34
ENDBRANCH   1  31
BRANCH   2  44
ATOM     44  C8  10T d   1      44.681  31.286  15.980  0.00  0.00    -0.034 C 
ATOM     45  H   10T d   1      45.654  31.302  15.489  0.00  0.00     0.035 H 
ATOM     46  H   10T d   1      44.759  30.748  16.925  0.00  0.00     0.035 H 
ATOM     47  H   10T d   1      43.956  30.788  15.336  0.00  0.00     0.035 H 
ENDBRANCH   2  44
TORSDOF 10
