REMARK  16 active torsions:
REMARK  status: ('A' for Active; 'I' for Inactive)
REMARK    1  A    between atoms: C5_5  and  C7_7 
REMARK    2  A    between atoms: C6_6  and  O9_9 
REMARK    3  A    between atoms: C6_6  and  C10_10 
REMARK       I    between atoms: C7_7  and  N8_8 
REMARK    4  A    between atoms: N8_8  and  C30_30 
REMARK    5  A    between atoms: N8_8  and  C31_31 
REMARK    6  A    between atoms: C13_13  and  O16_16 
REMARK    7  A    between atoms: O16_16  and  C17_17 
REMARK    8  A    between atoms: C17_17  and  C18_18 
REMARK    9  A    between atoms: C18_18  and  O19_19 
REMARK   10  A    between atoms: O19_19  and  C20_20 
REMARK   11  A    between atoms: C23_23  and  C28_28 
REMARK   12  A    between atoms: C30_30  and  C32_32 
REMARK   13  A    between atoms: C34_34  and  C41_41 
REMARK   14  A    between atoms: C41_41  and  C42_42 
REMARK   15  A    between atoms: C42_42  and  O43_43 
REMARK   16  A    between atoms: O43_43  and  C44_44 
ROOT
ATOM      1  C1  LPO d   1      24.406  -6.215   2.766  0.00  0.00    -0.009 C 
ATOM      2  C2  LPO d   1      23.917  -6.226   4.206  0.00  0.00     0.085 C 
ATOM      3  N3  LPO d   1      24.831  -6.816   5.176  0.00  0.00    -0.074 N 
ATOM      4  C4  LPO d   1      26.276  -6.732   5.090  0.00  0.00     0.096 C 
ATOM      5  C5  LPO d   1      26.745  -6.838   3.650  0.00  0.00     0.081 C 
ATOM      6  C6  LPO d   1      25.903  -5.953   2.708  0.00  0.00     0.101 C 
ATOM      7  H1  LPO d   1      23.879  -5.424   2.212  0.00  0.00     0.040 H 
ATOM      8  H2  LPO d   1      24.192  -7.190   2.305  0.00  0.00     0.040 H 
ATOM      9  H3  LPO d   1      22.975  -6.793   4.239  0.00  0.00     0.075 H 
ATOM     10  H4  LPO d   1      23.729  -5.185   4.508  0.00  0.00     0.075 H 
ATOM     11  H5  LPO d   1      24.616  -7.801   5.189  0.00  0.00     0.277 HD
ATOM     12  H6  LPO d   1      24.587  -6.407   6.064  0.00  0.00     0.277 HD
ATOM     13  H7  LPO d   1      26.719  -7.553   5.673  0.00  0.00     0.077 H 
ATOM     14  H8  LPO d   1      26.605  -5.768   5.505  0.00  0.00     0.077 H 
ATOM     15  H9  LPO d   1      26.657  -7.888   3.333  0.00  0.00     0.062 H 
ENDROOT
BRANCH   5  16
ATOM     16  C7  LPO d   1      28.189  -6.394   3.514  0.00  0.00     0.229 C 
ATOM     17  N8  LPO d   1      29.047  -7.106   2.756  0.00  0.00    -0.343 N 
ATOM     18  O29 LPO d   1      28.557  -5.358   4.084  0.00  0.00    -0.273 OA
BRANCH  17  19
ATOM     19  C30 LPO d   1      30.426  -6.664   2.547  0.00  0.00     0.023 C 
ATOM     20  H23 LPO d   1      30.413  -5.565   2.506  0.00  0.00     0.071 H 
ATOM     21  H24 LPO d   1      30.752  -7.063   1.575  0.00  0.00     0.071 H 
BRANCH  19  22
ATOM     22  C32 LPO d   1      31.473  -7.062   3.568  0.00  0.00    -0.018 A 
ATOM     23  C33 LPO d   1      31.204  -7.781   4.729  0.00  0.00    -0.068 A 
ATOM     24  C34 LPO d   1      32.224  -8.133   5.619  0.00  0.00    -0.056 A 
ATOM     25  H26 LPO d   1      30.184  -8.074   4.948  0.00  0.00     0.085 H 
ATOM     26  C35 LPO d   1      33.533  -7.777   5.360  0.00  0.00    -0.075 A 
ATOM     27  C36 LPO d   1      33.807  -7.077   4.199  0.00  0.00    -0.061 A 
ATOM     28  H27 LPO d   1      34.327  -8.040   6.050  0.00  0.00     0.084 H 
ATOM     29  C37 LPO d   1      32.778  -6.712   3.322  0.00  0.00     0.042 A 
ATOM     30  H28 LPO d   1      34.831  -6.808   3.965  0.00  0.00     0.086 H 
ATOM     31 CL40 LPO d   1      33.174  -5.805   1.823  0.00  0.00    -0.084 Cl
BRANCH  24  32
ATOM     32  C41 LPO d   1      31.920  -8.935   6.870  0.00  0.00    -0.021 C 
ATOM     33  H33 LPO d   1      30.877  -8.778   7.183  0.00  0.00     0.043 H 
ATOM     34  H34 LPO d   1      32.596  -8.643   7.687  0.00  0.00     0.043 H 
BRANCH  32  35
ATOM     35  C42 LPO d   1      32.149 -10.402   6.485  0.00  0.00     0.023 C 
ATOM     36  H35 LPO d   1      33.225 -10.531   6.299  0.00  0.00     0.074 H 
ATOM     37  H36 LPO d   1      31.591 -10.592   5.556  0.00  0.00     0.074 H 
BRANCH  35  38
ATOM     38  O43 LPO d   1      31.753 -11.398   7.438  0.00  0.00    -0.396 OA
BRANCH  38  39
ATOM     39  C44 LPO d   1      30.707 -11.030   8.350  0.00  0.00     0.004 C 
ATOM     40  H37 LPO d   1      30.496 -11.873   9.025  0.00  0.00     0.066 H 
ATOM     41  H38 LPO d   1      29.799 -10.777   7.784  0.00  0.00     0.066 H 
ATOM     42  H39 LPO d   1      31.025 -10.158   8.940  0.00  0.00     0.066 H 
ENDBRANCH  38  39
ENDBRANCH  35  38
ENDBRANCH  32  35
ENDBRANCH  24  32
ENDBRANCH  19  22
ENDBRANCH  17  19
BRANCH  17  43
ATOM     43  C31 LPO d   1      28.670  -8.337   1.992  0.00  0.00     0.015 A 
ATOM     44  C38 LPO d   1      28.244  -9.463   2.925  0.00  0.00    -0.044 A 
ATOM     45  C39 LPO d   1      29.611  -9.521   2.263  0.00  0.00    -0.044 A 
ATOM     46  H29 LPO d   1      27.454 -10.163   2.615  0.00  0.00     0.036 H 
ATOM     47  H30 LPO d   1      28.166  -9.279   4.007  0.00  0.00     0.036 H 
ATOM     48  H31 LPO d   1      30.520  -9.375   2.864  0.00  0.00     0.036 H 
ATOM     49  H32 LPO d   1      29.809 -10.259   1.472  0.00  0.00     0.036 H 
ATOM     50  H25 LPO d   1      28.208  -8.137   1.014  0.00  0.00     0.072 H 
ENDBRANCH  17  43
ENDBRANCH   5  16
BRANCH   6  51
ATOM     51  O9  LPO d   1      26.193  -4.596   3.071  0.00  0.00    -0.384 OA
ATOM     52  H10 LPO d   1      27.122  -4.431   2.958  0.00  0.00     0.211 HD
ENDBRANCH   6  51
BRANCH   6  53
ATOM     53  C10 LPO d   1      26.373  -6.155   1.299  0.00  0.00    -0.005 A 
ATOM     54  C11 LPO d   1      25.853  -7.148   0.457  0.00  0.00     0.014 A 
ATOM     55  N12 LPO d   1      26.310  -7.291  -0.792  0.00  0.00    -0.236 NA
ATOM     56  H11 LPO d   1      25.073  -7.806   0.822  0.00  0.00     0.115 H 
ATOM     57  C13 LPO d   1      27.318  -6.480  -1.249  0.00  0.00     0.164 A 
ATOM     58  C14 LPO d   1      27.860  -5.493  -0.444  0.00  0.00    -0.031 A 
ATOM     59  C15 LPO d   1      27.375  -5.309   0.848  0.00  0.00    -0.068 A 
ATOM     60  H12 LPO d   1      28.660  -4.865  -0.819  0.00  0.00     0.090 H 
ATOM     61  H13 LPO d   1      27.770  -4.525   1.484  0.00  0.00     0.084 H 
BRANCH  57  62
ATOM     62  O16 LPO d   1      27.843  -6.563  -2.509  0.00  0.00    -0.332 OA
BRANCH  62  63
ATOM     63  C17 LPO d   1      27.640  -7.657  -3.378  0.00  0.00     0.048 C 
ATOM     64  H14 LPO d   1      26.857  -7.424  -4.114  0.00  0.00     0.078 H 
ATOM     65  H15 LPO d   1      27.353  -8.553  -2.808  0.00  0.00     0.078 H 
BRANCH  63  66
ATOM     66  C18 LPO d   1      28.970  -7.873  -4.070  0.00  0.00     0.046 C 
ATOM     67  H16 LPO d   1      29.604  -6.981  -3.964  0.00  0.00     0.078 H 
ATOM     68  H17 LPO d   1      28.814  -8.088  -5.138  0.00  0.00     0.078 H 
BRANCH  66  69
ATOM     69  O19 LPO d   1      29.575  -8.987  -3.426  0.00  0.00    -0.346 OA
BRANCH  69  70
ATOM     70  C20 LPO d   1      30.929  -9.139  -3.429  0.00  0.00     0.112 A 
ATOM     71  C21 LPO d   1      31.623  -9.518  -4.560  0.00  0.00     0.069 A 
ATOM     72  C22 LPO d   1      33.005  -9.651  -4.503  0.00  0.00    -0.053 A 
ATOM     73 CL27 LPO d   1      30.727  -9.844  -6.071  0.00  0.00    -0.081 Cl
ATOM     74  C23 LPO d   1      33.672  -9.426  -3.304  0.00  0.00    -0.059 A 
ATOM     75  H18 LPO d   1      33.561  -9.929  -5.391  0.00  0.00     0.087 H 
ATOM     76  C24 LPO d   1      32.965  -9.050  -2.161  0.00  0.00    -0.053 A 
ATOM     77  C25 LPO d   1      31.585  -8.924  -2.244  0.00  0.00     0.069 A 
ATOM     78  H19 LPO d   1      33.483  -8.860  -1.228  0.00  0.00     0.087 H 
ATOM     79 CL26 LPO d   1      30.573  -8.471  -0.853  0.00  0.00    -0.081 Cl
BRANCH  74  80
ATOM     80  C28 LPO d   1      35.165  -9.570  -3.235  0.00  0.00    -0.051 C 
ATOM     81  H20 LPO d   1      35.550  -9.870  -4.221  0.00  0.00     0.033 H 
ATOM     82  H21 LPO d   1      35.425 -10.337  -2.491  0.00  0.00     0.033 H 
ATOM     83  H22 LPO d   1      35.613  -8.609  -2.943  0.00  0.00     0.033 H 
ENDBRANCH  74  80
ENDBRANCH  69  70
ENDBRANCH  66  69
ENDBRANCH  63  66
ENDBRANCH  62  63
ENDBRANCH  57  62
ENDBRANCH   6  53
TORSDOF 16
