REMARK  14 active torsions:
REMARK  status: ('A' for Active; 'I' for Inactive)
REMARK    1  A    between atoms: C5_5  and  C15_15 
REMARK    2  A    between atoms: C6_6  and  C7_7 
REMARK    3  A    between atoms: C10_10  and  O13_13 
REMARK    4  A    between atoms: O13_13  and  C14_14 
REMARK    5  A    between atoms: C14_14  and  C18_18 
REMARK       I    between atoms: C15_15  and  N17_17 
REMARK    6  A    between atoms: N17_17  and  C29_29 
REMARK    7  A    between atoms: N17_17  and  C30_30 
REMARK    8  A    between atoms: C18_18  and  O19_19 
REMARK    9  A    between atoms: O19_19  and  C20_20 
REMARK   10  A    between atoms: C23_23  and  C28_28 
REMARK   11  A    between atoms: C29_29  and  C31_31 
REMARK   12  A    between atoms: C33_33  and  C38_38 
REMARK   13  A    between atoms: C38_38  and  N39_39 
REMARK   14  A    between atoms: N39_39  and  C42_42 
ROOT
ATOM      1  C1  LPQ d   1      24.523  -6.044   2.949  0.00  0.00    -0.035 C 
ATOM      2  C2  LPQ d   1      24.143  -6.355   4.402  0.00  0.00     0.082 C 
ATOM      3  N3  LPQ d   1      25.164  -7.042   5.171  0.00  0.00    -0.074 N 
ATOM      4  C4  LPQ d   1      26.534  -6.542   5.081  0.00  0.00     0.093 C 
ATOM      5  C5  LPQ d   1      26.958  -6.563   3.608  0.00  0.00     0.054 C 
ATOM      6  C6  LPQ d   1      26.003  -5.714   2.733  0.00  0.00    -0.012 C 
ATOM      7  H1  LPQ d   1      23.927  -5.181   2.616  0.00  0.00     0.036 H 
ATOM      8  H2  LPQ d   1      24.274  -6.921   2.334  0.00  0.00     0.036 H 
ATOM      9  H3  LPQ d   1      23.242  -6.986   4.391  0.00  0.00     0.075 H 
ATOM     10  H4  LPQ d   1      23.918  -5.404   4.907  0.00  0.00     0.075 H 
ATOM     11  H5  LPQ d   1      25.174  -8.003   4.867  0.00  0.00     0.277 HD
ATOM     12  H6  LPQ d   1      24.891  -6.999   6.140  0.00  0.00     0.277 HD
ATOM     13  H7  LPQ d   1      27.204  -7.185   5.670  0.00  0.00     0.076 H 
ATOM     14  H8  LPQ d   1      26.581  -5.513   5.467  0.00  0.00     0.076 H 
ATOM     15  H9  LPQ d   1      26.865  -7.610   3.285  0.00  0.00     0.058 H 
ATOM     16  H10 LPQ d   1      26.148  -4.653   2.986  0.00  0.00     0.049 H 
ENDROOT
BRANCH   5  17
ATOM     17  C15 LPQ d   1      28.377  -6.137   3.284  0.00  0.00     0.227 C 
ATOM     18  O16 LPQ d   1      28.751  -5.035   3.670  0.00  0.00    -0.273 OA
ATOM     19  N17 LPQ d   1      29.176  -6.938   2.536  0.00  0.00    -0.343 N 
BRANCH  19  20
ATOM     20  C29 LPQ d   1      30.513  -6.574   2.041  0.00  0.00     0.023 C 
ATOM     21  H23 LPQ d   1      30.432  -5.537   1.684  0.00  0.00     0.071 H 
ATOM     22  H24 LPQ d   1      30.712  -7.240   1.189  0.00  0.00     0.071 H 
BRANCH  20  23
ATOM     23  C31 LPQ d   1      31.750  -6.621   2.903  0.00  0.00    -0.018 A 
ATOM     24  C32 LPQ d   1      31.662  -6.833   4.267  0.00  0.00    -0.066 A 
ATOM     25  C33 LPQ d   1      32.820  -6.868   5.031  0.00  0.00    -0.032 A 
ATOM     26  H26 LPQ d   1      30.695  -6.971   4.736  0.00  0.00     0.085 H 
ATOM     27  C34 LPQ d   1      34.069  -6.694   4.447  0.00  0.00    -0.074 A 
ATOM     28  C35 LPQ d   1      34.161  -6.487   3.073  0.00  0.00    -0.061 A 
ATOM     29  H27 LPQ d   1      34.965  -6.719   5.057  0.00  0.00     0.084 H 
ATOM     30  C36 LPQ d   1      33.000  -6.452   2.309  0.00  0.00     0.042 A 
ATOM     31  H28 LPQ d   1      35.129  -6.354   2.603  0.00  0.00     0.086 H 
ATOM     32 CL37 LPQ d   1      33.170  -6.184   0.544  0.00  0.00    -0.084 Cl
BRANCH  25  33
ATOM     33  C38 LPQ d   1      32.709  -7.076   6.516  0.00  0.00     0.106 C 
ATOM     34  H29 LPQ d   1      33.577  -7.650   6.872  0.00  0.00     0.083 H 
ATOM     35  H30 LPQ d   1      31.785  -7.630   6.741  0.00  0.00     0.083 H 
BRANCH  33  36
ATOM     36  N39 LPQ d   1      32.675  -5.773   7.188  0.00  0.00    -0.067 N 
ATOM     37  H31 LPQ d   1      33.538  -5.314   6.941  0.00  0.00     0.277 HD
ATOM     38  H32 LPQ d   1      32.672  -5.974   8.176  0.00  0.00     0.277 HD
BRANCH  36  39
ATOM     39  C42 LPQ d   1      31.618  -4.775   6.979  0.00  0.00     0.102 A 
ATOM     40  C43 LPQ d   1      30.926  -4.406   8.291  0.00  0.00    -0.036 A 
ATOM     41  C44 LPQ d   1      30.226  -5.318   7.285  0.00  0.00    -0.036 A 
ATOM     42  H38 LPQ d   1      30.561  -3.381   8.451  0.00  0.00     0.036 H 
ATOM     43  H39 LPQ d   1      31.295  -4.817   9.242  0.00  0.00     0.036 H 
ATOM     44  H40 LPQ d   1      30.090  -6.386   7.513  0.00  0.00     0.036 H 
ATOM     45  H41 LPQ d   1      29.356  -4.950   6.722  0.00  0.00     0.036 H 
ATOM     46  H37 LPQ d   1      31.828  -4.058   6.172  0.00  0.00     0.084 H 
ENDBRANCH  36  39
ENDBRANCH  33  36
ENDBRANCH  25  33
ENDBRANCH  20  23
ENDBRANCH  19  20
BRANCH  19  47
ATOM     47  C30 LPQ d   1      28.756  -8.248   1.984  0.00  0.00     0.015 A 
ATOM     48  C40 LPQ d   1      28.507  -9.261   3.098  0.00  0.00    -0.044 A 
ATOM     49  C41 LPQ d   1      29.803  -9.324   2.313  0.00  0.00    -0.044 A 
ATOM     50  H33 LPQ d   1      27.747 -10.046   2.966  0.00  0.00     0.036 H 
ATOM     51  H34 LPQ d   1      28.518  -8.934   4.148  0.00  0.00     0.036 H 
ATOM     52  H35 LPQ d   1      30.751  -9.040   2.793  0.00  0.00     0.036 H 
ATOM     53  H36 LPQ d   1      29.981 -10.152   1.610  0.00  0.00     0.036 H 
ATOM     54  H25 LPQ d   1      28.181  -8.197   1.048  0.00  0.00     0.072 H 
ENDBRANCH  19  47
ENDBRANCH   5  17
BRANCH   6  55
ATOM     55  C7  LPQ d   1      26.406  -5.933   1.308  0.00  0.00    -0.035 A 
ATOM     56  C8  LPQ d   1      25.884  -6.964   0.515  0.00  0.00     0.011 A 
ATOM     57  N9  LPQ d   1      26.298  -7.133  -0.757  0.00  0.00    -0.237 NA
ATOM     58  H11 LPQ d   1      25.139  -7.633   0.929  0.00  0.00     0.115 H 
ATOM     59  C10 LPQ d   1      27.255  -6.334  -1.305  0.00  0.00     0.164 A 
ATOM     60  C11 LPQ d   1      27.808  -5.307  -0.549  0.00  0.00    -0.031 A 
ATOM     61  C12 LPQ d   1      27.386  -5.107   0.758  0.00  0.00    -0.071 A 
ATOM     62  H12 LPQ d   1      28.567  -4.664  -0.979  0.00  0.00     0.090 H 
ATOM     63  H13 LPQ d   1      27.818  -4.309   1.351  0.00  0.00     0.084 H 
BRANCH  59  64
ATOM     64  O13 LPQ d   1      27.715  -6.478  -2.596  0.00  0.00    -0.332 OA
BRANCH  64  65
ATOM     65  C14 LPQ d   1      27.598  -7.675  -3.360  0.00  0.00     0.048 C 
ATOM     66  H14 LPQ d   1      26.750  -7.585  -4.055  0.00  0.00     0.078 H 
ATOM     67  H15 LPQ d   1      27.430  -8.526  -2.684  0.00  0.00     0.078 H 
BRANCH  65  68
ATOM     68  C18 LPQ d   1      28.881  -7.900  -4.151  0.00  0.00     0.046 C 
ATOM     69  H16 LPQ d   1      29.588  -7.082  -3.948  0.00  0.00     0.078 H 
ATOM     70  H17 LPQ d   1      28.651  -7.927  -5.226  0.00  0.00     0.078 H 
BRANCH  68  71
ATOM     71  O19 LPQ d   1      29.464  -9.150  -3.752  0.00  0.00    -0.346 OA
BRANCH  71  72
ATOM     72  C20 LPQ d   1      30.819  -9.203  -3.571  0.00  0.00     0.112 A 
ATOM     73  C21 LPQ d   1      31.633  -9.490  -4.645  0.00  0.00     0.069 A 
ATOM     74  C22 LPQ d   1      33.018  -9.531  -4.506  0.00  0.00    -0.053 A 
ATOM     75 CL26 LPQ d   1      30.850  -9.811  -6.203  0.00  0.00    -0.081 Cl
ATOM     76  C23 LPQ d   1      33.579  -9.296  -3.256  0.00  0.00    -0.059 A 
ATOM     77  H18 LPQ d   1      33.650  -9.743  -5.361  0.00  0.00     0.087 H 
ATOM     78  C24 LPQ d   1      32.769  -9.008  -2.166  0.00  0.00    -0.053 A 
ATOM     79  C25 LPQ d   1      31.390  -8.961  -2.334  0.00  0.00     0.069 A 
ATOM     80  H19 LPQ d   1      33.208  -8.821  -1.193  0.00  0.00     0.087 H 
ATOM     81 CL27 LPQ d   1      30.327  -8.594  -0.954  0.00  0.00    -0.081 Cl
BRANCH  76  82
ATOM     82  C28 LPQ d   1      35.070  -9.347  -3.083  0.00  0.00    -0.051 C 
ATOM     83  H20 LPQ d   1      35.543  -9.587  -4.047  0.00  0.00     0.033 H 
ATOM     84  H21 LPQ d   1      35.327 -10.121  -2.345  0.00  0.00     0.033 H 
ATOM     85  H22 LPQ d   1      35.432  -8.370  -2.730  0.00  0.00     0.033 H 
ENDBRANCH  76  82
ENDBRANCH  71  72
ENDBRANCH  68  71
ENDBRANCH  65  68
ENDBRANCH  64  65
ENDBRANCH  59  64
ENDBRANCH   6  55
TORSDOF 14
