REMARK WARNING: 32 MAX_TORS EXCEEDED!!!
REMARK  61 active torsions:
REMARK  status: ('A' for Active; 'I' for Inactive)
REMARK    1  A    between atoms: N_1  and  CA_2 
REMARK    2  A    between atoms: CA_2  and  C_3 
REMARK    3  A    between atoms: CA_2  and  CB_5 
REMARK       I    between atoms: C_3  and  N_10 
REMARK    4  A    between atoms: CB_5  and  CG_6 
REMARK    5  A    between atoms: CG_6  and  CD_7 
REMARK    6  A    between atoms: CD_7  and  CE_8 
REMARK    7  A    between atoms: CE_8  and  NZ_9 
REMARK    8  A    between atoms: N_10  and  CA_11 
REMARK    9  A    between atoms: CA_11  and  C_12 
REMARK   10  A    between atoms: CA_11  and  CB_14 
REMARK       I    between atoms: C_12  and  N_20 
REMARK   11  A    between atoms: CB_14  and  CG_15 
REMARK   12  A    between atoms: N_20  and  CA_21 
REMARK   13  A    between atoms: CA_21  and  C_22 
REMARK   14  A    between atoms: CA_21  and  CB_24 
REMARK       I    between atoms: C_22  and  N_29 
REMARK   15  A    between atoms: CB_24  and  CG_25 
REMARK   16  A    between atoms: CG_25  and  CD_26 
REMARK   17  A    between atoms: CD_26  and  CE_27 
REMARK   18  A    between atoms: CE_27  and  NZ_28 
REMARK   19  A    between atoms: N_29  and  CA_30 
REMARK   20  A    between atoms: CA_30  and  C_31 
REMARK   21  A    between atoms: CA_30  and  CB_33 
REMARK       I    between atoms: C_31  and  N_37 
REMARK   22  A    between atoms: CB_33  and  CG1_34 
REMARK   23  A    between atoms: CB_33  and  CG2_35 
REMARK   24  A    between atoms: CG1_34  and  CD1_36 
REMARK   25  A    between atoms: N_37  and  CA_38 
REMARK   26  A    between atoms: CA_38  and  C_39 
REMARK   27  A    between atoms: CA_38  and  CB_41 
REMARK       I    between atoms: C_39  and  N_45 
REMARK   28  A    between atoms: CB_41  and  CG_42 
REMARK   29  A    between atoms: CG_42  and  CD1_43 
REMARK   30  A    between atoms: CG_42  and  CD2_44 
REMARK   31  A    between atoms: N_45  and  CA_46 
REMARK   32  A    between atoms: CA_46  and  C_47 
REMARK   33  A    between atoms: CA_46  and  CB_49 
REMARK       I    between atoms: C_47  and  N_55 
REMARK   34  A    between atoms: CB_49  and  CG_50 
REMARK   35  A    between atoms: N_55  and  CA_56 
REMARK   36  A    between atoms: CA_56  and  C_57 
REMARK   37  A    between atoms: CA_56  and  CB_59 
REMARK       I    between atoms: C_57  and  N_66 
REMARK   38  A    between atoms: CB_59  and  CG_60 
REMARK   39  A    between atoms: CG_60  and  CD_61 
REMARK   40  A    between atoms: CD_61  and  NE_62 
REMARK       I    between atoms: NE_62  and  CZ_63 
REMARK       I    between atoms: CZ_63  and  NH1_64 
REMARK   41  A    between atoms: N_66  and  CA_67 
REMARK   42  A    between atoms: CA_67  and  C_68 
REMARK   43  A    between atoms: CA_67  and  CB_70 
REMARK       I    between atoms: C_68  and  N_74 
REMARK   44  A    between atoms: CB_70  and  CG_71 
REMARK   45  A    between atoms: CG_71  and  CD1_72 
REMARK   46  A    between atoms: CG_71  and  CD2_73 
REMARK   47  A    between atoms: N_74  and  CA_75 
REMARK   48  A    between atoms: CA_75  and  C_76 
REMARK   49  A    between atoms: CA_75  and  CB_78 
REMARK       I    between atoms: C_76  and  N_82 
REMARK   50  A    between atoms: CB_78  and  CG_79 
REMARK   51  A    between atoms: CG_79  and  CD1_80 
REMARK   52  A    between atoms: CG_79  and  CD2_81 
REMARK   53  A    between atoms: N_82  and  CA_83 
REMARK   54  A    between atoms: CA_83  and  C_84 
REMARK   55  A    between atoms: CA_83  and  CB_86 
REMARK       I    between atoms: C_84  and  N_91 
REMARK   56  A    between atoms: CB_86  and  CG_87 
REMARK   57  A    between atoms: CG_87  and  CD_88 
REMARK       I    between atoms: CD_88  and  NE2_90 
REMARK   58  A    between atoms: N_91  and  CA_92 
REMARK   59  A    between atoms: CA_92  and  C_93 
REMARK   60  A    between atoms: CA_92  and  CB_95 
REMARK   61  A    between atoms: CB_95  and  CG_96 
ROOT
ATOM      1  CA  HIS d   1      59.138  46.263   8.448  0.00  0.00     0.094 C 
ATOM      2  H   HIS d   1      58.980  47.341   8.468  0.00  0.00     0.088 H 
ENDROOT
BRANCH   1   3
ATOM      3  N   HIS d   1      59.680  45.899   9.759  0.00  0.00    -0.346 N 
ATOM      4  C   LEU d   1      58.987  46.141  10.869  0.00  0.00     0.241 C 
ATOM      5  O   LEU d   1      57.879  46.676  10.846  0.00  0.00    -0.271 OA
ATOM      6  H   HIS d   1      60.597  45.456   9.822  0.00  0.00     0.163 HD
BRANCH   4   7
ATOM      7  CA  LEU d   1      59.612  45.718  12.202  0.00  0.00     0.089 C 
ATOM      8  H   LEU d   1      58.816  45.747  12.947  0.00  0.00     0.087 H 
BRANCH   7   9
ATOM      9  N   LEU d   1      60.125  44.352  12.176  0.00  0.00    -0.346 N 
ATOM     10  C   ILE d   1      59.347  43.325  11.843  0.00  0.00     0.241 C 
ATOM     11  O   ILE d   1      58.158  43.457  11.517  0.00  0.00    -0.271 OA
ATOM     12  H   LEU d   1      61.101  44.181  12.418  0.00  0.00     0.163 HD
BRANCH  10  13
ATOM     13  CA  ILE d   1      59.997  41.939  11.865  0.00  0.00     0.092 C 
ATOM     14  H   ILE d   1      59.284  41.262  11.393  0.00  0.00     0.088 H 
BRANCH  13  15
ATOM     15  N   ILE d   1      61.219  41.833  11.074  0.00  0.00    -0.346 N 
ATOM     16  C   LYS d   1      61.250  42.119   9.776  0.00  0.00     0.241 C 
ATOM     17  O   LYS d   1      60.264  42.507   9.153  0.00  0.00    -0.271 OA
ATOM     18  H   ILE d   1      62.078  41.529  11.532  0.00  0.00     0.163 HD
BRANCH  16  19
ATOM     19  CA  LYS d   1      62.588  41.911   9.065  0.00  0.00     0.089 C 
ATOM     20  H   LYS d   1      62.470  42.336   8.068  0.00  0.00     0.087 H 
BRANCH  19  21
ATOM     21  N   LYS d   1      63.741  42.639   9.601  0.00  0.00    -0.346 N 
ATOM     22  C   HIS d   1      63.739  43.955   9.809  0.00  0.00     0.241 C 
ATOM     23  O   HIS d   1      62.762  44.676   9.585  0.00  0.00    -0.271 OA
ATOM     24  H   LYS d   1      64.586  42.113   9.826  0.00  0.00     0.163 HD
BRANCH  22  25
ATOM     25  CA  HIS d   1      65.037  44.545  10.363  0.00  0.00     0.094 C 
ATOM     26  H   HIS d   1      65.257  44.074  11.321  0.00  0.00     0.088 H 
BRANCH  25  27
ATOM     27  N   HIS d   1      66.151  44.277   9.457  0.00  0.00    -0.346 N 
ATOM     28  C   LYS d   1      66.091  44.553   8.155  0.00  0.00     0.249 C 
ATOM     29  O   LYS d   1      65.101  45.053   7.617  0.00  0.00    -0.271 OA
ATOM     30  H   HIS d   1      67.004  43.864   9.834  0.00  0.00     0.163 HD
BRANCH  28  31
ATOM     31  CA  LYS d   1      67.331  44.213   7.333  0.00  0.00     0.176 C 
ATOM     32  H   LYS d   1      67.570  43.160   7.482  0.00  0.00     0.099 H 
BRANCH  31  33
ATOM     33  N   LYS d   1      67.073  44.443   5.881  0.00  0.00    -0.067 N 
ATOM     34  H   LYS d   1      66.282  43.872   5.583  0.00  0.00     0.275 HD
ATOM     35  H   LYS d   1      66.859  45.428   5.727  0.00  0.00     0.275 HD
ATOM     36  H   LYS d   1      67.902  44.186   5.345  0.00  0.00     0.275 HD
ENDBRANCH  31  33
BRANCH  31  37
ATOM     37  CB  LYS d   1      68.518  45.066   7.797  0.00  0.00    -0.030 C 
ATOM     38  H   LYS d   1      69.389  44.744   7.226  0.00  0.00     0.036 H 
ATOM     39  H   LYS d   1      68.615  44.926   8.874  0.00  0.00     0.036 H 
BRANCH  37  40
ATOM     40  CG  LYS d   1      68.345  46.559   7.551  0.00  0.00    -0.061 C 
ATOM     41  H   LYS d   1      67.438  46.890   8.058  0.00  0.00     0.033 H 
ATOM     42  H   LYS d   1      68.285  46.727   6.476  0.00  0.00     0.033 H 
BRANCH  40  43
ATOM     43  CD  LYS d   1      69.521  47.354   8.099  0.00  0.00    -0.043 C 
ATOM     44  H   LYS d   1      69.671  47.072   9.141  0.00  0.00     0.035 H 
ATOM     45  H   LYS d   1      69.295  48.416   7.999  0.00  0.00     0.035 H 
BRANCH  43  46
ATOM     46  CE  LYS d   1      70.800  47.061   7.333  0.00  0.00     0.080 C 
ATOM     47  H   LYS d   1      70.980  45.986   7.362  0.00  0.00     0.075 H 
ATOM     48  H   LYS d   1      71.614  47.618   7.797  0.00  0.00     0.075 H 
BRANCH  46  49
ATOM     49  NZ  LYS d   1      70.696  47.481   5.907  0.00  0.00    -0.079 N 
ATOM     50  H   LYS d   1      71.570  47.269   5.427  0.00  0.00     0.274 HD
ATOM     51  H   LYS d   1      69.930  46.976   5.460  0.00  0.00     0.274 HD
ATOM     52  H   LYS d   1      70.516  48.484   5.862  0.00  0.00     0.274 HD
ENDBRANCH  46  49
ENDBRANCH  43  46
ENDBRANCH  40  43
ENDBRANCH  37  40
ENDBRANCH  31  37
ENDBRANCH  28  31
ENDBRANCH  25  27
BRANCH  25  53
ATOM     53  CB  HIS d   1      64.871  46.054  10.576  0.00  0.00     0.004 C 
ATOM     54  H   HIS d   1      64.256  46.191  11.465  0.00  0.00     0.046 H 
ATOM     55  H   HIS d   1      64.429  46.464   9.668  0.00  0.00     0.046 H 
BRANCH  53  56
ATOM     56  CG  HIS d   1      66.161  46.776  10.810  0.00  0.00     0.053 A 
ATOM     57  ND1 HIS d   1      67.091  46.359  11.740  0.00  0.00    -0.247 NA
ATOM     58  CE1 HIS d   1      68.133  47.171  11.712  0.00  0.00     0.064 A 
ATOM     59  NE2 HIS d   1      67.912  48.101  10.800  0.00  0.00    -0.359 N 
ATOM     60  H   HIS d   1      69.023  47.088  12.335  0.00  0.00     0.143 H 
ATOM     61  CD2 HIS d   1      66.685  47.878  10.222  0.00  0.00     0.002 A 
ATOM     62  H   HIS d   1      68.549  48.862  10.563  0.00  0.00     0.166 HD
ATOM     63  H   HIS d   1      66.221  48.476   9.438  0.00  0.00     0.114 H 
ENDBRANCH  53  56
ENDBRANCH  25  53
ENDBRANCH  22  25
ENDBRANCH  19  21
BRANCH  19  64
ATOM     64  CB  LYS d   1      62.872  40.405   9.049  0.00  0.00    -0.038 C 
ATOM     65  H   LYS d   1      61.902  39.908   9.060  0.00  0.00     0.036 H 
ATOM     66  H   LYS d   1      63.516  40.203   9.905  0.00  0.00     0.036 H 
BRANCH  64  67
ATOM     67  CG  LYS d   1      63.605  39.888   7.829  0.00  0.00    -0.061 C 
ATOM     68  H   LYS d   1      64.618  40.291   7.825  0.00  0.00     0.033 H 
ATOM     69  H   LYS d   1      63.070  40.202   6.933  0.00  0.00     0.033 H 
BRANCH  67  70
ATOM     70  CD  LYS d   1      63.675  38.365   7.860  0.00  0.00    -0.043 C 
ATOM     71  H   LYS d   1      62.661  37.973   7.944  0.00  0.00     0.035 H 
ATOM     72  H   LYS d   1      64.288  38.063   8.709  0.00  0.00     0.035 H 
BRANCH  70  73
ATOM     73  CE  LYS d   1      64.302  37.815   6.592  0.00  0.00     0.080 C 
ATOM     74  H   LYS d   1      65.268  38.300   6.451  0.00  0.00     0.075 H 
ATOM     75  H   LYS d   1      63.623  38.011   5.762  0.00  0.00     0.075 H 
BRANCH  73  76
ATOM     76  NZ  LYS d   1      64.525  36.346   6.674  0.00  0.00    -0.079 N 
ATOM     77  H   LYS d   1      64.946  36.018   5.805  0.00  0.00     0.274 HD
ATOM     78  H   LYS d   1      65.149  36.141   7.454  0.00  0.00     0.274 HD
ATOM     79  H   LYS d   1      63.632  35.875   6.819  0.00  0.00     0.274 HD
ENDBRANCH  73  76
ENDBRANCH  70  73
ENDBRANCH  67  70
ENDBRANCH  64  67
ENDBRANCH  19  64
ENDBRANCH  16  19
ENDBRANCH  13  15
BRANCH  13  80
ATOM     80  CB  ILE d   1      60.268  41.516  13.324  0.00  0.00    -0.030 C 
ATOM     81  H   ILE d   1      60.967  42.218  13.779  0.00  0.00     0.043 H 
BRANCH  80  82
ATOM     82  CG1 ILE d   1      60.884  40.108  13.342  0.00  0.00    -0.063 C 
ATOM     83  H   ILE d   1      61.689  40.101  12.607  0.00  0.00     0.033 H 
ATOM     84  H   ILE d   1      60.079  39.404  13.133  0.00  0.00     0.033 H 
BRANCH  82  85
ATOM     85  CD1 ILE d   1      61.494  39.707  14.677  0.00  0.00    -0.076 C 
ATOM     86  H   ILE d   1      62.289  40.406  14.937  0.00  0.00     0.027 H 
ATOM     87  H   ILE d   1      60.724  39.728  15.448  0.00  0.00     0.027 H 
ATOM     88  H   ILE d   1      61.905  38.700  14.600  0.00  0.00     0.027 H 
ENDBRANCH  82  85
ENDBRANCH  80  82
BRANCH  80  89
ATOM     89  CG2 ILE d   1      58.973  41.541  14.130  0.00  0.00    -0.071 C 
ATOM     90  H   ILE d   1      58.561  42.550  14.121  0.00  0.00     0.028 H 
ATOM     91  H   ILE d   1      58.256  40.850  13.685  0.00  0.00     0.028 H 
ATOM     92  H   ILE d   1      59.180  41.240  15.157  0.00  0.00     0.028 H 
ENDBRANCH  80  89
ENDBRANCH  13  80
ENDBRANCH  10  13
ENDBRANCH   7   9
BRANCH   7  93
ATOM     93  CB  LEU d   1      60.725  46.692  12.602  0.00  0.00    -0.035 C 
ATOM     94  H   LEU d   1      61.473  46.647  11.811  0.00  0.00     0.037 H 
ATOM     95  H   LEU d   1      61.064  46.384  13.591  0.00  0.00     0.037 H 
BRANCH  93  96
ATOM     96  CG  LEU d   1      60.310  48.161  12.724  0.00  0.00    -0.059 C 
ATOM     97  H   LEU d   1      60.044  48.546  11.739  0.00  0.00     0.038 H 
BRANCH  96  98
ATOM     98  CD1 LEU d   1      59.094  48.285  13.633  0.00  0.00    -0.073 C 
ATOM     99  H   LEU d   1      58.268  47.712  13.212  0.00  0.00     0.028 H 
ATOM    100  H   LEU d   1      59.340  47.898  14.622  0.00  0.00     0.028 H 
ATOM    101  H   LEU d   1      58.807  49.334  13.713  0.00  0.00     0.028 H 
ENDBRANCH  96  98
BRANCH  96 102
ATOM    102  CD2 LEU d   1      61.473  48.974  13.274  0.00  0.00    -0.073 C 
ATOM    103  H   LEU d   1      61.749  48.592  14.257  0.00  0.00     0.028 H 
ATOM    104  H   LEU d   1      62.324  48.892  12.598  0.00  0.00     0.028 H 
ATOM    105  H   LEU d   1      61.175  50.019  13.360  0.00  0.00     0.028 H 
ENDBRANCH  96 102
ENDBRANCH  93  96
ENDBRANCH   7  93
ENDBRANCH   4   7
ENDBRANCH   1   3
BRANCH   1 106
ATOM    106  C   HIS d   1      57.807  45.559   8.175  0.00  0.00     0.241 C 
ATOM    107  O   HIS d   1      56.840  46.187   7.732  0.00  0.00    -0.271 OA
ATOM    108  N   ARG d   1      57.772  44.253   8.424  0.00  0.00    -0.346 N 
ATOM    109  H   ARG d   1      58.612  43.795   8.778  0.00  0.00     0.163 HD
BRANCH 108 110
ATOM    110  CA  ARG d   1      56.568  43.452   8.207  0.00  0.00     0.089 C 
ATOM    111  H   ARG d   1      56.313  43.537   7.151  0.00  0.00     0.087 H 
BRANCH 110 112
ATOM    112  C   ARG d   1      55.383  43.959   9.012  0.00  0.00     0.241 C 
ATOM    113  O   ARG d   1      54.271  44.077   8.492  0.00  0.00    -0.271 OA
ATOM    114  N   LEU d   1      55.627  44.264  10.283  0.00  0.00    -0.346 N 
ATOM    115  H   LEU d   1      56.573  44.153  10.649  0.00  0.00     0.163 HD
BRANCH 114 116
ATOM    116  CA  LEU d   1      54.575  44.753  11.167  0.00  0.00     0.089 C 
ATOM    117  H   LEU d   1      53.736  44.064  11.066  0.00  0.00     0.087 H 
BRANCH 116 118
ATOM    118  C   LEU d   1      54.068  46.137  10.778  0.00  0.00     0.241 C 
ATOM    119  O   LEU d   1      52.892  46.435  10.961  0.00  0.00    -0.271 OA
ATOM    120  N   LEU d   1      54.948  46.979  10.247  0.00  0.00    -0.346 N 
ATOM    121  H   LEU d   1      55.914  46.678  10.119  0.00  0.00     0.163 HD
BRANCH 120 122
ATOM    122  CA  LEU d   1      54.557  48.327   9.843  0.00  0.00     0.089 C 
ATOM    123  H   LEU d   1      53.903  48.705  10.629  0.00  0.00     0.087 H 
BRANCH 122 124
ATOM    124  C   LEU d   1      53.780  48.346   8.529  0.00  0.00     0.241 C 
ATOM    125  O   LEU d   1      52.910  49.192   8.324  0.00  0.00    -0.271 OA
ATOM    126  N   GLN d   1      54.107  47.417   7.639  0.00  0.00    -0.346 N 
ATOM    127  H   GLN d   1      54.837  46.744   7.872  0.00  0.00     0.163 HD
BRANCH 126 128
ATOM    128  CA  GLN d   1      53.455  47.330   6.338  0.00  0.00     0.090 C 
ATOM    129  H   GLN d   1      53.419  48.337   5.922  0.00  0.00     0.087 H 
BRANCH 128 130
ATOM    130  C   GLN d   1      52.017  46.843   6.435  0.00  0.00     0.241 C 
ATOM    131  O   GLN d   1      51.108  47.458   5.875  0.00  0.00    -0.271 OA
ATOM    132  N   ASP d   1      51.809  45.743   7.149  0.00  0.00    -0.344 N 
ATOM    133  H   ASP d   1      52.599  45.286   7.604  0.00  0.00     0.163 HD
BRANCH 132 134
ATOM    134  CA  ASP d   1      50.474  45.174   7.296  0.00  0.00     0.105 C 
ATOM    135  H   ASP d   1      50.173  44.805   6.316  0.00  0.00     0.090 H 
BRANCH 134 136
ATOM    136  C   ASP d   1      49.442  46.215   7.730  0.00  0.00     0.197 C 
ATOM    137  O   ASP d   1      48.452  46.412   6.994  0.00  0.00    -0.646 OA
ATOM    138  OXT ASP d   1      49.634  46.824   8.802  0.00  0.00    -0.646 OA
ENDBRANCH 134 136
BRANCH 134 139
ATOM    139  CB  ASP d   1      50.500  44.015   8.299  0.00  0.00     0.044 C 
ATOM    140  H   ASP d   1      50.703  44.429   9.287  0.00  0.00     0.053 H 
ATOM    141  H   ASP d   1      51.266  43.309   7.978  0.00  0.00     0.053 H 
BRANCH 139 142
ATOM    142  CG  ASP d   1      49.175  43.274   8.364  0.00  0.00     0.175 C 
ATOM    143  OD1 ASP d   1      48.631  42.943   7.288  0.00  0.00    -0.648 OA
ATOM    144  OD2 ASP d   1      48.679  43.018   9.482  0.00  0.00    -0.648 OA
ENDBRANCH 139 142
ENDBRANCH 134 139
ENDBRANCH 132 134
ENDBRANCH 128 130
BRANCH 128 145
ATOM    145  CB  GLN d   1      54.267  46.410   5.416  0.00  0.00    -0.030 C 
ATOM    146  H   GLN d   1      54.427  45.483   5.967  0.00  0.00     0.037 H 
ATOM    147  H   GLN d   1      55.168  46.961   5.146  0.00  0.00     0.037 H 
BRANCH 145 148
ATOM    148  CG  GLN d   1      53.588  46.021   4.103  0.00  0.00     0.011 C 
ATOM    149  H   GLN d   1      54.368  45.732   3.399  0.00  0.00     0.047 H 
ATOM    150  H   GLN d   1      53.005  46.877   3.764  0.00  0.00     0.047 H 
BRANCH 148 151
ATOM    151  CD  GLN d   1      52.636  44.840   4.252  0.00  0.00     0.215 C 
ATOM    152  OE1 GLN d   1      52.999  43.798   4.808  0.00  0.00    -0.274 OA
ATOM    153  NE2 GLN d   1      51.416  44.995   3.745  0.00  0.00    -0.370 N 
ATOM    154  H   GLN d   1      50.738  44.236   3.807  0.00  0.00     0.159 HD
ATOM    155  H   GLN d   1      51.159  45.873   3.294  0.00  0.00     0.159 HD
ENDBRANCH 148 151
ENDBRANCH 145 148
ENDBRANCH 128 145
ENDBRANCH 126 128
ENDBRANCH 122 124
BRANCH 122 156
ATOM    156  CB  LEU d   1      55.793  49.224   9.699  0.00  0.00    -0.035 C 
ATOM    157  H   LEU d   1      55.432  50.146   9.242  0.00  0.00     0.037 H 
ATOM    158  H   LEU d   1      56.519  48.632   9.142  0.00  0.00     0.037 H 
BRANCH 156 159
ATOM    159  CG  LEU d   1      56.512  49.656  10.978  0.00  0.00    -0.059 C 
ATOM    160  H   LEU d   1      56.808  48.778  11.552  0.00  0.00     0.038 H 
BRANCH 159 161
ATOM    161  CD1 LEU d   1      57.764  50.444  10.612  0.00  0.00    -0.073 C 
ATOM    162  H   LEU d   1      58.426  49.816  10.016  0.00  0.00     0.028 H 
ATOM    163  H   LEU d   1      57.482  51.326  10.037  0.00  0.00     0.028 H 
ATOM    164  H   LEU d   1      58.277  50.752  11.523  0.00  0.00     0.028 H 
ENDBRANCH 159 161
BRANCH 159 165
ATOM    165  CD2 LEU d   1      55.574  50.495  11.834  0.00  0.00    -0.073 C 
ATOM    166  H   LEU d   1      55.267  51.379  11.275  0.00  0.00     0.028 H 
ATOM    167  H   LEU d   1      54.696  49.904  12.094  0.00  0.00     0.028 H 
ATOM    168  H   LEU d   1      56.090  50.800  12.744  0.00  0.00     0.028 H 
ENDBRANCH 159 165
ENDBRANCH 156 159
ENDBRANCH 122 156
ENDBRANCH 120 122
ENDBRANCH 116 118
BRANCH 116 169
ATOM    169  CB  LEU d   1      55.068  44.769  12.619  0.00  0.00    -0.035 C 
ATOM    170  H   LEU d   1      54.273  45.214  13.218  0.00  0.00     0.037 H 
ATOM    171  H   LEU d   1      56.010  45.318  12.627  0.00  0.00     0.037 H 
BRANCH 169 172
ATOM    172  CG  LEU d   1      55.354  43.386  13.218  0.00  0.00    -0.059 C 
ATOM    173  H   LEU d   1      56.044  42.847  12.569  0.00  0.00     0.038 H 
BRANCH 172 174
ATOM    174  CD1 LEU d   1      55.997  43.532  14.581  0.00  0.00    -0.073 C 
ATOM    175  H   LEU d   1      56.934  44.081  14.482  0.00  0.00     0.028 H 
ATOM    176  H   LEU d   1      55.323  44.077  15.243  0.00  0.00     0.028 H 
ATOM    177  H   LEU d   1      56.195  42.544  14.996  0.00  0.00     0.028 H 
ENDBRANCH 172 174
BRANCH 172 178
ATOM    178  CD2 LEU d   1      54.055  42.599  13.324  0.00  0.00    -0.073 C 
ATOM    179  H   LEU d   1      53.358  43.136  13.967  0.00  0.00     0.028 H 
ATOM    180  H   LEU d   1      53.620  42.482  12.331  0.00  0.00     0.028 H 
ATOM    181  H   LEU d   1      54.260  41.617  13.750  0.00  0.00     0.028 H 
ENDBRANCH 172 178
ENDBRANCH 169 172
ENDBRANCH 116 169
ENDBRANCH 114 116
ENDBRANCH 110 112
BRANCH 110 182
ATOM    182  CB  ARG d   1      56.840  41.991   8.571  0.00  0.00    -0.036 C 
ATOM    183  H   ARG d   1      55.882  41.472   8.609  0.00  0.00     0.036 H 
ATOM    184  H   ARG d   1      57.365  41.977   9.526  0.00  0.00     0.036 H 
BRANCH 182 185
ATOM    185  CG  ARG d   1      57.708  41.288   7.555  0.00  0.00    -0.048 C 
ATOM    186  H   ARG d   1      58.630  41.859   7.447  0.00  0.00     0.035 H 
ATOM    187  H   ARG d   1      57.148  41.221   6.622  0.00  0.00     0.035 H 
BRANCH 185 188
ATOM    188  CD  ARG d   1      58.074  39.888   7.980  0.00  0.00     0.009 C 
ATOM    189  H   ARG d   1      57.161  39.316   8.147  0.00  0.00     0.064 H 
ATOM    190  H   ARG d   1      58.661  39.936   8.897  0.00  0.00     0.064 H 
BRANCH 188 191
ATOM    191  NE  ARG d   1      58.862  39.237   6.942  0.00  0.00    -0.227 N 
ATOM    192  CZ  ARG d   1      59.433  38.045   7.067  0.00  0.00     0.665 C 
ATOM    193  NH1 ARG d   1      59.308  37.357   8.196  0.00  0.00    -0.235 N 
ATOM    194  NH2 ARG d   1      60.138  37.546   6.060  0.00  0.00    -0.235 N 
ATOM    195  H   ARG d   1      58.771  37.744   8.972  0.00  0.00     0.174 HD
ATOM    196  H   ARG d   1      59.749  36.442   8.287  0.00  0.00     0.174 HD
ATOM    197  H   ARG d   1      60.239  38.078   5.195  0.00  0.00     0.174 HD
ATOM    198  H   ARG d   1      60.579  36.631   6.150  0.00  0.00     0.174 HD
ATOM    199  H   ARG d   1      58.983  39.731   6.058  0.00  0.00     0.177 HD
ENDBRANCH 188 191
ENDBRANCH 185 188
ENDBRANCH 182 185
ENDBRANCH 110 182
ENDBRANCH 108 110
ENDBRANCH   1 106
BRANCH   1 200
ATOM    200  CB  HIS d   1      60.116  45.905   7.322  0.00  0.00     0.004 C 
ATOM    201  H   HIS d   1      59.534  45.820   6.404  0.00  0.00     0.046 H 
ATOM    202  H   HIS d   1      60.622  44.985   7.615  0.00  0.00     0.046 H 
BRANCH 200 203
ATOM    203  CG  HIS d   1      61.174  46.935   7.081  0.00  0.00     0.053 A 
ATOM    204  ND1 HIS d   1      62.385  46.930   7.741  0.00  0.00    -0.247 NA
ATOM    205  CE1 HIS d   1      63.114  47.950   7.324  0.00  0.00     0.064 A 
ATOM    206  NE2 HIS d   1      62.419  48.617   6.420  0.00  0.00    -0.359 N 
ATOM    207  H   HIS d   1      64.118  48.199   7.668  0.00  0.00     0.143 H 
ATOM    208  CD2 HIS d   1      61.202  48.004   6.250  0.00  0.00     0.002 A 
ATOM    209  H   HIS d   1      62.735  49.453   5.928  0.00  0.00     0.166 HD
ATOM    210  H   HIS d   1      60.408  48.319   5.573  0.00  0.00     0.114 H 
ENDBRANCH 200 203
ENDBRANCH   1 200
TORSDOF 61
