REMARK  6 active torsions:
REMARK  status: ('A' for Active; 'I' for Inactive)
REMARK    1  A    between atoms: C1_1  and  C2_2 
REMARK    2  A    between atoms: C1_1  and  O1_7 
REMARK    3  A    between atoms: C2_2  and  O2_8 
REMARK    4  A    between atoms: C3_3  and  O3_9 
REMARK    5  A    between atoms: C4_4  and  O4_10 
REMARK    6  A    between atoms: C5_5  and  O5_11 
ROOT
ATOM      1  C2  BDF d   1      50.290 -17.748 -30.067  0.00  0.00     0.212 C 
ATOM      2  C3  BDF d   1      49.329 -17.395 -31.267  0.00  0.00     0.118 C 
ATOM      3  C4  BDF d   1      48.626 -18.648 -31.746  0.00  0.00     0.092 C 
ATOM      4  C5  BDF d   1      47.871 -19.283 -30.587  0.00  0.00     0.083 C 
ATOM      5  C6  BDF d   1      48.816 -19.552 -29.413  0.00  0.00     0.049 C 
ATOM      6  O6  BDF d   1      49.543 -18.408 -29.036  0.00  0.00    -0.349 OA
ATOM      7  H3  BDF d   1      48.593 -16.656 -30.918  0.00  0.00     0.095 H 
ATOM      8  H4  BDF d   1      49.364 -19.357 -32.148  0.00  0.00     0.091 H 
ATOM      9  H5  BDF d   1      47.418 -20.231 -30.912  0.00  0.00     0.090 H 
ATOM     10  H6  BDF d   1      49.525 -20.341 -29.704  0.00  0.00     0.078 H 
ATOM     11  H7  BDF d   1      48.222 -19.892 -28.552  0.00  0.00     0.078 H 
ENDROOT
BRANCH   1  12
ATOM     12  C1  BDF d   1      50.954 -16.547 -29.401  0.00  0.00     0.071 C 
ATOM     13  H1  BDF d   1      51.545 -15.986 -30.140  0.00  0.00     0.082 H 
ATOM     14  H2  BDF d   1      51.611 -16.885 -28.586  0.00  0.00     0.082 H 
BRANCH  12  15
ATOM     15  O1  BDF d   1      49.896 -15.705 -28.869  0.00  0.00    -0.395 OA
ATOM     16  H8  BDF d   1      49.388 -16.199 -28.236  0.00  0.00     0.209 HD
ENDBRANCH  12  15
ENDBRANCH   1  12
BRANCH   1  17
ATOM     17  O2  BDF d   1      51.347 -18.587 -30.551  0.00  0.00    -0.362 OA
ATOM     18  H9  BDF d   1      51.935 -18.799 -29.835  0.00  0.00     0.213 HD
ENDBRANCH   1  17
BRANCH   2  19
ATOM     19  O3  BDF d   1      50.012 -16.877 -32.436  0.00  0.00    -0.387 OA
ATOM     20  H10 BDF d   1      50.629 -17.526 -32.754  0.00  0.00     0.210 HD
ENDBRANCH   2  19
BRANCH   3  21
ATOM     21  O4  BDF d   1      47.673 -18.302 -32.760  0.00  0.00    -0.390 OA
ATOM     22  H11 BDF d   1      48.124 -17.903 -33.494  0.00  0.00     0.210 HD
ENDBRANCH   3  21
BRANCH   4  23
ATOM     23  O5  BDF d   1      46.848 -18.366 -30.193  0.00  0.00    -0.391 OA
ATOM     24  H12 BDF d   1      46.268 -18.206 -30.928  0.00  0.00     0.210 HD
ENDBRANCH   4  23
TORSDOF 6
