REMARK  25 active torsions:
REMARK  status: ('A' for Active; 'I' for Inactive)
REMARK    1  A    between atoms: O1_2  and  C1_1 
REMARK    2  A    between atoms: CBJ_37  and  O1_2 
REMARK    3  A    between atoms: C2_3  and  O2_4 
REMARK    4  A    between atoms: C3_5  and  O3_6 
REMARK    5  A    between atoms: C4_7  and  O4_8 
REMARK    6  A    between atoms: C5_9  and  C6_11 
REMARK    7  A    between atoms: C6_11  and  O6_12 
REMARK    8  A    between atoms: C6_11  and  CBT_46 
REMARK    9  A    between atoms: CAL_13  and  OBG_34 
REMARK   10  A    between atoms: OAS_20  and  CAM_14 
REMARK   11  A    between atoms: CAN_15  and  OAT_21 
REMARK   12  A    between atoms: CAO_16  and  OBS_45 
REMARK   13  A    between atoms: CAQ_18  and  CAR_19 
REMARK   14  A    between atoms: CAR_19  and  OBF_33 
REMARK   15  A    between atoms: CAX_25  and  OAS_20 
REMARK   16  A    between atoms: CAU_22  and  OBB_29 
REMARK   17  A    between atoms: CAV_23  and  OBC_30 
REMARK   18  A    between atoms: OBE_32  and  CAW_24 
REMARK   19  A    between atoms: CAZ_27  and  CBA_28 
REMARK   20  A    between atoms: CBA_28  and  OBD_31 
REMARK   21  A    between atoms: CBK_38  and  OBE_32 
REMARK   22  A    between atoms: CBH_35  and  OBO_42 
REMARK   23  A    between atoms: CBI_36  and  OBP_43 
REMARK   24  A    between atoms: CBM_40  and  CBN_41 
REMARK   25  A    between atoms: CBN_41  and  OBQ_44 
ROOT
ATOM      1  CBH 2M6 d   1      21.618 -36.170 -40.746  0.00  0.00     0.090 C 
ATOM      2  CBI 2M6 d   1      20.754 -34.912 -40.911  0.00  0.00     0.092 C 
ATOM      3  CBJ 2M6 d   1      19.860 -34.648 -39.751  0.00  0.00     0.116 C 
ATOM      4  CBK 2M6 d   1      18.893 -35.797 -39.591  0.00  0.00     0.160 C 
ATOM      5  OBL 2M6 d   1      19.525 -37.057 -39.526  0.00  0.00    -0.348 OA
ATOM      6  CBM 2M6 d   1      20.684 -37.348 -40.334  0.00  0.00     0.089 C 
ATOM      7  H   2M6 d   1      22.368 -36.065 -39.962  0.00  0.00     0.091 H 
ATOM      8  H   2M6 d   1      20.137 -35.148 -41.778  0.00  0.00     0.091 H 
ATOM      9  H   2M6 d   1      19.222 -33.768 -39.832  0.00  0.00     0.095 H 
ATOM     10  H   2M6 d   1      18.416 -35.706 -38.615  0.00  0.00     0.133 H 
ATOM     11  H   2M6 d   1      20.337 -37.613 -41.333  0.00  0.00     0.090 H 
ENDROOT
BRANCH   4  12
ATOM     12  OBE 2M6 d   1      17.857 -35.707 -40.576  0.00  0.00    -0.346 OA
BRANCH  12  13
ATOM     13  CAW 2M6 d   1      16.681 -36.584 -40.442  0.00  0.00     0.116 C 
ATOM     14  CAV 2M6 d   1      15.441 -35.647 -40.626  0.00  0.00     0.092 C 
ATOM     15  CAU 2M6 d   1      15.162 -35.200 -42.078  0.00  0.00     0.090 C 
ATOM     16  H   2M6 d   1      14.621 -36.262 -40.256  0.00  0.00     0.091 H 
ATOM     17  CAZ 2M6 d   1      15.724 -36.151 -43.142  0.00  0.00     0.089 C 
ATOM     18  H   2M6 d   1      15.614 -34.217 -42.208  0.00  0.00     0.091 H 
ATOM     19  OAY 2M6 d   1      16.958 -36.850 -42.796  0.00  0.00    -0.348 OA
ATOM     20  H   2M6 d   1      14.969 -36.934 -43.203  0.00  0.00     0.090 H 
ATOM     21  CAX 2M6 d   1      16.819 -37.637 -41.593  0.00  0.00     0.159 C 
ATOM     22  H   2M6 d   1      17.579 -38.269 -41.134  0.00  0.00     0.133 H 
ATOM     23  H   2M6 d   1      16.586 -37.109 -39.492  0.00  0.00     0.095 H 
BRANCH  14  24
ATOM     24  OBC 2M6 d   1      15.621 -34.417 -39.929  0.00  0.00    -0.390 OA
ATOM     25  H   2M6 d   1      16.399 -33.969 -40.269  0.00  0.00     0.210 HD
ENDBRANCH  14  24
BRANCH  15  26
ATOM     26  OBB 2M6 d   1      13.753 -35.282 -42.246  0.00  0.00    -0.390 OA
ATOM     27  H   2M6 d   1      13.322 -34.708 -41.609  0.00  0.00     0.210 HD
ENDBRANCH  15  26
BRANCH  17  28
ATOM     28  CBA 2M6 d   1      15.871 -35.460 -44.482  0.00  0.00     0.043 C 
ATOM     29  H   2M6 d   1      15.471 -34.448 -44.424  0.00  0.00     0.078 H 
ATOM     30  H   2M6 d   1      15.318 -36.008 -45.245  0.00  0.00     0.078 H 
BRANCH  28  31
ATOM     31  OBD 2M6 d   1      17.264 -35.417 -44.823  0.00  0.00    -0.398 OA
ATOM     32  H   2M6 d   1      17.607 -36.312 -44.876  0.00  0.00     0.209 HD
ENDBRANCH  28  31
ENDBRANCH  17  28
BRANCH  21  33
ATOM     33  OAS 2M6 d   1      15.801 -38.587 -42.057  0.00  0.00    -0.348 OA
BRANCH  33  34
ATOM     34  CAM 2M6 d   1      15.312 -39.726 -41.336  0.00  0.00     0.098 C 
ATOM     35  CAL 2M6 d   1      14.123 -40.071 -42.285  0.00  0.00     0.090 C 
ATOM     36  CAQ 2M6 d   1      14.286 -41.339 -43.203  0.00  0.00     0.089 C 
ATOM     37  H   2M6 d   1      14.118 -39.250 -43.002  0.00  0.00     0.091 H 
ATOM     38  OAP 2M6 d   1      15.334 -42.303 -42.878  0.00  0.00    -0.349 OA
ATOM     39  H   2M6 d   1      13.367 -41.893 -43.011  0.00  0.00     0.090 H 
ATOM     40  CAO 2M6 d   1      15.893 -42.301 -41.539  0.00  0.00     0.156 C 
ATOM     41  CAN 2M6 d   1      16.348 -40.869 -41.132  0.00  0.00     0.110 C 
ATOM     42  H   2M6 d   1      16.780 -42.930 -41.615  0.00  0.00     0.133 H 
ATOM     43  H   2M6 d   1      16.444 -40.869 -40.046  0.00  0.00     0.094 H 
ATOM     44  H   2M6 d   1      15.051 -39.554 -40.292  0.00  0.00     0.091 H 
BRANCH  35  45
ATOM     45  OBG 2M6 d   1      12.878 -40.106 -41.554  0.00  0.00    -0.390 OA
ATOM     46  H   2M6 d   1      12.808 -39.322 -41.005  0.00  0.00     0.210 HD
ENDBRANCH  35  45
BRANCH  36  47
ATOM     47  CAR 2M6 d   1      14.434 -40.905 -44.666  0.00  0.00     0.043 C 
ATOM     48  H   2M6 d   1      15.010 -39.980 -44.667  0.00  0.00     0.078 H 
ATOM     49  H   2M6 d   1      13.428 -40.812 -45.074  0.00  0.00     0.078 H 
BRANCH  47  50
ATOM     50  OBF 2M6 d   1      15.153 -41.858 -45.512  0.00  0.00    -0.398 OA
ATOM     51  H   2M6 d   1      16.040 -41.985 -45.167  0.00  0.00     0.209 HD
ENDBRANCH  47  50
ENDBRANCH  36  47
BRANCH  40  52
ATOM     52  OBS 2M6 d   1      15.173 -43.053 -40.486  0.00  0.00    -0.369 OA
ATOM     53  H   2M6 d   1      15.646 -42.970 -39.655  0.00  0.00     0.212 HD
ENDBRANCH  40  52
BRANCH  41  54
ATOM     54  OAT 2M6 d   1      17.620 -40.603 -41.742  0.00  0.00    -0.388 OA
ATOM     55  H   2M6 d   1      17.912 -39.722 -41.499  0.00  0.00     0.210 HD
ENDBRANCH  41  54
ENDBRANCH  33  34
ENDBRANCH  21  33
ENDBRANCH  12  13
ENDBRANCH   4  12
BRANCH   3  56
ATOM     56  O1  2M6 d   1      20.798 -34.516 -38.671  0.00  0.00    -0.346 OA
BRANCH  56  57
ATOM     57  C1  2M6 d   1      20.291 -33.492 -37.738  0.00  0.00     0.159 C 
ATOM     58  C2  2M6 d   1      21.238 -33.332 -36.571  0.00  0.00     0.110 C 
ATOM     59  C3  2M6 d   1      21.163 -34.576 -35.694  0.00  0.00     0.092 C 
ATOM     60  H   2M6 d   1      22.272 -33.222 -36.898  0.00  0.00     0.094 H 
ATOM     61  C4  2M6 d   1      19.857 -34.574 -34.934  0.00  0.00     0.090 C 
ATOM     62  H   2M6 d   1      21.219 -35.468 -36.318  0.00  0.00     0.091 H 
ATOM     63  C5  2M6 d   1      18.770 -34.637 -36.001  0.00  0.00     0.093 C 
ATOM     64  H   2M6 d   1      19.775 -33.690 -34.302  0.00  0.00     0.091 H 
ATOM     65  O5  2M6 d   1      18.915 -33.671 -37.116  0.00  0.00    -0.348 OA
ATOM     66  H   2M6 d   1      18.958 -35.583 -36.508  0.00  0.00     0.091 H 
ATOM     67  H   2M6 d   1      20.212 -32.634 -38.405  0.00  0.00     0.133 H 
BRANCH  58  68
ATOM     68  O2  2M6 d   1      20.839 -32.157 -35.857  0.00  0.00    -0.388 OA
ATOM     69  H   2M6 d   1      21.423 -32.026 -35.106  0.00  0.00     0.210 HD
ENDBRANCH  58  68
BRANCH  59  70
ATOM     70  O3  2M6 d   1      22.221 -34.574 -34.799  0.00  0.00    -0.390 OA
ATOM     71  H   2M6 d   1      22.173 -35.358 -34.247  0.00  0.00     0.210 HD
ENDBRANCH  59  70
BRANCH  61  72
ATOM     72  O4  2M6 d   1      19.752 -35.702 -34.072  0.00  0.00    -0.390 OA
ATOM     73  H   2M6 d   1      19.799 -36.507 -34.593  0.00  0.00     0.210 HD
ENDBRANCH  61  72
BRANCH  63  74
ATOM     74  C6  2M6 d   1      17.348 -34.818 -35.447  0.00  0.00     0.059 C 
ATOM     75  H   2M6 d   1      17.394 -35.240 -34.443  0.00  0.00     0.086 H 
BRANCH  74  76
ATOM     76  O6  2M6 d   1      16.620 -33.614 -35.416  0.00  0.00    -0.393 OA
ATOM     77  H   2M6 d   1      16.547 -33.263 -36.306  0.00  0.00     0.210 HD
ENDBRANCH  74  76
BRANCH  74  78
ATOM     78  CBT 2M6 d   1      16.663 -35.614 -36.519  0.00  0.00    -0.050 C 
ATOM     79  H   2M6 d   1      16.680 -35.053 -37.453  0.00  0.00     0.031 H 
ATOM     80  H   2M6 d   1      17.183 -36.562 -36.654  0.00  0.00     0.031 H 
ATOM     81  H   2M6 d   1      15.630 -35.803 -36.226  0.00  0.00     0.031 H 
ENDBRANCH  74  78
ENDBRANCH  63  74
ENDBRANCH  56  57
ENDBRANCH   3  56
BRANCH   2  82
ATOM     82  OBP 2M6 d   1      21.500 -33.729 -41.207  0.00  0.00    -0.390 OA
ATOM     83  H   2M6 d   1      22.026 -33.484 -40.442  0.00  0.00     0.210 HD
ENDBRANCH   2  82
BRANCH   6  84
ATOM     84  CBN 2M6 d   1      21.408 -38.527 -39.623  0.00  0.00     0.043 C 
ATOM     85  H   2M6 d   1      21.866 -38.141 -38.712  0.00  0.00     0.078 H 
ATOM     86  H   2M6 d   1      22.142 -38.939 -40.316  0.00  0.00     0.078 H 
BRANCH  84  87
ATOM     87  OBQ 2M6 d   1      20.489 -39.601 -39.247  0.00  0.00    -0.398 OA
ATOM     88  H   2M6 d   1      19.824 -39.256 -38.647  0.00  0.00     0.209 HD
ENDBRANCH  84  87
ENDBRANCH   6  84
BRANCH   1  89
ATOM     89  OBO 2M6 d   1      22.353 -36.404 -42.019  0.00  0.00    -0.390 OA
ATOM     90  H   2M6 d   1      22.906 -35.644 -42.212  0.00  0.00     0.210 HD
ENDBRANCH   1  89
TORSDOF 25
