REMARK WARNING: 32 MAX_TORS EXCEEDED!!!
REMARK  44 active torsions:
REMARK  status: ('A' for Active; 'I' for Inactive)
REMARK    1  A    between atoms: N_1  and  CA_2 
REMARK    2  A    between atoms: CA_2  and  C_3 
REMARK    3  A    between atoms: CA_2  and  CB_5 
REMARK       I    between atoms: C_3  and  N_12 
REMARK    4  A    between atoms: CB_5  and  CG_6 
REMARK    5  A    between atoms: CG_6  and  CD_7 
REMARK    6  A    between atoms: CD_7  and  NE_8 
REMARK       I    between atoms: NE_8  and  CZ_9 
REMARK       I    between atoms: CZ_9  and  NH1_10 
REMARK    7  A    between atoms: N_12  and  CA_13 
REMARK    8  A    between atoms: CA_13  and  C_14 
REMARK    9  A    between atoms: CA_13  and  CB_16 
REMARK       I    between atoms: C_14  and  N_20 
REMARK   10  A    between atoms: CB_16  and  CG_17 
REMARK       I    between atoms: CG_17  and  ND2_19 
REMARK   11  A    between atoms: N_20  and  CA_21 
REMARK   12  A    between atoms: CA_21  and  C_22 
REMARK   13  A    between atoms: CA_21  and  CB_24 
REMARK       I    between atoms: C_22  and  N_27 
REMARK   14  A    between atoms: CB_24  and  OG1_25 
REMARK   15  A    between atoms: CB_24  and  CG2_26 
REMARK   16  A    between atoms: N_27  and  CA_28 
REMARK   17  A    between atoms: CA_28  and  C_29 
REMARK   18  A    between atoms: CA_28  and  CB_31 
REMARK       I    between atoms: C_29  and  N_35 
REMARK   19  A    between atoms: CB_31  and  CG_32 
REMARK       I    between atoms: CG_32  and  ND2_34 
REMARK   20  A    between atoms: N_35  and  CA_36 
REMARK   21  A    between atoms: CA_36  and  C_37 
REMARK   22  A    between atoms: CA_36  and  CB_39 
REMARK       I    between atoms: C_37  and  N_44 
REMARK   23  A    between atoms: CB_39  and  CG_40 
REMARK   24  A    between atoms: CG_40  and  CD_41 
REMARK   25  A    between atoms: N_44  and  CA_45 
REMARK   26  A    between atoms: CA_45  and  C_46 
REMARK   27  A    between atoms: CA_45  and  CB_48 
REMARK       I    between atoms: C_46  and  N_60 
REMARK   28  A    between atoms: CB_48  and  CG_49 
REMARK   29  A    between atoms: CZ_54  and  OH_55 
REMARK   30  A    between atoms: OH_55  and  P_56 
REMARK   31  A    between atoms: N_60  and  CA_61 
REMARK   32  A    between atoms: CA_61  and  CB_62 
REMARK   33  A    between atoms: CA_61  and  C_69 
REMARK   34  A    between atoms: CB_62  and  CG2_63 
REMARK   35  A    between atoms: CB_62  and  OG1_64 
REMARK   36  A    between atoms: OG1_64  and  P_65 
REMARK       I    between atoms: C_69  and  N_71 
REMARK   37  A    between atoms: N_71  and  CA_72 
REMARK   38  A    between atoms: CA_72  and  C_73 
REMARK   39  A    between atoms: CA_72  and  CB_75 
REMARK       I    between atoms: C_73  and  N_80 
REMARK   40  A    between atoms: CB_75  and  CG_76 
REMARK   41  A    between atoms: CG_76  and  CD_77 
REMARK   42  A    between atoms: N_80  and  CA_81 
REMARK   43  A    between atoms: CA_81  and  C_82 
REMARK       I    between atoms: C_82  and  N_84 
REMARK   44  A    between atoms: CA_85  and  C_86 
ROOT
ATOM      1  CA  GLU d   1     -65.630  30.451   3.352  0.00  0.00     0.090 C 
ATOM      2  H36 GLU d   1     -64.998  31.338   3.199  0.00  0.00     0.087 H 
ENDROOT
BRANCH   1   3
ATOM      3  N   GLU d   1     -65.580  29.603   2.184  0.00  0.00    -0.346 N 
ATOM      4  C   ASN d   1     -64.471  29.416   1.504  0.00  0.00     0.241 C 
ATOM      5  O   ASN d   1     -63.389  29.871   1.869  0.00  0.00    -0.271 OA
ATOM      6  H35 GLU d   1     -66.416  29.144   1.883  0.00  0.00     0.163 HD
BRANCH   4   7
ATOM      7  CA  ASN d   1     -64.563  28.534   0.248  0.00  0.00     0.097 C 
ATOM      8  H30 ASN d   1     -65.398  28.886  -0.375  0.00  0.00     0.088 H 
BRANCH   7   9
ATOM      9  N   ASN d   1     -63.329  28.713  -0.475  0.00  0.00    -0.345 N 
ATOM     10  C   THR d   1     -63.291  29.596  -1.451  0.00  0.00     0.243 C 
ATOM     11  O   THR d   1     -64.292  30.203  -1.868  0.00  0.00    -0.271 OA
ATOM     12  H29 ASN d   1     -62.518  28.177  -0.240  0.00  0.00     0.163 HD
BRANCH  10  13
ATOM     13  CA  THR d   1     -61.928  29.855  -2.006  0.00  0.00     0.113 C 
ATOM     14  H23 THR d   1     -61.351  28.919  -2.029  0.00  0.00     0.091 H 
BRANCH  13  15
ATOM     15  N   THR d   1     -62.006  30.371  -3.365  0.00  0.00    -0.344 N 
ATOM     16  C   ASN d   1     -61.133  29.967  -4.288  0.00  0.00     0.241 C 
ATOM     17  O   ASN d   1     -60.234  29.131  -4.073  0.00  0.00    -0.271 OA
ATOM     18  H22 THR d   1     -62.717  31.031  -3.607  0.00  0.00     0.163 HD
BRANCH  16  19
ATOM     19  CA  ASN d   1     -61.215  30.619  -5.629  0.00  0.00     0.097 C 
ATOM     20  H17 ASN d   1     -62.022  31.363  -5.699  0.00  0.00     0.088 H 
BRANCH  19  21
ATOM     21  N   ASN d   1     -59.906  31.194  -5.745  0.00  0.00    -0.346 N 
ATOM     22  C   ARG d   1     -59.659  32.392  -6.248  0.00  0.00     0.249 C 
ATOM     23  O   ARG d   1     -60.545  33.208  -6.543  0.00  0.00    -0.271 OA
ATOM     24  H16 ASN d   1     -59.129  30.653  -5.424  0.00  0.00     0.163 HD
BRANCH  22  25
ATOM     25  CA  ARG d   1     -58.166  32.706  -6.393  0.00  0.00     0.176 C 
ATOM     26  H4  ARG d   1     -57.622  31.787  -6.128  0.00  0.00     0.099 H 
BRANCH  25  27
ATOM     27  N   ARG d   1     -57.726  33.072  -7.784  0.00  0.00    -0.067 N 
ATOM     28  H1  ARG d   1     -56.736  33.261  -7.784  0.00  0.00     0.275 HD
ATOM     29  H2  ARG d   1     -58.225  33.893  -8.089  0.00  0.00     0.275 HD
ATOM     30  H3  ARG d   1     -57.922  32.307  -8.411  0.00  0.00     0.275 HD
ENDBRANCH  25  27
BRANCH  25  31
ATOM     31  CB  ARG d   1     -57.769  33.783  -5.377  0.00  0.00    -0.029 C 
ATOM     32  H5  ARG d   1     -58.643  33.996  -4.744  0.00  0.00     0.036 H 
ATOM     33  H6  ARG d   1     -57.488  34.691  -5.932  0.00  0.00     0.036 H 
BRANCH  31  34
ATOM     34  CG  ARG d   1     -56.631  33.411  -4.488  0.00  0.00    -0.047 C 
ATOM     35  H7  ARG d   1     -57.002  33.276  -3.461  0.00  0.00     0.035 H 
ATOM     36  H8  ARG d   1     -55.880  34.215  -4.504  0.00  0.00     0.035 H 
BRANCH  34  37
ATOM     37  CD  ARG d   1     -55.995  32.129  -4.958  0.00  0.00     0.009 C 
ATOM     38  H9  ARG d   1     -54.923  32.148  -4.711  0.00  0.00     0.064 H 
ATOM     39  H10 ARG d   1     -56.118  32.045  -6.048  0.00  0.00     0.064 H 
BRANCH  37  40
ATOM     40  NE  ARG d   1     -56.611  30.974  -4.319  0.00  0.00    -0.227 N 
ATOM     41  CZ  ARG d   1     -56.422  30.644  -3.049  0.00  0.00     0.665 C 
ATOM     42  NH1 ARG d   1     -57.013  29.559  -2.543  0.00  0.00    -0.235 N 
ATOM     43  NH2 ARG d   1     -55.652  31.408  -2.286  0.00  0.00    -0.235 N 
ATOM     44  H12 ARG d   1     -56.865  29.305  -1.556  0.00  0.00     0.174 HD
ATOM     45  H13 ARG d   1     -57.617  28.976  -3.140  0.00  0.00     0.174 HD
ATOM     46  H14 ARG d   1     -55.200  32.243  -2.684  0.00  0.00     0.174 HD
ATOM     47  H15 ARG d   1     -55.506  31.166  -1.296  0.00  0.00     0.174 HD
ATOM     48  H11 ARG d   1     -57.230  30.378  -4.888  0.00  0.00     0.177 HD
ENDBRANCH  37  40
ENDBRANCH  34  37
ENDBRANCH  31  34
ENDBRANCH  25  31
ENDBRANCH  22  25
ENDBRANCH  19  21
BRANCH  19  49
ATOM     49  CB  ASN d   1     -61.357  29.536  -6.682  0.00  0.00     0.036 C 
ATOM     50  H18 ASN d   1     -60.733  28.678  -6.391  0.00  0.00     0.051 H 
ATOM     51  H19 ASN d   1     -61.006  29.934  -7.646  0.00  0.00     0.051 H 
BRANCH  49  52
ATOM     52  CG  ASN d   1     -62.771  29.068  -6.843  0.00  0.00     0.217 C 
ATOM     53  OD1 ASN d   1     -63.654  29.415  -6.057  0.00  0.00    -0.274 OA
ATOM     54  ND2 ASN d   1     -63.005  28.276  -7.869  0.00  0.00    -0.370 N 
ATOM     55  H20 ASN d   1     -63.928  27.929  -8.032  0.00  0.00     0.159 HD
ATOM     56  H21 ASN d   1     -62.259  28.022  -8.485  0.00  0.00     0.159 HD
ENDBRANCH  49  52
ENDBRANCH  19  49
ENDBRANCH  16  19
ENDBRANCH  13  15
BRANCH  13  57
ATOM     57  CB  THR d   1     -61.272  30.831  -1.012  0.00  0.00     0.060 C 
ATOM     58  H24 THR d   1     -61.122  30.323  -0.048  0.00  0.00     0.086 H 
BRANCH  57  59
ATOM     59  OG1 THR d   1     -62.137  31.956  -0.853  0.00  0.00    -0.393 OA
ATOM     60  H25 THR d   1     -62.977  31.664  -0.518  0.00  0.00     0.210 HD
ENDBRANCH  57  59
BRANCH  57  61
ATOM     61  CG2 THR d   1     -59.955  31.356  -1.515  0.00  0.00    -0.050 C 
ATOM     62  H26 THR d   1     -59.528  32.046  -0.773  0.00  0.00     0.031 H 
ATOM     63  H27 THR d   1     -60.111  31.889  -2.464  0.00  0.00     0.031 H 
ATOM     64  H28 THR d   1     -59.263  30.516  -1.676  0.00  0.00     0.031 H 
ENDBRANCH  57  61
ENDBRANCH  13  57
ENDBRANCH  10  13
ENDBRANCH   7   9
BRANCH   7  65
ATOM     65  CB  ASN d   1     -64.815  27.064   0.587  0.00  0.00     0.036 C 
ATOM     66  H31 ASN d   1     -65.713  26.999   1.219  0.00  0.00     0.051 H 
ATOM     67  H32 ASN d   1     -63.947  26.678   1.142  0.00  0.00     0.051 H 
BRANCH  65  68
ATOM     68  CG  ASN d   1     -65.023  26.210  -0.630  0.00  0.00     0.217 C 
ATOM     69  OD1 ASN d   1     -64.317  25.216  -0.844  0.00  0.00    -0.274 OA
ATOM     70  ND2 ASN d   1     -65.977  26.566  -1.423  0.00  0.00    -0.370 N 
ATOM     71  H33 ASN d   1     -66.164  26.036  -2.250  0.00  0.00     0.159 HD
ATOM     72  H34 ASN d   1     -66.530  27.372  -1.210  0.00  0.00     0.159 HD
ENDBRANCH  65  68
ENDBRANCH   7  65
ENDBRANCH   4   7
ENDBRANCH   1   3
BRANCH   1  73
ATOM     73  C   GLU d   1     -65.220  29.754   4.637  0.00  0.00     0.241 C 
ATOM     74  O   GLU d   1     -65.990  28.966   5.202  0.00  0.00    -0.271 OA
ATOM     75  N   PTR d   1     -64.032  30.057   5.141  0.00  0.00    -0.346 N 
ATOM     76  H41 PTR d   1     -63.417  30.666   4.640  0.00  0.00     0.163 HD
BRANCH  75  77
ATOM     77  CA  PTR d   1     -63.624  29.503   6.423  0.00  0.00     0.093 C 
ATOM     78  H42 PTR d   1     -64.388  28.791   6.767  0.00  0.00     0.088 H 
BRANCH  77  79
ATOM     79  C   PTR d   1     -63.573  30.694   7.365  0.00  0.00     0.241 C 
ATOM     80  O   PTR d   1     -63.031  31.754   7.017  0.00  0.00    -0.271 OA
ATOM     81  N   TPO d   1     -64.139  30.519   8.564  0.00  0.00    -0.344 N 
ATOM     82  H49 TPO d   1     -64.469  29.615   8.835  0.00  0.00     0.163 HD
BRANCH  81  83
ATOM     83  CA  TPO d   1     -64.273  31.641   9.467  0.00  0.00     0.114 C 
ATOM     84  H50 TPO d   1     -63.672  32.476   9.077  0.00  0.00     0.091 H 
BRANCH  83  85
ATOM     85  CB  TPO d   1     -65.731  32.102   9.521  0.00  0.00     0.076 C 
ATOM     86  H51 TPO d   1     -66.108  32.186   8.491  0.00  0.00     0.087 H 
BRANCH  85  87
ATOM     87  CG2 TPO d   1     -66.653  31.164  10.329  0.00  0.00    -0.049 C 
ATOM     88  H52 TPO d   1     -67.679  31.562  10.321  0.00  0.00     0.031 H 
ATOM     89  H53 TPO d   1     -66.293  31.100  11.366  0.00  0.00     0.031 H 
ATOM     90  H54 TPO d   1     -66.645  30.162   9.876  0.00  0.00     0.031 H 
ENDBRANCH  85  87
BRANCH  85  91
ATOM     91  OG1 TPO d   1     -65.814  33.369  10.182  0.00  0.00    -0.275 OA
BRANCH  91  92
ATOM     92  P   TPO d   1     -65.330  34.790   9.497  0.00  0.00     0.422 P 
ATOM     93  O1P TPO d   1     -64.352  34.512   8.422  0.00  0.00    -0.617 OA
ATOM     94  O2P TPO d   1     -66.652  35.284   9.027  0.00  0.00    -0.617 OA
ATOM     95  O3P TPO d   1     -64.675  35.541  10.668  0.00  0.00    -0.617 OA
ENDBRANCH  91  92
ENDBRANCH  85  91
ENDBRANCH  83  85
BRANCH  83  96
ATOM     96  C   TPO d   1     -63.719  31.264  10.819  0.00  0.00     0.243 C 
ATOM     97  O   TPO d   1     -63.282  30.142  11.052  0.00  0.00    -0.271 OA
ATOM     98  N   GLU d   1     -63.699  32.203  11.725  0.00  0.00    -0.346 N 
ATOM     99  H55 GLU d   1     -64.086  33.101  11.517  0.00  0.00     0.163 HD
BRANCH  98 100
ATOM    100  CA  GLU d   1     -63.138  31.963  12.991  0.00  0.00     0.090 C 
ATOM    101  H56 GLU d   1     -62.117  31.579  12.853  0.00  0.00     0.087 H 
BRANCH 100 102
ATOM    102  C   GLU d   1     -63.925  30.919  13.815  0.00  0.00     0.240 C 
ATOM    103  O   GLU d   1     -65.153  30.883  13.804  0.00  0.00    -0.271 OA
ATOM    104  N   GLY d   1     -63.189  30.087  14.548  0.00  0.00    -0.351 N 
ATOM    105  H61 GLY d   1     -62.194  30.186  14.550  0.00  0.00     0.163 HD
BRANCH 104 106
ATOM    106  CA  GLY d   1     -63.795  29.047  15.338  0.00  0.00     0.069 C 
ATOM    107  H62 GLY d   1     -63.014  28.340  15.654  0.00  0.00     0.078 H 
ATOM    108  H63 GLY d   1     -64.538  28.520  14.722  0.00  0.00     0.078 H 
BRANCH 106 109
ATOM    109  C   GLY d   1     -64.478  29.593  16.560  0.00  0.00     0.238 C 
ATOM    110  O   GLY d   1     -64.227  30.711  16.982  0.00  0.00    -0.272 OA
ATOM    111  N   PRO d   1     -65.347  28.793  17.145  0.00  0.00    -0.336 N 
ATOM    112  CA  PRO d   1     -66.130  29.180  18.330  0.00  0.00     0.098 C 
ATOM    113  CD  PRO d   1     -65.466  27.373  16.782  0.00  0.00    -0.001 C 
ATOM    114  CB  PRO d   1     -67.189  28.064  18.439  0.00  0.00    -0.035 C 
ATOM    115  H64 PRO d   1     -66.617  30.152  18.160  0.00  0.00     0.089 H 
ATOM    116  CG  PRO d   1     -66.726  26.927  17.444  0.00  0.00    -0.048 C 
ATOM    117  H65 PRO d   1     -68.179  28.446  18.149  0.00  0.00     0.036 H 
ATOM    118  H66 PRO d   1     -67.233  27.677  19.468  0.00  0.00     0.036 H 
ATOM    119  H67 PRO d   1     -67.504  26.756  16.686  0.00  0.00     0.035 H 
ATOM    120  H68 PRO d   1     -66.545  25.996  18.001  0.00  0.00     0.035 H 
ATOM    121  H69 PRO d   1     -64.605  26.801  17.158  0.00  0.00     0.064 H 
ATOM    122  H70 PRO d   1     -65.536  27.255  15.691  0.00  0.00     0.064 H 
BRANCH 112 123
ATOM    123  C   PRO d   1     -65.272  29.281  19.604  0.00  0.00     0.196 C 
ATOM    124  O   PRO d   1     -64.136  28.761  19.726  0.00  0.00    -0.646 OA
ATOM    125  OXT PRO d   1     -65.628  29.893  20.641  0.00  0.00    -0.646 OA
ENDBRANCH 112 123
ENDBRANCH 106 109
ENDBRANCH 104 106
ENDBRANCH 100 102
BRANCH 100 126
ATOM    126  CB  GLU d   1     -63.067  33.306  13.716  0.00  0.00    -0.029 C 
ATOM    127  H57 GLU d   1     -63.942  33.412  14.375  0.00  0.00     0.037 H 
ATOM    128  H58 GLU d   1     -63.065  34.120  12.976  0.00  0.00     0.037 H 
BRANCH 126 129
ATOM    129  CG  GLU d   1     -61.847  33.375  14.516  0.00  0.00     0.018 C 
ATOM    130  H59 GLU d   1     -61.557  34.430  14.631  0.00  0.00     0.049 H 
ATOM    131  H60 GLU d   1     -61.048  32.830  13.992  0.00  0.00     0.049 H 
BRANCH 129 132
ATOM    132  CD  GLU d   1     -62.034  32.765  15.893  0.00  0.00     0.172 C 
ATOM    133  OE1 GLU d   1     -63.192  32.854  16.388  0.00  0.00    -0.648 OA
ATOM    134  OE2 GLU d   1     -61.027  32.251  16.493  0.00  0.00    -0.648 OA
ENDBRANCH 129 132
ENDBRANCH 126 129
ENDBRANCH 100 126
ENDBRANCH  98 100
ENDBRANCH  83  96
ENDBRANCH  81  83
ENDBRANCH  77  79
BRANCH  77 135
ATOM    135  CB  PTR d   1     -62.264  28.760   6.383  0.00  0.00    -0.014 C 
ATOM    136  H43 PTR d   1     -62.009  28.460   7.410  0.00  0.00     0.043 H 
ATOM    137  H44 PTR d   1     -61.504  29.460   6.006  0.00  0.00     0.043 H 
BRANCH 135 138
ATOM    138  CG  PTR d   1     -62.234  27.525   5.514  0.00  0.00    -0.056 A 
ATOM    139  CD1 PTR d   1     -62.833  26.352   5.943  0.00  0.00    -0.074 A 
ATOM    140  CE1 PTR d   1     -62.828  25.221   5.171  0.00  0.00    -0.050 A 
ATOM    141  H45 PTR d   1     -63.317  26.329   6.913  0.00  0.00     0.084 H 
ATOM    142  CZ  PTR d   1     -62.207  25.233   3.943  0.00  0.00     0.082 A 
ATOM    143  H47 PTR d   1     -63.312  24.319   5.526  0.00  0.00     0.087 H 
ATOM    144  CE2 PTR d   1     -61.616  26.391   3.472  0.00  0.00    -0.050 A 
ATOM    145  CD2 PTR d   1     -61.627  27.524   4.255  0.00  0.00    -0.074 A 
ATOM    146  H48 PTR d   1     -61.148  26.407   2.494  0.00  0.00     0.087 H 
ATOM    147  H46 PTR d   1     -61.157  28.430   3.889  0.00  0.00     0.084 H 
BRANCH 142 148
ATOM    148  OH  PTR d   1     -62.240  24.162   3.297  0.00  0.00    -0.240 OA
BRANCH 148 149
ATOM    149  P   PTR d   1     -61.531  23.878   1.881  0.00  0.00     0.427 P 
ATOM    150  O1P PTR d   1     -62.120  24.632   0.811  0.00  0.00    -0.617 OA
ATOM    151  O2P PTR d   1     -61.730  22.403   1.514  0.00  0.00    -0.617 OA
ATOM    152  O3P PTR d   1     -60.050  24.094   2.041  0.00  0.00    -0.617 OA
ENDBRANCH 148 149
ENDBRANCH 142 148
ENDBRANCH 135 138
ENDBRANCH  77 135
ENDBRANCH  75  77
ENDBRANCH   1  73
BRANCH   1 153
ATOM    153  CB  GLU d   1     -67.098  30.833   3.489  0.00  0.00    -0.029 C 
ATOM    154  H37 GLU d   1     -67.549  30.169   4.241  0.00  0.00     0.037 H 
ATOM    155  H38 GLU d   1     -67.581  30.666   2.515  0.00  0.00     0.037 H 
BRANCH 153 156
ATOM    156  CG  GLU d   1     -67.368  32.212   3.891  0.00  0.00     0.018 C 
ATOM    157  H39 GLU d   1     -68.344  32.518   3.486  0.00  0.00     0.049 H 
ATOM    158  H40 GLU d   1     -66.581  32.864   3.484  0.00  0.00     0.049 H 
BRANCH 156 159
ATOM    159  CD  GLU d   1     -67.395  32.357   5.426  0.00  0.00     0.172 C 
ATOM    160  OE1 GLU d   1     -68.469  32.079   6.086  0.00  0.00    -0.648 OA
ATOM    161  OE2 GLU d   1     -66.317  32.764   5.940  0.00  0.00    -0.648 OA
ENDBRANCH 156 159
ENDBRANCH 153 156
ENDBRANCH   1 153
TORSDOF 44
