REMARK WARNING: 32 MAX_TORS EXCEEDED!!!
REMARK  50 active torsions:
REMARK  status: ('A' for Active; 'I' for Inactive)
REMARK    1  A    between atoms: N_1  and  CA_2 
REMARK    2  A    between atoms: CA_2  and  C_3 
REMARK    3  A    between atoms: CA_2  and  CB_5 
REMARK       I    between atoms: C_3  and  N_7 
REMARK    4  A    between atoms: CB_5  and  OG_6 
REMARK    5  A    between atoms: N_7  and  CA_8 
REMARK    6  A    between atoms: CA_8  and  C_9 
REMARK    7  A    between atoms: CA_8  and  CB_11 
REMARK       I    between atoms: C_9  and  N_18 
REMARK    8  A    between atoms: CB_11  and  CG_12 
REMARK    9  A    between atoms: N_18  and  CA_19 
REMARK   10  A    between atoms: CA_19  and  C_20 
REMARK   11  A    between atoms: CA_19  and  CB_22 
REMARK       I    between atoms: C_20  and  N_26 
REMARK   12  A    between atoms: CB_22  and  CG_23 
REMARK   13  A    between atoms: CG_23  and  CD1_24 
REMARK   14  A    between atoms: CG_23  and  CD2_25 
REMARK   15  A    between atoms: N_26  and  CA_27 
REMARK   16  A    between atoms: CA_27  and  C_28 
REMARK   17  A    between atoms: CA_27  and  CB_30 
REMARK       I    between atoms: C_28  and  N_35 
REMARK   18  A    between atoms: CB_30  and  CG_31 
REMARK   19  A    between atoms: CG_31  and  CD_32 
REMARK       I    between atoms: CD_32  and  NE2_34 
REMARK   20  A    between atoms: N_35  and  CA_36 
REMARK   21  A    between atoms: CA_36  and  C_37 
REMARK   22  A    between atoms: CA_36  and  CB_39 
REMARK       I    between atoms: C_37  and  N_46 
REMARK   23  A    between atoms: CB_39  and  CG_40 
REMARK   24  A    between atoms: CG_40  and  CD_41 
REMARK   25  A    between atoms: CD_41  and  NE_42 
REMARK       I    between atoms: NE_42  and  CZ_43 
REMARK       I    between atoms: CZ_43  and  NH1_44 
REMARK       I    between atoms: CZ_43  and  NH2_45 
REMARK   26  A    between atoms: N_46  and  CA_47 
REMARK   27  A    between atoms: CA_47  and  C_48 
REMARK   28  A    between atoms: CA_47  and  CB_50 
REMARK       I    between atoms: C_48  and  N_62 
REMARK   29  A    between atoms: CB_50  and  CG_51 
REMARK   30  A    between atoms: CZ_56  and  OH_57 
REMARK   31  A    between atoms: OH_57  and  P_58 
REMARK   32  A    between atoms: N_62  and  CA_63 
REMARK   33  A    between atoms: CA_63  and  CB_64 
REMARK   34  A    between atoms: CA_63  and  C_66 
REMARK   35  A    between atoms: CB_64  and  OG_65 
REMARK   36  A    between atoms: OG_65  and  P_68 
REMARK       I    between atoms: C_66  and  N_72 
REMARK   37  A    between atoms: N_72  and  CA_73 
REMARK   38  A    between atoms: CA_73  and  C_74 
REMARK   39  A    between atoms: CA_73  and  CB_76 
REMARK       I    between atoms: C_74  and  N_78 
REMARK   40  A    between atoms: CB_76  and  OG_77 
REMARK   41  A    between atoms: N_78  and  CA_79 
REMARK   42  A    between atoms: CA_79  and  C_80 
REMARK   43  A    between atoms: CA_79  and  CB_82 
REMARK       I    between atoms: C_80  and  N_86 
REMARK   44  A    between atoms: CB_82  and  CG_83 
REMARK   45  A    between atoms: CA_87  and  C_88 
REMARK       I    between atoms: C_88  and  N_93 
REMARK   46  A    between atoms: N_93  and  CA_94 
REMARK   47  A    between atoms: CA_94  and  C_95 
REMARK   48  A    between atoms: CA_94  and  CB_97 
REMARK   49  A    between atoms: CB_97  and  OG1_98 
REMARK   50  A    between atoms: CB_97  and  CG2_99 
ROOT
ATOM      1  C   ARG d   1     -65.593  29.710   4.267  0.00  0.00     0.241 C 
ATOM      2  O   ARG d   1     -66.470  29.160   4.902  0.00  0.00    -0.271 OA
ATOM      3  N   PTR d   1     -64.400  30.026   4.783  0.00  0.00    -0.346 N 
ATOM      4  H49 PTR d   1     -63.762  30.571   4.239  0.00  0.00     0.163 HD
ENDROOT
BRANCH   1   5
ATOM      5  CA  ARG d   1     -65.875  30.084   2.829  0.00  0.00     0.089 C 
ATOM      6  H37 ARG d   1     -66.438  29.255   2.376  0.00  0.00     0.087 H 
BRANCH   5   7
ATOM      7  N   ARG d   1     -66.700  31.258   2.781  0.00  0.00    -0.346 N 
ATOM      8  C   GLN d   1     -67.748  31.290   1.958  0.00  0.00     0.241 C 
ATOM      9  O   GLN d   1     -67.964  30.417   1.099  0.00  0.00    -0.271 OA
ATOM     10  H36 ARG d   1     -66.490  32.045   3.360  0.00  0.00     0.163 HD
BRANCH   8  11
ATOM     11  CA  GLN d   1     -68.692  32.487   2.114  0.00  0.00     0.090 C 
ATOM     12  H29 GLN d   1     -68.215  33.238   2.761  0.00  0.00     0.087 H 
BRANCH  11  13
ATOM     13  N   GLN d   1     -68.945  33.106   0.802  0.00  0.00    -0.346 N 
ATOM     14  C   LEU d   1     -67.942  33.564   0.043  0.00  0.00     0.241 C 
ATOM     15  O   LEU d   1     -66.748  33.489   0.377  0.00  0.00    -0.271 OA
ATOM     16  H28 GLN d   1     -69.885  33.186   0.471  0.00  0.00     0.163 HD
BRANCH  14  17
ATOM     17  CA  LEU d   1     -68.315  34.235  -1.281  0.00  0.00     0.089 C 
ATOM     18  H18 LEU d   1     -69.243  34.809  -1.143  0.00  0.00     0.087 H 
BRANCH  17  19
ATOM     19  N   LEU d   1     -67.239  35.170  -1.641  0.00  0.00    -0.346 N 
ATOM     20  C   PHE d   1     -67.356  36.144  -2.546  0.00  0.00     0.241 C 
ATOM     21  O   PHE d   1     -68.384  36.366  -3.218  0.00  0.00    -0.271 OA
ATOM     22  H17 LEU d   1     -66.359  35.069  -1.176  0.00  0.00     0.163 HD
BRANCH  20  23
ATOM     23  CA  PHE d   1     -66.143  37.008  -2.786  0.00  0.00     0.093 C 
ATOM     24  H9  PHE d   1     -65.206  36.521  -2.478  0.00  0.00     0.088 H 
BRANCH  23  25
ATOM     25  N   PHE d   1     -66.226  37.166  -4.246  0.00  0.00    -0.346 N 
ATOM     26  C   SER d   1     -65.439  36.519  -5.118  0.00  0.00     0.251 C 
ATOM     27  O   SER d   1     -64.386  35.920  -4.824  0.00  0.00    -0.271 OA
ATOM     28  H8  PHE d   1     -66.912  37.795  -4.611  0.00  0.00     0.163 HD
BRANCH  26  29
ATOM     29  CA  SER d   1     -65.902  36.572  -6.553  0.00  0.00     0.195 C 
ATOM     30  H4  SER d   1     -65.110  36.180  -7.207  0.00  0.00     0.102 H 
BRANCH  29  31
ATOM     31  N   SER d   1     -67.120  35.705  -6.678  0.00  0.00    -0.064 N 
ATOM     32  H1  SER d   1     -67.450  35.724  -7.630  0.00  0.00     0.275 HD
ATOM     33  H2  SER d   1     -67.843  36.050  -6.066  0.00  0.00     0.275 HD
ATOM     34  H3  SER d   1     -66.886  34.758  -6.422  0.00  0.00     0.275 HD
ENDBRANCH  29  31
BRANCH  29  35
ATOM     35  CB  SER d   1     -66.206  38.017  -6.960  0.00  0.00     0.051 C 
ATOM     36  H5  SER d   1     -67.251  38.248  -6.705  0.00  0.00     0.077 H 
ATOM     37  H6  SER d   1     -66.062  38.120  -8.046  0.00  0.00     0.077 H 
BRANCH  35  38
ATOM     38  OG  SER d   1     -65.356  38.934  -6.293  0.00  0.00    -0.398 OA
ATOM     39  H7  SER d   1     -64.452  38.743  -6.513  0.00  0.00     0.209 HD
ENDBRANCH  35  38
ENDBRANCH  29  35
ENDBRANCH  26  29
ENDBRANCH  23  25
BRANCH  23  40
ATOM     40  CB  PHE d   1     -66.325  38.344  -2.028  0.00  0.00    -0.014 C 
ATOM     41  H10 PHE d   1     -66.305  38.132  -0.949  0.00  0.00     0.043 H 
ATOM     42  H11 PHE d   1     -67.305  38.763  -2.301  0.00  0.00     0.043 H 
BRANCH  40  43
ATOM     43  CG  PHE d   1     -65.259  39.393  -2.327  0.00  0.00    -0.056 A 
ATOM     44  CD1 PHE d   1     -64.165  39.563  -1.473  0.00  0.00    -0.077 A 
ATOM     45  CE1 PHE d   1     -63.185  40.529  -1.754  0.00  0.00    -0.082 A 
ATOM     46  H12 PHE d   1     -64.073  38.945  -0.588  0.00  0.00     0.084 H 
ATOM     47  CZ  PHE d   1     -63.290  41.348  -2.887  0.00  0.00    -0.083 A 
ATOM     48  H14 PHE d   1     -62.338  40.643  -1.087  0.00  0.00     0.083 H 
ATOM     49  CE2 PHE d   1     -64.376  41.198  -3.744  0.00  0.00    -0.082 A 
ATOM     50  H16 PHE d   1     -62.530  42.093  -3.094  0.00  0.00     0.083 H 
ATOM     51  CD2 PHE d   1     -65.356  40.217  -3.462  0.00  0.00    -0.077 A 
ATOM     52  H15 PHE d   1     -64.471  41.828  -4.621  0.00  0.00     0.083 H 
ATOM     53  H13 PHE d   1     -66.198  40.099  -4.134  0.00  0.00     0.084 H 
ENDBRANCH  40  43
ENDBRANCH  23  40
ENDBRANCH  20  23
ENDBRANCH  17  19
BRANCH  17  54
ATOM     54  CB  LEU d   1     -68.570  33.168  -2.359  0.00  0.00    -0.035 C 
ATOM     55  H19 LEU d   1     -68.936  32.268  -1.843  0.00  0.00     0.037 H 
ATOM     56  H20 LEU d   1     -67.602  32.950  -2.834  0.00  0.00     0.037 H 
BRANCH  54  57
ATOM     57  CG  LEU d   1     -69.568  33.481  -3.488  0.00  0.00    -0.059 C 
ATOM     58  H21 LEU d   1     -69.443  34.544  -3.742  0.00  0.00     0.038 H 
BRANCH  57  59
ATOM     59  CD1 LEU d   1     -69.229  32.672  -4.743  0.00  0.00    -0.073 C 
ATOM     60  H22 LEU d   1     -69.952  32.908  -5.538  0.00  0.00     0.028 H 
ATOM     61  H23 LEU d   1     -69.277  31.598  -4.511  0.00  0.00     0.028 H 
ATOM     62  H24 LEU d   1     -68.214  32.929  -5.082  0.00  0.00     0.028 H 
ENDBRANCH  57  59
BRANCH  57  63
ATOM     63  CD2 LEU d   1     -71.032  33.297  -3.064  0.00  0.00    -0.073 C 
ATOM     64  H25 LEU d   1     -71.230  33.894  -2.162  0.00  0.00     0.028 H 
ATOM     65  H26 LEU d   1     -71.221  32.235  -2.849  0.00  0.00     0.028 H 
ATOM     66  H27 LEU d   1     -71.694  33.630  -3.877  0.00  0.00     0.028 H 
ENDBRANCH  57  63
ENDBRANCH  54  57
ENDBRANCH  17  54
ENDBRANCH  14  17
ENDBRANCH  11  13
BRANCH  11  67
ATOM     67  CB  GLN d   1     -69.984  31.998   2.802  0.00  0.00    -0.030 C 
ATOM     68  H30 GLN d   1     -70.483  31.275   2.140  0.00  0.00     0.037 H 
ATOM     69  H31 GLN d   1     -70.645  32.862   2.966  0.00  0.00     0.037 H 
BRANCH  67  70
ATOM     70  CG  GLN d   1     -69.715  31.322   4.155  0.00  0.00     0.011 C 
ATOM     71  H32 GLN d   1     -69.182  32.039   4.797  0.00  0.00     0.047 H 
ATOM     72  H33 GLN d   1     -69.077  30.443   3.979  0.00  0.00     0.047 H 
BRANCH  70  73
ATOM     73  CD  GLN d   1     -70.973  30.858   4.899  0.00  0.00     0.215 C 
ATOM     74  OE1 GLN d   1     -72.065  31.370   4.674  0.00  0.00    -0.274 OA
ATOM     75  NE2 GLN d   1     -70.811  29.891   5.811  0.00  0.00    -0.370 N 
ATOM     76  H34 GLN d   1     -71.599  29.551   6.325  0.00  0.00     0.159 HD
ATOM     77  H35 GLN d   1     -69.902  29.508   5.978  0.00  0.00     0.159 HD
ENDBRANCH  70  73
ENDBRANCH  67  70
ENDBRANCH  11  67
ENDBRANCH   8  11
ENDBRANCH   5   7
BRANCH   5  78
ATOM     78  CB  ARG d   1     -64.627  30.277   2.012  0.00  0.00    -0.036 C 
ATOM     79  H38 ARG d   1     -63.863  30.774   2.628  0.00  0.00     0.036 H 
ATOM     80  H39 ARG d   1     -64.859  30.904   1.139  0.00  0.00     0.036 H 
BRANCH  78  81
ATOM     81  CG  ARG d   1     -64.101  28.955   1.545  0.00  0.00    -0.048 C 
ATOM     82  H40 ARG d   1     -64.128  28.245   2.384  0.00  0.00     0.035 H 
ATOM     83  H41 ARG d   1     -63.062  29.084   1.208  0.00  0.00     0.035 H 
BRANCH  81  84
ATOM     84  CD  ARG d   1     -64.941  28.380   0.373  0.00  0.00     0.009 C 
ATOM     85  H42 ARG d   1     -64.983  29.121  -0.439  0.00  0.00     0.064 H 
ATOM     86  H43 ARG d   1     -65.960  28.168   0.729  0.00  0.00     0.064 H 
BRANCH  84  87
ATOM     87  NE  ARG d   1     -64.341  27.145  -0.133  0.00  0.00    -0.227 N 
ATOM     88  CZ  ARG d   1     -64.873  26.378  -1.090  0.00  0.00     0.665 C 
ATOM     89  NH1 ARG d   1     -66.029  26.728  -1.687  0.00  0.00    -0.235 N 
ATOM     90  NH2 ARG d   1     -64.231  25.258  -1.477  0.00  0.00    -0.235 N 
ATOM     91  H45 ARG d   1     -66.430  26.130  -2.423  0.00  0.00     0.174 HD
ATOM     92  H46 ARG d   1     -66.512  27.594  -1.407  0.00  0.00     0.174 HD
ATOM     93  H47 ARG d   1     -63.347  24.988  -1.022  0.00  0.00     0.174 HD
ATOM     94  H48 ARG d   1     -64.624  24.672  -2.227  0.00  0.00     0.174 HD
ATOM     95  H44 ARG d   1     -63.445  26.845   0.277  0.00  0.00     0.177 HD
ENDBRANCH  84  87
ENDBRANCH  81  84
ENDBRANCH  78  81
ENDBRANCH   5  78
ENDBRANCH   1   5
BRANCH   3  96
ATOM     96  CA  PTR d   1     -64.009  29.597   6.112  0.00  0.00     0.093 C 
ATOM     97  H50 PTR d   1     -64.737  28.833   6.421  0.00  0.00     0.088 H 
BRANCH  96  98
ATOM     98  C   PTR d   1     -64.145  30.754   7.076  0.00  0.00     0.241 C 
ATOM     99  O   PTR d   1     -63.963  31.904   6.733  0.00  0.00    -0.271 OA
ATOM    100  N   SEP d   1     -64.448  30.419   8.301  0.00  0.00    -0.344 N 
ATOM    101  H57 SEP d   1     -64.430  29.452   8.556  0.00  0.00     0.163 HD
BRANCH 100 102
ATOM    102  CA  SEP d   1     -64.803  31.384   9.285  0.00  0.00     0.110 C 
ATOM    103  H58 SEP d   1     -64.681  32.406   8.896  0.00  0.00     0.090 H 
BRANCH 102 104
ATOM    104  CB  SEP d   1     -66.274  31.147   9.646  0.00  0.00     0.059 C 
ATOM    105  H59 SEP d   1     -66.437  30.061   9.718  0.00  0.00     0.079 H 
ATOM    106  H60 SEP d   1     -66.894  31.558   8.836  0.00  0.00     0.079 H 
BRANCH 104 107
ATOM    107  OG  SEP d   1     -66.697  31.738  10.869  0.00  0.00    -0.280 OA
BRANCH 107 108
ATOM    108  P   SEP d   1     -66.951  33.346  10.789  0.00  0.00     0.422 P 
ATOM    109  O1P SEP d   1     -67.548  33.696   9.325  0.00  0.00    -0.617 OA
ATOM    110  O2P SEP d   1     -65.533  34.118  10.990  0.00  0.00    -0.617 OA
ATOM    111  O3P SEP d   1     -67.953  33.810  11.960  0.00  0.00    -0.617 OA
ENDBRANCH 107 108
ENDBRANCH 104 107
ENDBRANCH 102 104
BRANCH 102 112
ATOM    112  C   SEP d   1     -63.840  31.159  10.461  0.00  0.00     0.243 C 
ATOM    113  O   SEP d   1     -63.347  30.068  10.696  0.00  0.00    -0.271 OA
ATOM    114  N   SER d   1     -63.562  32.203  11.199  0.00  0.00    -0.344 N 
ATOM    115  H61 SER d   1     -63.991  33.081  10.986  0.00  0.00     0.163 HD
BRANCH 114 116
ATOM    116  CA  SER d   1     -62.641  32.114  12.323  0.00  0.00     0.109 C 
ATOM    117  H62 SER d   1     -61.671  31.761  11.943  0.00  0.00     0.090 H 
BRANCH 116 118
ATOM    118  C   SER d   1     -63.076  31.108  13.445  0.00  0.00     0.243 C 
ATOM    119  O   SER d   1     -64.262  30.904  13.664  0.00  0.00    -0.271 OA
ATOM    120  N   ASP d   1     -62.121  30.438  14.101  0.00  0.00    -0.345 N 
ATOM    121  H66 ASP d   1     -61.174  30.551  13.799  0.00  0.00     0.163 HD
BRANCH 120 122
ATOM    122  CA  ASP d   1     -62.384  29.539  15.247  0.00  0.00     0.099 C 
ATOM    123  H67 ASP d   1     -62.752  28.581  14.851  0.00  0.00     0.088 H 
BRANCH 122 124
ATOM    124  C   ASP d   1     -63.443  30.099  16.238  0.00  0.00     0.243 C 
ATOM    125  O   ASP d   1     -63.264  31.190  16.797  0.00  0.00    -0.271 OA
ATOM    126  N   PRO d   1     -64.545  29.354  16.474  0.00  0.00    -0.337 N 
ATOM    127  CA  PRO d   1     -65.482  29.761  17.544  0.00  0.00     0.091 C 
ATOM    128  CD  PRO d   1     -65.076  28.225  15.683  0.00  0.00    -0.001 C 
ATOM    129  CB  PRO d   1     -66.760  29.006  17.174  0.00  0.00    -0.036 C 
ATOM    130  H70 PRO d   1     -65.637  30.850  17.520  0.00  0.00     0.087 H 
ATOM    131  CG  PRO d   1     -66.257  27.759  16.505  0.00  0.00    -0.048 C 
ATOM    132  H71 PRO d   1     -67.379  29.598  16.485  0.00  0.00     0.036 H 
ATOM    133  H72 PRO d   1     -67.344  28.760  18.073  0.00  0.00     0.036 H 
ATOM    134  H73 PRO d   1     -67.033  27.323  15.859  0.00  0.00     0.035 H 
ATOM    135  H74 PRO d   1     -65.942  27.016  17.252  0.00  0.00     0.035 H 
ATOM    136  H75 PRO d   1     -64.326  27.427  15.581  0.00  0.00     0.064 H 
ATOM    137  H76 PRO d   1     -65.396  28.558  14.685  0.00  0.00     0.064 H 
BRANCH 127 138
ATOM    138  C   PRO d   1     -65.053  29.343  18.970  0.00  0.00     0.241 C 
ATOM    139  O   PRO d   1     -65.642  29.805  19.949  0.00  0.00    -0.271 OA
ATOM    140  N   THR d   1     -64.053  28.462  19.068  0.00  0.00    -0.343 N 
ATOM    141  H77 THR d   1     -63.510  28.262  18.252  0.00  0.00     0.163 HD
BRANCH 140 142
ATOM    142  CA  THR d   1     -63.721  27.783  20.307  0.00  0.00     0.120 C 
ATOM    143  H78 THR d   1     -64.612  27.759  20.951  0.00  0.00     0.093 H 
BRANCH 142 144
ATOM    144  C   THR d   1     -62.594  28.499  21.013  0.00  0.00     0.199 C 
ATOM    145  O   THR d   1     -62.000  29.447  20.466  0.00  0.00    -0.646 OA
ATOM    146  OXT THR d   1     -62.247  28.092  22.141  0.00  0.00    -0.646 OA
ENDBRANCH 142 144
BRANCH 142 147
ATOM    147  CB  THR d   1     -63.231  26.354  20.047  0.00  0.00     0.061 C 
ATOM    148  H79 THR d   1     -63.185  25.819  21.007  0.00  0.00     0.086 H 
BRANCH 147 149
ATOM    149  OG1 THR d   1     -61.908  26.407  19.480  0.00  0.00    -0.393 OA
ATOM    150  H80 THR d   1     -61.934  26.891  18.663  0.00  0.00     0.210 HD
ENDBRANCH 147 149
BRANCH 147 151
ATOM    151  CG2 THR d   1     -64.195  25.578  19.100  0.00  0.00    -0.050 C 
ATOM    152  H81 THR d   1     -63.810  24.560  18.939  0.00  0.00     0.031 H 
ATOM    153  H82 THR d   1     -64.262  26.102  18.135  0.00  0.00     0.031 H 
ATOM    154  H83 THR d   1     -65.194  25.524  19.558  0.00  0.00     0.031 H 
ENDBRANCH 147 151
ENDBRANCH 142 147
ENDBRANCH 140 142
ENDBRANCH 127 138
ENDBRANCH 122 124
BRANCH 122 155
ATOM    155  CB  ASP d   1     -61.067  29.289  16.038  0.00  0.00     0.043 C 
ATOM    156  H68 ASP d   1     -60.976  30.062  16.815  0.00  0.00     0.052 H 
ATOM    157  H69 ASP d   1     -60.221  29.369  15.339  0.00  0.00     0.052 H 
BRANCH 155 158
ATOM    158  CG  ASP d   1     -61.008  27.910  16.716  0.00  0.00     0.175 C 
ATOM    159  OD1 ASP d   1     -62.063  27.278  16.903  0.00  0.00    -0.648 OA
ATOM    160  OD2 ASP d   1     -59.887  27.444  17.062  0.00  0.00    -0.648 OA
ENDBRANCH 155 158
ENDBRANCH 122 155
ENDBRANCH 120 122
ENDBRANCH 116 118
BRANCH 116 161
ATOM    161  CB  SER d   1     -62.467  33.548  12.832  0.00  0.00     0.044 C 
ATOM    162  H63 SER d   1     -63.406  34.099  12.675  0.00  0.00     0.077 H 
ATOM    163  H64 SER d   1     -61.658  34.032  12.266  0.00  0.00     0.077 H 
BRANCH 161 164
ATOM    164  OG  SER d   1     -62.144  33.575  14.209  0.00  0.00    -0.398 OA
ATOM    165  H65 SER d   1     -62.043  34.476  14.492  0.00  0.00     0.209 HD
ENDBRANCH 161 164
ENDBRANCH 116 161
ENDBRANCH 114 116
ENDBRANCH 102 112
ENDBRANCH 100 102
ENDBRANCH  96  98
BRANCH  96 166
ATOM    166  CB  PTR d   1     -62.606  28.914   6.198  0.00  0.00    -0.014 C 
ATOM    167  H51 PTR d   1     -62.421  28.619   7.241  0.00  0.00     0.043 H 
ATOM    168  H52 PTR d   1     -61.841  29.638   5.880  0.00  0.00     0.043 H 
BRANCH 166 169
ATOM    169  CG  PTR d   1     -62.504  27.672   5.312  0.00  0.00    -0.056 A 
ATOM    170  CD1 PTR d   1     -63.195  26.502   5.652  0.00  0.00    -0.074 A 
ATOM    171  CE1 PTR d   1     -63.134  25.373   4.855  0.00  0.00    -0.050 A 
ATOM    172  H53 PTR d   1     -63.790  26.481   6.558  0.00  0.00     0.084 H 
ATOM    173  CZ  PTR d   1     -62.415  25.391   3.671  0.00  0.00     0.082 A 
ATOM    174  H55 PTR d   1     -63.651  24.470   5.158  0.00  0.00     0.087 H 
ATOM    175  CE2 PTR d   1     -61.712  26.549   3.297  0.00  0.00    -0.050 A 
ATOM    176  CD2 PTR d   1     -61.767  27.680   4.124  0.00  0.00    -0.074 A 
ATOM    177  H56 PTR d   1     -61.134  26.568   2.380  0.00  0.00     0.087 H 
ATOM    178  H54 PTR d   1     -61.229  28.576   3.837  0.00  0.00     0.084 H 
BRANCH 173 179
ATOM    179  OH  PTR d   1     -62.438  24.321   3.008  0.00  0.00    -0.240 OA
BRANCH 179 180
ATOM    180  P   PTR d   1     -61.750  24.043   1.543  0.00  0.00     0.427 P 
ATOM    181  O1P PTR d   1     -62.396  24.958   0.605  0.00  0.00    -0.617 OA
ATOM    182  O2P PTR d   1     -62.150  22.651   1.115  0.00  0.00    -0.617 OA
ATOM    183  O3P PTR d   1     -60.236  24.315   1.658  0.00  0.00    -0.617 OA
ENDBRANCH 179 180
ENDBRANCH 173 179
ENDBRANCH 166 169
ENDBRANCH  96 166
ENDBRANCH   3  96
TORSDOF 50
