REMARK  27 active torsions:
REMARK  status: ('A' for Active; 'I' for Inactive)
REMARK    1  A    between atoms: CA_2  and  C_3 
REMARK       I    between atoms: C_3  and  N_8 
REMARK    2  A    between atoms: N_8  and  CA_9 
REMARK    3  A    between atoms: CA_9  and  C_10 
REMARK    4  A    between atoms: CA_9  and  CB_12 
REMARK       I    between atoms: C_10  and  N_15 
REMARK    5  A    between atoms: CB_12  and  OG1_13 
REMARK    6  A    between atoms: CB_12  and  CG2_14 
REMARK    7  A    between atoms: CA_16  and  C_17 
REMARK       I    between atoms: C_17  and  N_22 
REMARK    8  A    between atoms: N_22  and  CA_23 
REMARK    9  A    between atoms: CA_23  and  C_24 
REMARK   10  A    between atoms: CA_23  and  CB_26 
REMARK       I    between atoms: C_24  and  N_28 
REMARK   11  A    between atoms: CB_26  and  OG_27 
REMARK   12  A    between atoms: N_28  and  CA_29 
REMARK   13  A    between atoms: CA_29  and  C_30 
REMARK   14  A    between atoms: CA_29  and  CB_32 
REMARK       I    between atoms: C_30  and  N_33 
REMARK   15  A    between atoms: CA_34  and  C_35 
REMARK       I    between atoms: C_35  and  N_40 
REMARK   16  A    between atoms: N_40  and  CA_41 
REMARK   17  A    between atoms: CA_41  and  C_42 
REMARK   18  A    between atoms: CA_41  and  CB_44 
REMARK       I    between atoms: C_42  and  N_47 
REMARK   19  A    between atoms: CB_44  and  CG1_45 
REMARK   20  A    between atoms: CB_44  and  CG2_46 
REMARK   21  A    between atoms: CA_48  and  C_49 
REMARK       I    between atoms: C_49  and  N_54 
REMARK   22  A    between atoms: N_54  and  CA_55 
REMARK   23  A    between atoms: CA_55  and  C_56 
REMARK   24  A    between atoms: CA_55  and  CB_58 
REMARK   25  A    between atoms: CB_58  and  CG_59 
REMARK   26  A    between atoms: CG_59  and  CD1_60 
REMARK   27  A    between atoms: CG_59  and  CD2_61 
ROOT
ATOM      1  N   PRO d   1      -0.501 -12.060  -5.681  0.00  0.00    -0.337 N 
ATOM      2  CA  PRO d   1      -0.345 -13.510  -5.521  0.00  0.00     0.091 C 
ATOM      3  CB  PRO d   1      -1.303 -14.070  -6.565  0.00  0.00    -0.036 C 
ATOM      4  CG  PRO d   1      -1.233 -13.044  -7.655  0.00  0.00    -0.048 C 
ATOM      5  CD  PRO d   1      -1.302 -11.746  -6.879  0.00  0.00    -0.001 C 
ATOM      6  H34 PRO d   1      -0.663 -13.814  -4.513  0.00  0.00     0.087 H 
ATOM      7  H35 PRO d   1      -2.324 -14.154  -6.163  0.00  0.00     0.036 H 
ATOM      8  H36 PRO d   1      -0.968 -15.054  -6.924  0.00  0.00     0.036 H 
ATOM      9  H37 PRO d   1      -2.082 -13.140  -8.348  0.00  0.00     0.035 H 
ATOM     10  H38 PRO d   1      -0.291 -13.123  -8.217  0.00  0.00     0.035 H 
ATOM     11  H39 PRO d   1      -0.859 -10.916  -7.449  0.00  0.00     0.064 H 
ATOM     12  H40 PRO d   1      -2.339 -11.495  -6.612  0.00  0.00     0.064 H 
ATOM     13  C   ALA d   1       0.041 -11.204  -4.801  0.00  0.00     0.243 C 
ATOM     14  O   ALA d   1       0.689 -11.590  -3.830  0.00  0.00    -0.271 OA
ENDROOT
BRANCH  13  15
ATOM     15  CA  ALA d   1      -0.173  -9.715  -5.046  0.00  0.00     0.086 C 
ATOM     16  H30 ALA d   1      -1.135  -9.564  -5.558  0.00  0.00     0.086 H 
BRANCH  15  17
ATOM     17  N   ALA d   1      -0.197  -9.035  -3.761  0.00  0.00    -0.346 N 
ATOM     18  C   SER d   1      -0.987  -7.995  -3.528  0.00  0.00     0.243 C 
ATOM     19  O   SER d   1      -1.753  -7.527  -4.370  0.00  0.00    -0.271 OA
ATOM     20  H29 ALA d   1       0.401  -9.362  -3.029  0.00  0.00     0.163 HD
BRANCH  18  21
ATOM     21  CA  SER d   1      -0.892  -7.395  -2.134  0.00  0.00     0.109 C 
ATOM     22  H25 SER d   1       0.158  -7.426  -1.808  0.00  0.00     0.090 H 
BRANCH  21  23
ATOM     23  N   SER d   1      -1.336  -6.006  -2.144  0.00  0.00    -0.344 N 
ATOM     24  C   PRO d   1      -0.736  -5.084  -1.400  0.00  0.00     0.241 C 
ATOM     25  O   PRO d   1       0.219  -5.335  -0.662  0.00  0.00    -0.271 OA
ATOM     26  H24 SER d   1      -2.108  -5.742  -2.723  0.00  0.00     0.163 HD
BRANCH  24  27
ATOM     27  CA  PRO d   1      -1.295  -3.671  -1.499  0.00  0.00     0.091 C 
ATOM     28  N   PRO d   1      -1.465  -3.068  -0.176  0.00  0.00    -0.337 N 
ATOM     29  C   THR d   1      -2.191  -3.668   0.779  0.00  0.00     0.245 C 
ATOM     30  CD  PRO d   1      -0.824  -1.743  -0.122  0.00  0.00    -0.001 C 
ATOM     31  O   THR d   1      -2.761  -4.744   0.592  0.00  0.00    -0.271 OA
ATOM     32  CG  PRO d   1      -0.686  -1.398  -1.583  0.00  0.00    -0.048 C 
ATOM     33  H22 PRO d   1       0.158  -1.795   0.370  0.00  0.00     0.064 H 
ATOM     34  H23 PRO d   1      -1.459  -1.014   0.402  0.00  0.00     0.064 H 
ATOM     35  CB  PRO d   1      -0.328  -2.716  -2.190  0.00  0.00    -0.036 C 
ATOM     36  H20 PRO d   1      -1.632  -1.015  -1.993  0.00  0.00     0.035 H 
ATOM     37  H21 PRO d   1       0.110  -0.656  -1.744  0.00  0.00     0.035 H 
ATOM     38  H18 PRO d   1      -0.486  -2.708  -3.279  0.00  0.00     0.036 H 
ATOM     39  H19 PRO d   1       0.717  -2.983  -1.973  0.00  0.00     0.036 H 
ATOM     40  H17 PRO d   1      -2.254  -3.705  -2.037  0.00  0.00     0.087 H 
BRANCH  29  41
ATOM     41  CA  THR d   1      -2.302  -2.956   2.122  0.00  0.00     0.114 C 
ATOM     42  H11 THR d   1      -1.939  -1.923   2.019  0.00  0.00     0.091 H 
BRANCH  41  43
ATOM     43  N   THR d   1      -3.698  -2.923   2.542  0.00  0.00    -0.344 N 
ATOM     44  C   PRO d   1      -4.394  -1.790   2.564  0.00  0.00     0.249 C 
ATOM     45  O   PRO d   1      -3.918  -0.700   2.252  0.00  0.00    -0.271 OA
ATOM     46  H10 THR d   1      -4.143  -3.774   2.821  0.00  0.00     0.163 HD
BRANCH  44  47
ATOM     47  CA  PRO d   1      -5.850  -1.903   3.002  0.00  0.00     0.178 C 
ATOM     48  N   PRO d   1      -6.105  -3.110   3.821  0.00  0.00    -0.062 N 
ATOM     49  CD  PRO d   1      -6.861  -2.740   5.033  0.00  0.00     0.083 C 
ATOM     50  H1  PRO d   1      -5.226  -3.525   4.088  0.00  0.00     0.278 HD
ATOM     51  H2  PRO d   1      -6.640  -3.773   3.282  0.00  0.00     0.278 HD
ATOM     52  CG  PRO d   1      -7.378  -1.325   4.684  0.00  0.00    -0.040 C 
ATOM     53  H8  PRO d   1      -6.208  -2.718   5.918  0.00  0.00     0.075 H 
ATOM     54  H9  PRO d   1      -7.695  -3.436   5.210  0.00  0.00     0.075 H 
ATOM     55  CB  PRO d   1      -6.265  -0.713   3.850  0.00  0.00    -0.028 C 
ATOM     56  H6  PRO d   1      -8.312  -1.383   4.105  0.00  0.00     0.035 H 
ATOM     57  H7  PRO d   1      -7.549  -0.737   5.598  0.00  0.00     0.035 H 
ATOM     58  H4  PRO d   1      -6.635   0.116   3.229  0.00  0.00     0.036 H 
ATOM     59  H5  PRO d   1      -5.437  -0.358   4.480  0.00  0.00     0.036 H 
ATOM     60  H3  PRO d   1      -6.477  -1.943   2.099  0.00  0.00     0.099 H 
ENDBRANCH  44  47
ENDBRANCH  41  43
BRANCH  41  61
ATOM     61  CB  THR d   1      -1.412  -3.703   3.146  0.00  0.00     0.060 C 
ATOM     62  H12 THR d   1      -0.388  -3.767   2.749  0.00  0.00     0.086 H 
BRANCH  61  63
ATOM     63  OG1 THR d   1      -1.920  -5.029   3.349  0.00  0.00    -0.393 OA
ATOM     64  H13 THR d   1      -1.914  -5.499   2.523  0.00  0.00     0.210 HD
ENDBRANCH  61  63
BRANCH  61  65
ATOM     65  CG2 THR d   1      -1.380  -2.962   4.470  0.00  0.00    -0.050 C 
ATOM     66  H14 THR d   1      -0.743  -3.509   5.181  0.00  0.00     0.031 H 
ATOM     67  H15 THR d   1      -2.401  -2.888   4.873  0.00  0.00     0.031 H 
ATOM     68  H16 THR d   1      -0.973  -1.952   4.315  0.00  0.00     0.031 H 
ENDBRANCH  61  65
ENDBRANCH  41  61
ENDBRANCH  29  41
ENDBRANCH  24  27
ENDBRANCH  21  23
BRANCH  21  69
ATOM     69  CB  SER d   1      -1.736  -8.212  -1.152  0.00  0.00     0.044 C 
ATOM     70  H26 SER d   1      -1.607  -7.799  -0.141  0.00  0.00     0.077 H 
ATOM     71  H27 SER d   1      -1.391  -9.256  -1.168  0.00  0.00     0.077 H 
BRANCH  69  72
ATOM     72  OG  SER d   1      -3.111  -8.177  -1.490  0.00  0.00    -0.398 OA
ATOM     73  H28 SER d   1      -3.603  -8.692  -0.862  0.00  0.00     0.209 HD
ENDBRANCH  69  72
ENDBRANCH  21  69
ENDBRANCH  18  21
ENDBRANCH  15  17
BRANCH  15  74
ATOM     74  CB  ALA d   1       0.945  -9.156  -5.912  0.00  0.00    -0.049 C 
ATOM     75  H31 ALA d   1       0.954  -9.677  -6.881  0.00  0.00     0.030 H 
ATOM     76  H32 ALA d   1       1.910  -9.306  -5.406  0.00  0.00     0.030 H 
ATOM     77  H33 ALA d   1       0.779  -8.081  -6.076  0.00  0.00     0.030 H 
ENDBRANCH  15  74
ENDBRANCH  13  15
BRANCH   2  78
ATOM     78  C   PRO d   1       1.090 -13.989  -5.732  0.00  0.00     0.241 C 
ATOM     79  O   PRO d   1       1.895 -13.318  -6.378  0.00  0.00    -0.271 OA
ATOM     80  N   VAL d   1       1.403 -15.153  -5.172  0.00  0.00    -0.346 N 
ATOM     81  H41 VAL d   1       0.708 -15.643  -4.646  0.00  0.00     0.163 HD
BRANCH  80  82
ATOM     82  CA  VAL d   1       2.731 -15.732  -5.305  0.00  0.00     0.092 C 
ATOM     83  H42 VAL d   1       3.481 -14.949  -5.123  0.00  0.00     0.088 H 
BRANCH  82  84
ATOM     84  C   VAL d   1       2.906 -16.284  -6.718  0.00  0.00     0.243 C 
ATOM     85  O   VAL d   1       1.941 -16.724  -7.343  0.00  0.00    -0.271 OA
ATOM     86  N   PRO d   1       4.139 -16.256  -7.213  0.00  0.00    -0.337 N 
ATOM     87  CA  PRO d   1       4.441 -16.754  -8.559  0.00  0.00     0.091 C 
ATOM     88  CD  PRO d   1       5.211 -15.393  -6.687  0.00  0.00    -0.001 C 
ATOM     89  CB  PRO d   1       5.913 -16.380  -8.743  0.00  0.00    -0.036 C 
ATOM     90  H50 PRO d   1       3.807 -16.262  -9.311  0.00  0.00     0.087 H 
ATOM     91  CG  PRO d   1       6.101 -15.184  -7.880  0.00  0.00    -0.048 C 
ATOM     92  H51 PRO d   1       6.125 -16.138  -9.795  0.00  0.00     0.036 H 
ATOM     93  H52 PRO d   1       6.567 -17.202  -8.417  0.00  0.00     0.036 H 
ATOM     94  H53 PRO d   1       5.808 -14.272  -8.421  0.00  0.00     0.035 H 
ATOM     95  H54 PRO d   1       7.151 -15.101  -7.564  0.00  0.00     0.035 H 
ATOM     96  H55 PRO d   1       5.755 -15.893  -5.872  0.00  0.00     0.064 H 
ATOM     97  H56 PRO d   1       4.806 -14.437  -6.325  0.00  0.00     0.064 H 
BRANCH  87  98
ATOM     98  C   PRO d   1       4.268 -18.266  -8.656  0.00  0.00     0.241 C 
ATOM     99  O   PRO d   1       4.342 -18.962  -7.643  0.00  0.00    -0.271 OA
ATOM    100  N   LEU d   1       4.041 -18.764  -9.867  0.00  0.00    -0.345 N 
ATOM    101  H57 LEU d   1       3.994 -18.142 -10.648  0.00  0.00     0.163 HD
BRANCH 100 102
ATOM    102  CA  LEU d   1       3.859 -20.193 -10.087  0.00  0.00     0.096 C 
ATOM    103  H58 LEU d   1       3.267 -20.597  -9.252  0.00  0.00     0.089 H 
BRANCH 102 104
ATOM    104  C   LEU d   1       5.199 -20.920 -10.120  0.00  0.00     0.196 C 
ATOM    105  O   LEU d   1       6.231 -20.327 -10.434  0.00  0.00    -0.646 OA
ATOM    106  OXT LEU d   1       5.181 -22.139  -9.849  0.00  0.00    -0.646 OA
ENDBRANCH 102 104
BRANCH 102 107
ATOM    107  CB  LEU d   1       3.093 -20.443 -11.388  0.00  0.00    -0.034 C 
ATOM    108  H59 LEU d   1       3.258 -21.491 -11.678  0.00  0.00     0.037 H 
ATOM    109  H60 LEU d   1       3.513 -19.779 -12.157  0.00  0.00     0.037 H 
BRANCH 107 110
ATOM    110  CG  LEU d   1       1.582 -20.205 -11.341  0.00  0.00    -0.059 C 
ATOM    111  H61 LEU d   1       1.188 -20.679 -10.430  0.00  0.00     0.038 H 
BRANCH 110 112
ATOM    112  CD1 LEU d   1       1.274 -18.717 -11.273  0.00  0.00    -0.073 C 
ATOM    113  H62 LEU d   1       0.184 -18.569 -11.240  0.00  0.00     0.028 H 
ATOM    114  H63 LEU d   1       1.685 -18.216 -12.162  0.00  0.00     0.028 H 
ATOM    115  H64 LEU d   1       1.730 -18.289 -10.368  0.00  0.00     0.028 H 
ENDBRANCH 110 112
BRANCH 110 116
ATOM    116  CD2 LEU d   1       0.900 -20.844 -12.541  0.00  0.00    -0.073 C 
ATOM    117  H65 LEU d   1       1.137 -21.918 -12.569  0.00  0.00     0.028 H 
ATOM    118  H66 LEU d   1       1.258 -20.366 -13.464  0.00  0.00     0.028 H 
ATOM    119  H67 LEU d   1      -0.189 -20.711 -12.458  0.00  0.00     0.028 H 
ENDBRANCH 110 116
ENDBRANCH 107 110
ENDBRANCH 102 107
ENDBRANCH 100 102
ENDBRANCH  87  98
ENDBRANCH  82  84
BRANCH  82 120
ATOM    120  CB  VAL d   1       2.945 -16.878  -4.297  0.00  0.00    -0.033 C 
ATOM    121  H43 VAL d   1       3.963 -17.276  -4.422  0.00  0.00     0.042 H 
BRANCH 120 122
ATOM    122  CG1 VAL d   1       2.795 -16.359  -2.877  0.00  0.00    -0.071 C 
ATOM    123  H44 VAL d   1       2.950 -17.184  -2.167  0.00  0.00     0.028 H 
ATOM    124  H45 VAL d   1       1.785 -15.944  -2.743  0.00  0.00     0.028 H 
ATOM    125  H46 VAL d   1       3.542 -15.572  -2.693  0.00  0.00     0.028 H 
ENDBRANCH 120 122
BRANCH 120 126
ATOM    126  CG2 VAL d   1       1.947 -17.996  -4.561  0.00  0.00    -0.071 C 
ATOM    127  H47 VAL d   1       2.069 -18.360  -5.592  0.00  0.00     0.028 H 
ATOM    128  H48 VAL d   1       0.924 -17.614  -4.425  0.00  0.00     0.028 H 
ATOM    129  H49 VAL d   1       2.127 -18.822  -3.857  0.00  0.00     0.028 H 
ENDBRANCH 120 126
ENDBRANCH  82 120
ENDBRANCH  80  82
ENDBRANCH   2  78
TORSDOF 27
