REMARK  27 active torsions:
REMARK  status: ('A' for Active; 'I' for Inactive)
REMARK    1  A    between atoms: CA_2  and  C_3 
REMARK       I    between atoms: C_3  and  N_8 
REMARK    2  A    between atoms: N_8  and  CA_9 
REMARK    3  A    between atoms: CA_9  and  C_10 
REMARK    4  A    between atoms: CA_9  and  CB_12 
REMARK       I    between atoms: C_10  and  N_17 
REMARK    5  A    between atoms: CB_12  and  CG_13 
REMARK    6  A    between atoms: CG_13  and  CD_14 
REMARK    7  A    between atoms: CA_18  and  C_19 
REMARK       I    between atoms: C_19  and  N_24 
REMARK    8  A    between atoms: N_24  and  CA_25 
REMARK    9  A    between atoms: CA_25  and  C_26 
REMARK   10  A    between atoms: CA_25  and  CB_28 
REMARK       I    between atoms: C_26  and  N_31 
REMARK   11  A    between atoms: CB_28  and  OG1_29 
REMARK   12  A    between atoms: CB_28  and  CG2_30 
REMARK   13  A    between atoms: N_31  and  CA_32 
REMARK   14  A    between atoms: CA_32  and  C_33 
REMARK   15  A    between atoms: CA_32  and  CB_35 
REMARK       I    between atoms: C_33  and  N_36 
REMARK   16  A    between atoms: CA_37  and  C_38 
REMARK       I    between atoms: C_38  and  N_43 
REMARK   17  A    between atoms: CA_44  and  C_45 
REMARK       I    between atoms: C_45  and  N_50 
REMARK   18  A    between atoms: N_50  and  CA_51 
REMARK   19  A    between atoms: CA_51  and  C_52 
REMARK   20  A    between atoms: CA_51  and  CB_54 
REMARK       I    between atoms: C_52  and  N_59 
REMARK   21  A    between atoms: CB_54  and  CG_55 
REMARK   22  A    between atoms: CG_55  and  CD_56 
REMARK   23  A    between atoms: N_59  and  CA_60 
REMARK   24  A    between atoms: CA_60  and  C_61 
REMARK   25  A    between atoms: CA_60  and  CB_63 
REMARK   26  A    between atoms: CB_63  and  CG_64 
REMARK   27  A    between atoms: CG_64  and  CD_65 
ROOT
ATOM      1  CA  ALA d   1      -0.726  -9.807  -4.848  0.00  0.00     0.086 C 
ATOM      2  H31 ALA d   1      -1.655  -9.589  -5.395  0.00  0.00     0.086 H 
ENDROOT
BRANCH   1   3
ATOM      3  N   ALA d   1      -0.779  -9.178  -3.537  0.00  0.00    -0.346 N 
ATOM      4  C   THR d   1      -1.545  -8.120  -3.303  0.00  0.00     0.243 C 
ATOM      5  O   THR d   1      -2.254  -7.599  -4.164  0.00  0.00    -0.271 OA
ATOM      6  H30 ALA d   1      -0.224  -9.552  -2.794  0.00  0.00     0.163 HD
BRANCH   4   7
ATOM      7  CA  THR d   1      -1.507  -7.563  -1.888  0.00  0.00     0.113 C 
ATOM      8  H24 THR d   1      -0.481  -7.623  -1.497  0.00  0.00     0.091 H 
BRANCH   7   9
ATOM      9  N   THR d   1      -1.916  -6.165  -1.922  0.00  0.00    -0.344 N 
ATOM     10  C   PRO d   1      -1.301  -5.250  -1.184  0.00  0.00     0.241 C 
ATOM     11  O   PRO d   1      -0.385  -5.524  -0.411  0.00  0.00    -0.271 OA
ATOM     12  H23 THR d   1      -2.675  -5.890  -2.513  0.00  0.00     0.163 HD
BRANCH  10  13
ATOM     13  CA  PRO d   1      -1.798  -3.814  -1.323  0.00  0.00     0.091 C 
ATOM     14  N   PRO d   1      -2.037  -3.200  -0.013  0.00  0.00    -0.337 N 
ATOM     15  C   GLU d   1      -2.865  -3.766   0.883  0.00  0.00     0.243 C 
ATOM     16  CD  PRO d   1      -1.300  -1.931   0.114  0.00  0.00    -0.001 C 
ATOM     17  O   GLU d   1      -3.459  -4.813   0.647  0.00  0.00    -0.271 OA
ATOM     18  CG  PRO d   1      -1.039  -1.569  -1.337  0.00  0.00    -0.048 C 
ATOM     19  H21 PRO d   1      -0.359  -2.069   0.667  0.00  0.00     0.064 H 
ATOM     20  H22 PRO d   1      -1.909  -1.163   0.614  0.00  0.00     0.064 H 
ATOM     21  CB  PRO d   1      -0.741  -2.905  -1.946  0.00  0.00    -0.036 C 
ATOM     22  H19 PRO d   1      -1.925  -1.108  -1.799  0.00  0.00     0.035 H 
ATOM     23  H20 PRO d   1      -0.181  -0.887  -1.430  0.00  0.00     0.035 H 
ATOM     24  H17 PRO d   1      -0.845  -2.872  -3.041  0.00  0.00     0.036 H 
ATOM     25  H18 PRO d   1       0.273  -3.241  -1.684  0.00  0.00     0.036 H 
ATOM     26  H16 PRO d   1      -2.717  -3.810  -1.928  0.00  0.00     0.087 H 
BRANCH  15  27
ATOM     27  CA  GLU d   1      -3.053  -3.056   2.224  0.00  0.00     0.090 C 
ATOM     28  H11 GLU d   1      -2.624  -2.045   2.157  0.00  0.00     0.087 H 
BRANCH  27  29
ATOM     29  N   GLU d   1      -4.472  -2.952   2.546  0.00  0.00    -0.346 N 
ATOM     30  C   PRO d   1      -5.082  -1.782   2.693  0.00  0.00     0.249 C 
ATOM     31  O   PRO d   1      -4.507  -0.699   2.566  0.00  0.00    -0.271 OA
ATOM     32  H10 GLU d   1      -5.004  -3.791   2.660  0.00  0.00     0.163 HD
BRANCH  30  33
ATOM     33  CA  PRO d   1      -6.567  -1.852   3.030  0.00  0.00     0.178 C 
ATOM     34  N   PRO d   1      -7.287  -2.617   1.987  0.00  0.00    -0.062 N 
ATOM     35  CD  PRO d   1      -7.994  -3.759   2.594  0.00  0.00     0.083 C 
ATOM     36  H1  PRO d   1      -6.625  -2.958   1.307  0.00  0.00     0.278 HD
ATOM     37  H2  PRO d   1      -7.955  -2.014   1.533  0.00  0.00     0.278 HD
ATOM     38  CG  PRO d   1      -8.088  -3.346   4.067  0.00  0.00    -0.040 C 
ATOM     39  H8  PRO d   1      -7.419  -4.690   2.478  0.00  0.00     0.075 H 
ATOM     40  H9  PRO d   1      -8.993  -3.888   2.153  0.00  0.00     0.075 H 
ATOM     41  CB  PRO d   1      -6.791  -2.583   4.346  0.00  0.00    -0.028 C 
ATOM     42  H6  PRO d   1      -8.961  -2.698   4.232  0.00  0.00     0.035 H 
ATOM     43  H7  PRO d   1      -8.162  -4.233   4.713  0.00  0.00     0.035 H 
ATOM     44  H4  PRO d   1      -6.914  -1.877   5.180  0.00  0.00     0.036 H 
ATOM     45  H5  PRO d   1      -5.962  -3.271   4.567  0.00  0.00     0.036 H 
ATOM     46  H3  PRO d   1      -6.972  -0.831   3.096  0.00  0.00     0.099 H 
ENDBRANCH  30  33
ENDBRANCH  27  29
BRANCH  27  47
ATOM     47  CB  GLU d   1      -2.335  -3.834   3.329  0.00  0.00    -0.029 C 
ATOM     48  H12 GLU d   1      -2.961  -4.695   3.606  0.00  0.00     0.037 H 
ATOM     49  H13 GLU d   1      -2.220  -3.170   4.198  0.00  0.00     0.037 H 
BRANCH  47  50
ATOM     50  CG  GLU d   1      -0.964  -4.350   2.943  0.00  0.00     0.018 C 
ATOM     51  H14 GLU d   1      -0.787  -4.124   1.881  0.00  0.00     0.049 H 
ATOM     52  H15 GLU d   1      -0.940  -5.439   3.095  0.00  0.00     0.049 H 
BRANCH  50  53
ATOM     53  CD  GLU d   1       0.137  -3.721   3.763  0.00  0.00     0.172 C 
ATOM     54  OE1 GLU d   1       0.197  -2.474   3.808  0.00  0.00    -0.648 OA
ATOM     55  OE2 GLU d   1       0.942  -4.471   4.355  0.00  0.00    -0.648 OA
ENDBRANCH  50  53
ENDBRANCH  47  50
ENDBRANCH  27  47
ENDBRANCH  15  27
ENDBRANCH  10  13
ENDBRANCH   7   9
BRANCH   7  56
ATOM     56  CB  THR d   1      -2.435  -8.422  -0.993  0.00  0.00     0.060 C 
ATOM     57  H25 THR d   1      -2.145  -9.478  -1.093  0.00  0.00     0.086 H 
BRANCH  56  58
ATOM     58  OG1 THR d   1      -3.795  -8.270  -1.417  0.00  0.00    -0.393 OA
ATOM     59  H26 THR d   1      -4.359  -8.799  -0.865  0.00  0.00     0.210 HD
ENDBRANCH  56  58
BRANCH  56  60
ATOM     60  CG2 THR d   1      -2.301  -8.013   0.468  0.00  0.00    -0.050 C 
ATOM     61  H27 THR d   1      -2.967  -8.634   1.085  0.00  0.00     0.031 H 
ATOM     62  H28 THR d   1      -2.579  -6.955   0.580  0.00  0.00     0.031 H 
ATOM     63  H29 THR d   1      -1.260  -8.155   0.795  0.00  0.00     0.031 H 
ENDBRANCH  56  60
ENDBRANCH   7  56
ENDBRANCH   4   7
ENDBRANCH   1   3
BRANCH   1  64
ATOM     64  C   ALA d   1      -0.589 -11.313  -4.672  0.00  0.00     0.243 C 
ATOM     65  O   ALA d   1      -0.043 -11.780  -3.673  0.00  0.00    -0.271 OA
ATOM     66  N   PRO d   1      -1.092 -12.093  -5.639  0.00  0.00    -0.337 N 
ATOM     67  CA  PRO d   1      -1.011 -13.555  -5.563  0.00  0.00     0.092 C 
ATOM     68  CD  PRO d   1      -1.805 -11.670  -6.859  0.00  0.00    -0.001 C 
ATOM     69  CB  PRO d   1      -2.023 -14.003  -6.610  0.00  0.00    -0.036 C 
ATOM     70  H35 PRO d   1      -1.310 -13.904  -4.564  0.00  0.00     0.087 H 
ATOM     71  CG  PRO d   1      -1.859 -12.958  -7.668  0.00  0.00    -0.048 C 
ATOM     72  H36 PRO d   1      -3.045 -14.003  -6.204  0.00  0.00     0.036 H 
ATOM     73  H37 PRO d   1      -1.782 -15.004  -6.996  0.00  0.00     0.036 H 
ATOM     74  H38 PRO d   1      -2.714 -12.956  -8.360  0.00  0.00     0.035 H 
ATOM     75  H39 PRO d   1      -0.929 -13.110  -8.235  0.00  0.00     0.035 H 
ATOM     76  H40 PRO d   1      -1.248 -10.887  -7.394  0.00  0.00     0.064 H 
ATOM     77  H41 PRO d   1      -2.816 -11.305  -6.623  0.00  0.00     0.064 H 
BRANCH  67  78
ATOM     78  C   PRO d   1       0.390 -14.078  -5.861  0.00  0.00     0.243 C 
ATOM     79  O   PRO d   1       1.210 -13.383  -6.450  0.00  0.00    -0.271 OA
ATOM     80  N   PRO d   1       0.687 -15.316  -5.442  0.00  0.00    -0.337 N 
ATOM     81  CA  PRO d   1       2.020 -15.868  -5.711  0.00  0.00     0.091 C 
ATOM     82  CD  PRO d   1      -0.094 -16.204  -4.561  0.00  0.00    -0.001 C 
ATOM     83  CB  PRO d   1       2.116 -17.027  -4.725  0.00  0.00    -0.036 C 
ATOM     84  H42 PRO d   1       2.805 -15.124  -5.513  0.00  0.00     0.087 H 
ATOM     85  CG  PRO d   1       0.689 -17.500  -4.631  0.00  0.00    -0.048 C 
ATOM     86  H43 PRO d   1       2.486 -16.686  -3.747  0.00  0.00     0.036 H 
ATOM     87  H44 PRO d   1       2.773 -17.821  -5.109  0.00  0.00     0.036 H 
ATOM     88  H45 PRO d   1       0.532 -18.106  -3.727  0.00  0.00     0.035 H 
ATOM     89  H46 PRO d   1       0.407 -18.085  -5.519  0.00  0.00     0.035 H 
ATOM     90  H47 PRO d   1      -1.119 -16.337  -4.937  0.00  0.00     0.064 H 
ATOM     91  H48 PRO d   1      -0.129 -15.815  -3.533  0.00  0.00     0.064 H 
BRANCH  81  92
ATOM     92  C   PRO d   1       2.117 -16.329  -7.166  0.00  0.00     0.241 C 
ATOM     93  O   PRO d   1       1.096 -16.584  -7.798  0.00  0.00    -0.271 OA
ATOM     94  N   GLU d   1       3.331 -16.426  -7.703  0.00  0.00    -0.346 N 
ATOM     95  H49 GLU d   1       4.137 -16.197  -7.157  0.00  0.00     0.163 HD
BRANCH  94  96
ATOM     96  CA  GLU d   1       3.492 -16.866  -9.087  0.00  0.00     0.090 C 
ATOM     97  H50 GLU d   1       3.076 -16.095  -9.752  0.00  0.00     0.087 H 
BRANCH  96  98
ATOM     98  C   GLU d   1       2.731 -18.170  -9.303  0.00  0.00     0.241 C 
ATOM     99  O   GLU d   1       3.033 -19.182  -8.673  0.00  0.00    -0.271 OA
ATOM    100  N   GLU d   1       1.738 -18.112 -10.188  0.00  0.00    -0.345 N 
ATOM    101  H55 GLU d   1       1.571 -17.235 -10.638  0.00  0.00     0.163 HD
BRANCH 100 102
ATOM    102  CA  GLU d   1       0.872 -19.236 -10.552  0.00  0.00     0.097 C 
ATOM    103  H56 GLU d   1       1.353 -19.794 -11.369  0.00  0.00     0.089 H 
BRANCH 102 104
ATOM    104  C   GLU d   1      -0.479 -18.715 -11.032  0.00  0.00     0.196 C 
ATOM    105  O   GLU d   1      -1.472 -18.884 -10.288  0.00  0.00    -0.646 OA
ATOM    106  OXT GLU d   1      -0.528 -18.139 -12.139  0.00  0.00    -0.646 OA
ENDBRANCH 102 104
BRANCH 102 107
ATOM    107  CB  GLU d   1       0.637 -20.195  -9.376  0.00  0.00    -0.028 C 
ATOM    108  H57 GLU d   1      -0.360 -20.645  -9.493  0.00  0.00     0.037 H 
ATOM    109  H58 GLU d   1       0.668 -19.611  -8.444  0.00  0.00     0.037 H 
BRANCH 107 110
ATOM    110  CG  GLU d   1       1.657 -21.319  -9.267  0.00  0.00     0.018 C 
ATOM    111  H59 GLU d   1       1.281 -22.070  -8.557  0.00  0.00     0.049 H 
ATOM    112  H60 GLU d   1       2.604 -20.902  -8.893  0.00  0.00     0.049 H 
BRANCH 110 113
ATOM    113  CD  GLU d   1       1.913 -21.991 -10.593  0.00  0.00     0.172 C 
ATOM    114  OE1 GLU d   1       0.969 -22.594 -11.148  0.00  0.00    -0.648 OA
ATOM    115  OE2 GLU d   1       3.059 -21.907 -11.084  0.00  0.00    -0.648 OA
ENDBRANCH 110 113
ENDBRANCH 107 110
ENDBRANCH 102 107
ENDBRANCH 100 102
ENDBRANCH  96  98
BRANCH  96 116
ATOM    116  CB  GLU d   1       4.971 -17.067  -9.434  0.00  0.00    -0.029 C 
ATOM    117  H51 GLU d   1       5.026 -17.658 -10.360  0.00  0.00     0.037 H 
ATOM    118  H52 GLU d   1       5.440 -17.628  -8.613  0.00  0.00     0.037 H 
BRANCH 116 119
ATOM    119  CG  GLU d   1       5.771 -15.778  -9.645  0.00  0.00     0.018 C 
ATOM    120  H53 GLU d   1       6.822 -16.046  -9.831  0.00  0.00     0.049 H 
ATOM    121  H54 GLU d   1       5.703 -15.172  -8.729  0.00  0.00     0.049 H 
BRANCH 119 122
ATOM    122  CD  GLU d   1       5.272 -14.940 -10.817  0.00  0.00     0.172 C 
ATOM    123  OE1 GLU d   1       4.757 -15.518 -11.800  0.00  0.00    -0.648 OA
ATOM    124  OE2 GLU d   1       5.415 -13.698 -10.766  0.00  0.00    -0.648 OA
ENDBRANCH 119 122
ENDBRANCH 116 119
ENDBRANCH  96 116
ENDBRANCH  94  96
ENDBRANCH  81  92
ENDBRANCH  67  78
ENDBRANCH   1  64
BRANCH   1 125
ATOM    125  CB  ALA d   1       0.454  -9.261  -5.635  0.00  0.00    -0.049 C 
ATOM    126  H32 ALA d   1       0.488  -9.740  -6.624  0.00  0.00     0.030 H 
ATOM    127  H33 ALA d   1       1.387  -9.474  -5.092  0.00  0.00     0.030 H 
ATOM    128  H34 ALA d   1       0.341  -8.174  -5.758  0.00  0.00     0.030 H 
ENDBRANCH   1 125
TORSDOF 27
