REMARK  29 active torsions:
REMARK  status: ('A' for Active; 'I' for Inactive)
REMARK    1  A    between atoms: CA_2  and  C_3 
REMARK       I    between atoms: C_3  and  N_8 
REMARK    2  A    between atoms: N_8  and  CA_9 
REMARK    3  A    between atoms: CA_9  and  C_10 
REMARK    4  A    between atoms: CA_9  and  CB_12 
REMARK       I    between atoms: C_10  and  N_17 
REMARK    5  A    between atoms: CB_12  and  CG_13 
REMARK    6  A    between atoms: CG_13  and  CD_14 
REMARK    7  A    between atoms: N_17  and  CA_18 
REMARK    8  A    between atoms: CA_18  and  C_19 
REMARK    9  A    between atoms: CA_18  and  CB_21 
REMARK       I    between atoms: C_19  and  N_22 
REMARK   10  A    between atoms: N_22  and  CA_23 
REMARK   11  A    between atoms: CA_23  and  C_24 
REMARK   12  A    between atoms: CA_23  and  CB_26 
REMARK       I    between atoms: C_24  and  N_29 
REMARK   13  A    between atoms: CB_26  and  OG1_27 
REMARK   14  A    between atoms: CB_26  and  CG2_28 
REMARK   15  A    between atoms: N_29  and  CA_30 
REMARK   16  A    between atoms: CA_30  and  C_31 
REMARK   17  A    between atoms: CA_30  and  CB_33 
REMARK       I    between atoms: C_31  and  N_34 
REMARK   18  A    between atoms: CA_35  and  C_36 
REMARK       I    between atoms: C_36  and  N_41 
REMARK   19  A    between atoms: CA_42  and  C_43 
REMARK       I    between atoms: C_43  and  N_48 
REMARK   20  A    between atoms: N_48  and  CA_49 
REMARK   21  A    between atoms: CA_49  and  C_50 
REMARK   22  A    between atoms: CA_49  and  CB_52 
REMARK       I    between atoms: C_50  and  N_57 
REMARK   23  A    between atoms: CB_52  and  CG_53 
REMARK   24  A    between atoms: CG_53  and  CD_54 
REMARK   25  A    between atoms: N_57  and  CA_58 
REMARK   26  A    between atoms: CA_58  and  C_59 
REMARK   27  A    between atoms: CA_58  and  CB_61 
REMARK   28  A    between atoms: CB_61  and  CG_62 
REMARK   29  A    between atoms: CG_62  and  CD_63 
ROOT
ATOM      1  CA  ALA d   1      -0.751  10.131   5.641  0.00  0.00     0.086 C 
ATOM      2  H29 ALA d   1      -1.665   9.875   6.197  0.00  0.00     0.086 H 
ENDROOT
BRANCH   1   3
ATOM      3  N   ALA d   1      -0.781   9.472   4.345  0.00  0.00    -0.346 N 
ATOM      4  C   THR d   1      -1.539   8.405   4.118  0.00  0.00     0.243 C 
ATOM      5  O   THR d   1      -2.269   7.901   4.975  0.00  0.00    -0.271 OA
ATOM      6  H28 ALA d   1      -0.215   9.832   3.604  0.00  0.00     0.163 HD
BRANCH   4   7
ATOM      7  CA  THR d   1      -1.458   7.821   2.714  0.00  0.00     0.113 C 
ATOM      8  H22 THR d   1      -0.419   7.893   2.359  0.00  0.00     0.091 H 
BRANCH   7   9
ATOM      9  N   THR d   1      -1.840   6.414   2.724  0.00  0.00    -0.344 N 
ATOM     10  C   ALA d   1      -1.178   5.502   2.017  0.00  0.00     0.240 C 
ATOM     11  O   ALA d   1      -0.222   5.779   1.287  0.00  0.00    -0.271 OA
ATOM     12  H21 THR d   1      -2.622   6.127   3.278  0.00  0.00     0.163 HD
BRANCH  10  13
ATOM     13  CA  ALA d   1      -1.677   4.065   2.143  0.00  0.00     0.086 C 
ATOM     14  H17 ALA d   1      -2.690   4.085   2.572  0.00  0.00     0.086 H 
BRANCH  13  15
ATOM     15  N   ALA d   1      -1.741   3.409   0.839  0.00  0.00    -0.346 N 
ATOM     16  C   GLU d   1      -2.531   3.870  -0.126  0.00  0.00     0.241 C 
ATOM     17  O   GLU d   1      -3.251   4.854   0.020  0.00  0.00    -0.271 OA
ATOM     18  H16 ALA d   1      -1.180   2.599   0.669  0.00  0.00     0.163 HD
BRANCH  16  19
ATOM     19  CA  GLU d   1      -2.519   3.105  -1.445  0.00  0.00     0.090 C 
ATOM     20  H11 GLU d   1      -1.878   2.216  -1.349  0.00  0.00     0.087 H 
BRANCH  19  21
ATOM     21  N   GLU d   1      -3.879   2.692  -1.762  0.00  0.00    -0.346 N 
ATOM     22  C   PRO d   1      -4.205   1.415  -1.922  0.00  0.00     0.249 C 
ATOM     23  O   PRO d   1      -3.387   0.496  -1.827  0.00  0.00    -0.271 OA
ATOM     24  H10 GLU d   1      -4.588   3.390  -1.862  0.00  0.00     0.163 HD
BRANCH  22  25
ATOM     25  CA  PRO d   1      -5.670   1.137  -2.250  0.00  0.00     0.178 C 
ATOM     26  N   PRO d   1      -6.548   1.344  -1.074  0.00  0.00    -0.062 N 
ATOM     27  CD  PRO d   1      -7.427   2.502  -1.310  0.00  0.00     0.083 C 
ATOM     28  H1  PRO d   1      -5.981   1.514  -0.258  0.00  0.00     0.278 HD
ATOM     29  H2  PRO d   1      -7.111   0.521  -0.926  0.00  0.00     0.278 HD
ATOM     30  CG  PRO d   1      -6.728   3.216  -2.488  0.00  0.00    -0.040 C 
ATOM     31  H8  PRO d   1      -7.476   3.152  -0.424  0.00  0.00     0.075 H 
ATOM     32  H9  PRO d   1      -8.442   2.181  -1.586  0.00  0.00     0.075 H 
ATOM     33  CB  PRO d   1      -6.162   2.084  -3.331  0.00  0.00    -0.028 C 
ATOM     34  H6  PRO d   1      -7.450   3.810  -3.067  0.00  0.00     0.035 H 
ATOM     35  H7  PRO d   1      -5.923   3.871  -2.124  0.00  0.00     0.035 H 
ATOM     36  H4  PRO d   1      -6.939   1.617  -3.954  0.00  0.00     0.036 H 
ATOM     37  H5  PRO d   1      -5.337   2.430  -3.971  0.00  0.00     0.036 H 
ATOM     38  H3  PRO d   1      -5.762   0.097  -2.597  0.00  0.00     0.099 H 
ENDBRANCH  22  25
ENDBRANCH  19  21
BRANCH  19  39
ATOM     39  CB  GLU d   1      -1.978   4.002  -2.560  0.00  0.00    -0.029 C 
ATOM     40  H12 GLU d   1      -2.235   5.044  -2.320  0.00  0.00     0.037 H 
ATOM     41  H13 GLU d   1      -2.464   3.712  -3.503  0.00  0.00     0.037 H 
BRANCH  39  42
ATOM     42  CG  GLU d   1      -0.477   3.914  -2.751  0.00  0.00     0.018 C 
ATOM     43  H14 GLU d   1       0.016   4.168  -1.801  0.00  0.00     0.049 H 
ATOM     44  H15 GLU d   1      -0.176   4.636  -3.525  0.00  0.00     0.049 H 
BRANCH  42  45
ATOM     45  CD  GLU d   1      -0.028   2.525  -3.178  0.00  0.00     0.172 C 
ATOM     46  OE1 GLU d   1      -0.595   1.989  -4.152  0.00  0.00    -0.648 OA
ATOM     47  OE2 GLU d   1       0.896   1.971  -2.547  0.00  0.00    -0.648 OA
ENDBRANCH  42  45
ENDBRANCH  39  42
ENDBRANCH  19  39
ENDBRANCH  16  19
ENDBRANCH  13  15
BRANCH  13  48
ATOM     48  CB  ALA d   1      -0.765   3.276   3.080  0.00  0.00    -0.049 C 
ATOM     49  H18 ALA d   1      -0.723   3.777   4.058  0.00  0.00     0.030 H 
ATOM     50  H19 ALA d   1       0.246   3.225   2.650  0.00  0.00     0.030 H 
ATOM     51  H20 ALA d   1      -1.161   2.258   3.206  0.00  0.00     0.030 H 
ENDBRANCH  13  48
ENDBRANCH  10  13
ENDBRANCH   7   9
BRANCH   7  52
ATOM     52  CB  THR d   1      -2.359   8.658   1.774  0.00  0.00     0.060 C 
ATOM     53  H23 THR d   1      -2.045   9.711   1.825  0.00  0.00     0.086 H 
BRANCH  52  54
ATOM     54  OG1 THR d   1      -3.726   8.558   2.192  0.00  0.00    -0.393 OA
ATOM     55  H24 THR d   1      -4.272   9.074   1.611  0.00  0.00     0.210 HD
ENDBRANCH  52  54
BRANCH  52  56
ATOM     56  CG2 THR d   1      -2.227   8.173   0.338  0.00  0.00    -0.050 C 
ATOM     57  H25 THR d   1      -2.873   8.778  -0.314  0.00  0.00     0.031 H 
ATOM     58  H26 THR d   1      -2.531   7.118   0.278  0.00  0.00     0.031 H 
ATOM     59  H27 THR d   1      -1.181   8.272   0.012  0.00  0.00     0.031 H 
ENDBRANCH  52  56
ENDBRANCH   7  52
ENDBRANCH   4   7
ENDBRANCH   1   3
BRANCH   1  60
ATOM     60  C   ALA d   1      -0.695  11.640   5.443  0.00  0.00     0.243 C 
ATOM     61  O   ALA d   1      -0.192  12.125   4.425  0.00  0.00    -0.271 OA
ATOM     62  N   PRO d   1      -1.214  12.406   6.415  0.00  0.00    -0.337 N 
ATOM     63  CA  PRO d   1      -1.208  13.868   6.318  0.00  0.00     0.092 C 
ATOM     64  CD  PRO d   1      -1.812  11.967   7.689  0.00  0.00    -0.001 C 
ATOM     65  CB  PRO d   1      -2.087  14.289   7.491  0.00  0.00    -0.036 C 
ATOM     66  H33 PRO d   1      -1.660  14.191   5.369  0.00  0.00     0.087 H 
ATOM     67  CG  PRO d   1      -1.789  13.240   8.512  0.00  0.00    -0.048 C 
ATOM     68  H34 PRO d   1      -3.151  14.282   7.213  0.00  0.00     0.036 H 
ATOM     69  H35 PRO d   1      -1.810  15.289   7.856  0.00  0.00     0.036 H 
ATOM     70  H36 PRO d   1      -2.559  13.220   9.298  0.00  0.00     0.035 H 
ATOM     71  H37 PRO d   1      -0.802  13.400   8.970  0.00  0.00     0.035 H 
ATOM     72  H38 PRO d   1      -1.209  11.177   8.161  0.00  0.00     0.064 H 
ATOM     73  H39 PRO d   1      -2.841  11.606   7.543  0.00  0.00     0.064 H 
BRANCH  63  74
ATOM     74  C   PRO d   1       0.205  14.441   6.401  0.00  0.00     0.243 C 
ATOM     75  O   PRO d   1       1.110  13.805   6.938  0.00  0.00    -0.271 OA
ATOM     76  N   PRO d   1       0.406  15.661   5.876  0.00  0.00    -0.337 N 
ATOM     77  CA  PRO d   1       1.718  16.314   5.891  0.00  0.00     0.091 C 
ATOM     78  CD  PRO d   1      -0.618  16.565   5.325  0.00  0.00    -0.001 C 
ATOM     79  CB  PRO d   1       1.447  17.647   5.193  0.00  0.00    -0.036 C 
ATOM     80  H40 PRO d   1       2.425  15.720   5.293  0.00  0.00     0.087 H 
ATOM     81  CG  PRO d   1       0.016  17.920   5.534  0.00  0.00    -0.048 C 
ATOM     82  H41 PRO d   1       1.584  17.559   4.105  0.00  0.00     0.036 H 
ATOM     83  H42 PRO d   1       2.104  18.438   5.583  0.00  0.00     0.036 H 
ATOM     84  H43 PRO d   1      -0.419  18.673   4.861  0.00  0.00     0.035 H 
ATOM     85  H44 PRO d   1      -0.090  18.255   6.576  0.00  0.00     0.035 H 
ATOM     86  H45 PRO d   1      -1.566  16.478   5.876  0.00  0.00     0.064 H 
ATOM     87  H46 PRO d   1      -0.794  16.366   4.258  0.00  0.00     0.064 H 
BRANCH  77  88
ATOM     88  C   PRO d   1       2.330  16.489   7.278  0.00  0.00     0.241 C 
ATOM     89  O   PRO d   1       1.629  16.764   8.252  0.00  0.00    -0.271 OA
ATOM     90  N   GLU d   1       3.648  16.325   7.345  0.00  0.00    -0.346 N 
ATOM     91  H47 GLU d   1       4.144  16.103   6.505  0.00  0.00     0.163 HD
BRANCH  90  92
ATOM     92  CA  GLU d   1       4.405  16.453   8.584  0.00  0.00     0.090 C 
ATOM     93  H48 GLU d   1       4.118  15.641   9.268  0.00  0.00     0.087 H 
BRANCH  92  94
ATOM     94  C   GLU d   1       4.104  17.794   9.246  0.00  0.00     0.241 C 
ATOM     95  O   GLU d   1       4.200  18.844   8.610  0.00  0.00    -0.271 OA
ATOM     96  N   GLU d   1       3.740  17.754  10.523  0.00  0.00    -0.345 N 
ATOM     97  H53 GLU d   1       3.682  16.870  10.986  0.00  0.00     0.163 HD
BRANCH  96  98
ATOM     98  CA  GLU d   1       3.423  18.968  11.266  0.00  0.00     0.097 C 
ATOM     99  H54 GLU d   1       4.137  19.752  10.973  0.00  0.00     0.089 H 
BRANCH  98 100
ATOM    100  C   GLU d   1       3.543  18.743  12.770  0.00  0.00     0.196 C 
ATOM    101  O   GLU d   1       2.527  18.912  13.476  0.00  0.00    -0.646 OA
ATOM    102  OXT GLU d   1       4.656  18.401  13.223  0.00  0.00    -0.646 OA
ENDBRANCH  98 100
BRANCH  98 103
ATOM    103  CB  GLU d   1       2.008  19.438  10.920  0.00  0.00    -0.028 C 
ATOM    104  H55 GLU d   1       2.018  19.844   9.898  0.00  0.00     0.037 H 
ATOM    105  H56 GLU d   1       1.724  20.231  11.627  0.00  0.00     0.037 H 
BRANCH 103 106
ATOM    106  CG  GLU d   1       0.961  18.338  10.988  0.00  0.00     0.018 C 
ATOM    107  H57 GLU d   1       1.020  17.856  11.975  0.00  0.00     0.049 H 
ATOM    108  H58 GLU d   1       1.177  17.597  10.204  0.00  0.00     0.049 H 
BRANCH 106 109
ATOM    109  CD  GLU d   1      -0.447  18.859  10.787  0.00  0.00     0.172 C 
ATOM    110  OE1 GLU d   1      -0.923  19.623  11.652  0.00  0.00    -0.648 OA
ATOM    111  OE2 GLU d   1      -1.075  18.506   9.766  0.00  0.00    -0.648 OA
ENDBRANCH 106 109
ENDBRANCH 103 106
ENDBRANCH  98 103
ENDBRANCH  96  98
ENDBRANCH  92  94
BRANCH  92 112
ATOM    112  CB  GLU d   1       5.903  16.353   8.282  0.00  0.00    -0.029 C 
ATOM    113  H49 GLU d   1       6.226  17.306   7.838  0.00  0.00     0.037 H 
ATOM    114  H50 GLU d   1       6.051  15.541   7.555  0.00  0.00     0.037 H 
BRANCH 112 115
ATOM    115  CG  GLU d   1       6.784  16.072   9.487  0.00  0.00     0.018 C 
ATOM    116  H51 GLU d   1       6.558  16.811  10.269  0.00  0.00     0.049 H 
ATOM    117  H52 GLU d   1       7.837  16.169   9.184  0.00  0.00     0.049 H 
BRANCH 115 118
ATOM    118  CD  GLU d   1       6.568  14.682  10.055  0.00  0.00     0.172 C 
ATOM    119  OE1 GLU d   1       5.494  14.436  10.645  0.00  0.00    -0.648 OA
ATOM    120  OE2 GLU d   1       7.471  13.831   9.903  0.00  0.00    -0.648 OA
ENDBRANCH 115 118
ENDBRANCH 112 115
ENDBRANCH  92 112
ENDBRANCH  90  92
ENDBRANCH  77  88
ENDBRANCH  63  74
ENDBRANCH   1  60
BRANCH   1 121
ATOM    121  CB  ALA d   1       0.454   9.660   6.430  0.00  0.00    -0.049 C 
ATOM    122  H30 ALA d   1       0.471  10.162   7.409  0.00  0.00     0.030 H 
ATOM    123  H31 ALA d   1       1.373   9.905   5.877  0.00  0.00     0.030 H 
ATOM    124  H32 ALA d   1       0.393   8.572   6.577  0.00  0.00     0.030 H 
ENDBRANCH   1 121
TORSDOF 29
