REMARK  9 active torsions:
REMARK  status: ('A' for Active; 'I' for Inactive)
REMARK    1  A    between atoms: CA_1  and  OB_3 
REMARK    2  A    between atoms: OB_3  and  CB_2 
REMARK    3  A    between atoms: CL_12  and  CM_13 
REMARK    4  A    between atoms: CM_13  and  CN_14 
REMARK    5  A    between atoms: CN_14  and  CO_15 
REMARK    6  A    between atoms: CO_15  and  CP_16 
REMARK    7  A    between atoms: CR_17  and  NS_18 
REMARK    8  A    between atoms: CV_21  and  OW_22 
REMARK    9  A    between atoms: OW_22  and  CZ_23 
ROOT
ATOM      1  CB  B2Q d   1      45.008  51.280  30.175  0.00  0.00     0.102 A 
ATOM      2  CC  B2Q d   1      45.326  51.361  31.531  0.00  0.00    -0.039 A 
ATOM      3  CD  B2Q d   1      46.173  50.407  32.097  0.00  0.00    -0.016 A 
ATOM      4  CE  B2Q d   1      46.523  50.430  33.558  0.00  0.00     0.162 C 
ATOM      5  CF  B2Q d   1      46.694  49.377  31.315  0.00  0.00    -0.045 A 
ATOM      6  CG  B2Q d   1      47.557  48.344  31.977  0.00  0.00    -0.015 C 
ATOM      7  CH  B2Q d   1      48.553  49.007  32.938  0.00  0.00     0.118 C 
ATOM      8  NJ  B2Q d   1      47.940  50.064  33.792  0.00  0.00     0.098 N 
ATOM      9  CK  B2Q d   1      48.106  49.788  35.229  0.00  0.00     0.119 C 
ATOM     10  CL  B2Q d   1      47.937  51.136  35.965  0.00  0.00    -0.001 C 
ATOM     11  CR  B2Q d   1      46.584  51.812  35.683  0.00  0.00     0.107 C 
ATOM     12  CT  B2Q d   1      46.297  51.813  34.169  0.00  0.00    -0.005 C 
ATOM     13  CU  B2Q d   1      46.383  49.296  29.959  0.00  0.00    -0.041 A 
ATOM     14  CV  B2Q d   1      45.538  50.250  29.390  0.00  0.00     0.102 A 
ATOM     15  H   B2Q d   1      44.916  52.164  32.144  0.00  0.00     0.088 H 
ATOM     16  H   B2Q d   1      45.868  49.698  34.031  0.00  0.00     0.096 H 
ATOM     17  H   B2Q d   1      48.112  47.804  31.210  0.00  0.00     0.042 H 
ATOM     18  H   B2Q d   1      46.921  47.663  32.542  0.00  0.00     0.042 H 
ATOM     19  H   B2Q d   1      49.326  49.481  32.333  0.00  0.00     0.080 H 
ATOM     20  H   B2Q d   1      48.936  48.231  33.601  0.00  0.00     0.080 H 
ATOM     21  H   B2Q d   1      49.087  49.357  35.430  0.00  0.00     0.080 H 
ATOM     22  H   B2Q d   1      47.367  49.064  35.572  0.00  0.00     0.080 H 
ATOM     23  H   B2Q d   1      48.746  51.754  35.576  0.00  0.00     0.045 H 
ATOM     24  H   B2Q d   1      45.798  51.380  36.302  0.00  0.00     0.084 H 
ATOM     25  H   B2Q d   1      45.255  52.094  34.014  0.00  0.00     0.039 H 
ATOM     26  H   B2Q d   1      46.975  52.519  33.688  0.00  0.00     0.039 H 
ATOM     27  H   B2Q d   1      46.796  48.494  29.348  0.00  0.00     0.088 H 
ENDROOT
BRANCH  10  28
ATOM     28  CM  B2Q d   1      48.055  50.991  37.467  0.00  0.00    -0.058 C 
ATOM     29  H   B2Q d   1      47.005  50.915  37.750  0.00  0.00     0.033 H 
ATOM     30  H   B2Q d   1      48.763  51.788  37.696  0.00  0.00     0.033 H 
BRANCH  28  31
ATOM     31  CN  B2Q d   1      48.648  49.845  38.258  0.00  0.00    -0.065 C 
ATOM     32  H   B2Q d   1      49.653  49.708  37.859  0.00  0.00     0.033 H 
ATOM     33  H   B2Q d   1      47.939  49.024  38.153  0.00  0.00     0.033 H 
BRANCH  31  34
ATOM     34  CO  B2Q d   1      48.826  50.025  39.712  0.00  0.00    -0.069 C 
ATOM     35  H   B2Q d   1      48.342  50.980  39.914  0.00  0.00     0.032 H 
ATOM     36  H   B2Q d   1      49.896  49.880  39.861  0.00  0.00     0.032 H 
BRANCH  34  37
ATOM     37  CP  B2Q d   1      48.197  49.088  40.712  0.00  0.00    -0.077 C 
ATOM     38  H   B2Q d   1      47.114  49.105  40.593  0.00  0.00     0.027 H 
ATOM     39  H   B2Q d   1      48.566  48.077  40.542  0.00  0.00     0.027 H 
ATOM     40  H   B2Q d   1      48.458  49.407  41.721  0.00  0.00     0.027 H 
ENDBRANCH  34  37
ENDBRANCH  31  34
ENDBRANCH  28  31
ENDBRANCH  10  28
BRANCH  11  41
ATOM     41  NS  B2Q d   1      46.959  53.188  35.750  0.00  0.00    -0.075 N 
ATOM     42  H   B2Q d   1      46.140  53.771  35.578  0.00  0.00     0.274 HD
ATOM     43  H   B2Q d   1      47.335  53.392  36.676  0.00  0.00     0.274 HD
ATOM     44  H   B2Q d   1      47.669  53.380  35.044  0.00  0.00     0.274 HD
ENDBRANCH  11  41
BRANCH   1  45
ATOM     45  OB  B2Q d   1      44.165  52.196  29.590  0.00  0.00    -0.353 OA
BRANCH  45  46
ATOM     46  CA  B2Q d   1      43.580  53.165  30.456  0.00  0.00     0.010 C 
ATOM     47  H   B2Q d   1      42.988  52.659  31.218  0.00  0.00     0.066 H 
ATOM     48  H   B2Q d   1      44.368  53.747  30.933  0.00  0.00     0.066 H 
ATOM     49  H   B2Q d   1      42.938  53.828  29.876  0.00  0.00     0.066 H 
ENDBRANCH  45  46
ENDBRANCH   1  45
BRANCH  14  50
ATOM     50  OW  B2Q d   1      45.199  50.187  28.059  0.00  0.00    -0.353 OA
BRANCH  50  51
ATOM     51  CZ  B2Q d   1      45.715  49.081  27.324  0.00  0.00     0.010 C 
ATOM     52  H   B2Q d   1      46.804  49.103  27.354  0.00  0.00     0.066 H 
ATOM     53  H   B2Q d   1      45.356  48.152  27.768  0.00  0.00     0.066 H 
ATOM     54  H   B2Q d   1      45.378  49.145  26.290  0.00  0.00     0.066 H 
ENDBRANCH  50  51
ENDBRANCH  14  50
TORSDOF 9
