REMARK  6 active torsions:
REMARK  status: ('A' for Active; 'I' for Inactive)
REMARK    1  A    between atoms: N11_12  and  C1_1 
REMARK    2  A    between atoms: C21_22  and  N5_6 
REMARK       I    between atoms: C17_18  and  N14_15 
REMARK    3  A    between atoms: C19_20  and  C17_18 
REMARK    4  A    between atoms: C20_21  and  C19_20 
REMARK    5  A    between atoms: C19_20  and  C21_22 
REMARK    6  A    between atoms: C22_23  and  C20_21 
ROOT
ATOM      1  N11 XM1 d   1      13.370  -1.376  16.311  0.00  0.00    -0.362 N 
ATOM      2  C12 XM1 d   1      12.278  -2.266  16.766  0.00  0.00     0.011 C 
ATOM      3  C13 XM1 d   1      10.920  -1.591  17.079  0.00  0.00     0.013 C 
ATOM      4  N14 XM1 d   1      11.058  -0.367  17.897  0.00  0.00    -0.349 N 
ATOM      5  C15 XM1 d   1      12.091   0.569  17.401  0.00  0.00     0.013 C 
ATOM      6  C16 XM1 d   1      13.442  -0.143  17.129  0.00  0.00     0.011 C 
ATOM      7  C17 XM1 d   1      10.412  -0.200  19.082  0.00  0.00     0.226 C 
ATOM      8  O18 XM1 d   1       9.546  -0.995  19.462  0.00  0.00    -0.273 OA
ATOM      9  H   XM1 d   1      12.619  -2.706  17.703  0.00  0.00     0.066 H 
ATOM     10  H   XM1 d   1      12.089  -2.956  15.944  0.00  0.00     0.066 H 
ATOM     11  H   XM1 d   1      10.318  -2.302  17.645  0.00  0.00     0.066 H 
ATOM     12  H   XM1 d   1      10.464  -1.307  16.131  0.00  0.00     0.066 H 
ATOM     13  H   XM1 d   1      12.255   1.329  18.165  0.00  0.00     0.066 H 
ATOM     14  H   XM1 d   1      11.738   0.998  16.463  0.00  0.00     0.066 H 
ATOM     15  H   XM1 d   1      14.053   0.563  16.567  0.00  0.00     0.066 H 
ATOM     16  H   XM1 d   1      13.833  -0.442  18.102  0.00  0.00     0.066 H 
ENDROOT
BRANCH   7  17
ATOM     17  C19 XM1 d   1      10.656   1.061  19.954  0.00  0.00     0.050 C 
ATOM     18  H   XM1 d   1      11.427   1.665  19.476  0.00  0.00     0.057 H 
BRANCH  17  19
ATOM     19  C20 XM1 d   1       9.413   1.984  19.987  0.00  0.00    -0.028 C 
ATOM     20  H   XM1 d   1       9.595   2.818  20.665  0.00  0.00     0.041 H 
ATOM     21  H   XM1 d   1       8.548   1.419  20.335  0.00  0.00     0.041 H 
BRANCH  19  22
ATOM     22  C22 XM1 d   1       9.145   2.514  18.591  0.00  0.00    -0.057 A 
ATOM     23  C23 XM1 d   1       8.318   1.779  17.709  0.00  0.00    -0.075 A 
ATOM     24  C24 XM1 d   1       8.087   2.269  16.405  0.00  0.00    -0.061 A 
ATOM     25  H   XM1 d   1       7.863   0.843  18.033  0.00  0.00     0.084 H 
ATOM     26  C25 XM1 d   1       8.690   3.484  15.995  0.00  0.00     0.034 A 
ATOM     27  H   XM1 d   1       7.448   1.715  15.717  0.00  0.00     0.086 H 
ATOM     28 CL1  XM1 d   1       8.406   4.074  14.396  0.00  0.00    -0.084 Cl
ATOM     29  C26 XM1 d   1       9.524   4.216  16.874  0.00  0.00    -0.061 A 
ATOM     30  C27 XM1 d   1       9.752   3.722  18.176  0.00  0.00    -0.075 A 
ATOM     31  H   XM1 d   1       9.984   5.149  16.549  0.00  0.00     0.086 H 
ATOM     32  H   XM1 d   1      10.396   4.272  18.862  0.00  0.00     0.084 H 
ENDBRANCH  19  22
ENDBRANCH  17  19
BRANCH  17  33
ATOM     33  C21 XM1 d   1      11.265   0.711  21.329  0.00  0.00     0.091 C 
ATOM     34  H   XM1 d   1      11.799   1.591  21.686  0.00  0.00     0.076 H 
ATOM     35  H   XM1 d   1      10.448   0.407  21.983  0.00  0.00     0.076 H 
BRANCH  33  36
ATOM     36  N5  XM1 d   1      12.234  -0.408  21.274  0.00  0.00    -0.079 N 
ATOM     37  H   XM1 d   1      12.597  -0.588  22.210  0.00  0.00     0.274 HD
ATOM     38  H   XM1 d   1      11.767  -1.244  20.923  0.00  0.00     0.274 HD
ATOM     39  H   XM1 d   1      13.003  -0.160  20.651  0.00  0.00     0.274 HD
ENDBRANCH  33  36
ENDBRANCH  17  33
ENDBRANCH   7  17
BRANCH   1  40
ATOM     40  C1  XM1 d   1      14.535  -1.991  15.882  0.00  0.00     0.141 A 
ATOM     41  C2  XM1 d   1      15.667  -1.218  15.529  0.00  0.00     0.057 A 
ATOM     42  C3  XM1 d   1      15.866   0.201  15.512  0.00  0.00    -0.051 A 
ATOM     43  C7  XM1 d   1      16.818  -1.894  15.119  0.00  0.00     0.142 A 
ATOM     44  C4  XM1 d   1      17.171   0.305  15.077  0.00  0.00    -0.020 A 
ATOM     45  H   XM1 d   1      15.166   0.994  15.775  0.00  0.00     0.087 H 
ATOM     46  N6  XM1 d   1      17.746  -0.953  14.840  0.00  0.00    -0.350 N 
ATOM     47  H   XM1 d   1      17.693   1.251  14.934  0.00  0.00     0.111 H 
ATOM     48  H   XM1 d   1      18.697  -1.126  14.514  0.00  0.00     0.166 HD
ATOM     49  N10 XM1 d   1      16.938  -3.224  15.032  0.00  0.00    -0.223 NA
ATOM     50  C9  XM1 d   1      15.809  -3.858  15.391  0.00  0.00     0.091 A 
ATOM     51  N8  XM1 d   1      14.637  -3.335  15.805  0.00  0.00    -0.224 NA
ATOM     52  H   XM1 d   1      15.845  -4.946  15.341  0.00  0.00     0.146 H 
ENDBRANCH   1  40
TORSDOF 6
