REMARK  7 active torsions:
REMARK  status: ('A' for Active; 'I' for Inactive)
REMARK    1  A    between atoms: N1_1  and  C25_25 
REMARK    2  A    between atoms: C4_4  and  C7_7 
REMARK    3  A    between atoms: C5_5  and  N6_6 
REMARK       I    between atoms: C7_7  and  N9_9 
REMARK    4  A    between atoms: N9_9  and  C10_10 
REMARK    5  A    between atoms: C11_11  and  C24_24 
REMARK    6  A    between atoms: C14_14  and  C16_16 
REMARK       I    between atoms: C16_16  and  N18_18 
REMARK    7  A    between atoms: N18_18  and  C19_19 
ROOT
ATOM      1  C10 OCG d   1      37.389  -1.811  23.585  0.00  0.00     0.042 A 
ATOM      2  C11 OCG d   1      38.680  -1.332  23.946  0.00  0.00    -0.035 A 
ATOM      3  C12 OCG d   1      38.839  -0.377  24.979  0.00  0.00    -0.074 A 
ATOM      4  C13 OCG d   1      37.686   0.094  25.647  0.00  0.00    -0.067 A 
ATOM      5  C14 OCG d   1      36.386  -0.361  25.310  0.00  0.00     0.034 A 
ATOM      6  C15 OCG d   1      36.251  -1.316  24.275  0.00  0.00    -0.041 A 
ATOM      7  H5  OCG d   1      39.824  -0.015  25.252  0.00  0.00     0.084 H 
ATOM      8  H6  OCG d   1      37.799   0.824  26.440  0.00  0.00     0.085 H 
ATOM      9  H7  OCG d   1      35.264  -1.675  24.005  0.00  0.00     0.088 H 
ENDROOT
BRANCH   1  10
ATOM     10  N9  OCG d   1      37.197  -2.753  22.570  0.00  0.00    -0.322 N 
ATOM     11  C7  OCG d   1      36.540  -2.538  21.369  0.00  0.00     0.261 C 
ATOM     12  O8  OCG d   1      36.270  -1.356  21.149  0.00  0.00    -0.267 OA
ATOM     13  H4  OCG d   1      37.569  -3.668  22.725  0.00  0.00     0.169 HD
BRANCH  11  14
ATOM     14  C4  OCG d   1      36.225  -3.612  20.501  0.00  0.00     0.096 A 
ATOM     15  C3  OCG d   1      36.537  -4.960  20.733  0.00  0.00     0.041 A 
ATOM     16  N2  OCG d   1      36.121  -5.669  19.774  0.00  0.00    -0.177 NA
ATOM     17  H1  OCG d   1      37.060  -5.339  21.610  0.00  0.00     0.119 H 
ATOM     18  N1  OCG d   1      35.448  -4.738  18.764  0.00  0.00    -0.217 N 
ATOM     19  C5  OCG d   1      35.553  -3.502  19.279  0.00  0.00     0.140 A 
BRANCH  18  20
ATOM     20  C25 OCG d   1      34.851  -5.063  17.567  0.00  0.00     0.060 A 
ATOM     21  C26 OCG d   1      33.427  -4.886  17.399  0.00  0.00    -0.055 A 
ATOM     22  C27 OCG d   1      32.786  -5.211  16.183  0.00  0.00    -0.081 A 
ATOM     23  H14 OCG d   1      32.839  -4.496  18.222  0.00  0.00     0.087 H 
ATOM     24  C28 OCG d   1      33.528  -5.718  15.096  0.00  0.00    -0.083 A 
ATOM     25  H15 OCG d   1      31.716  -5.070  16.084  0.00  0.00     0.083 H 
ATOM     26  C29 OCG d   1      34.926  -5.898  15.242  0.00  0.00    -0.081 A 
ATOM     27  H16 OCG d   1      33.036  -5.966  14.162  0.00  0.00     0.083 H 
ATOM     28  C30 OCG d   1      35.594  -5.580  16.452  0.00  0.00    -0.055 A 
ATOM     29  H17 OCG d   1      35.499  -6.288  14.409  0.00  0.00     0.083 H 
ATOM     30  H18 OCG d   1      36.665  -5.727  16.535  0.00  0.00     0.087 H 
ENDBRANCH  18  20
BRANCH  19  31
ATOM     31  N6  OCG d   1      35.121  -2.339  18.779  0.00  0.00    -0.383 N 
ATOM     32  H2  OCG d   1      35.279  -1.464  19.299  0.00  0.00     0.157 HD
ATOM     33  H3  OCG d   1      34.630  -2.318  17.874  0.00  0.00     0.157 HD
ENDBRANCH  19  31
ENDBRANCH  11  14
ENDBRANCH   1  10
BRANCH   2  34
ATOM     34  C24 OCG d   1      39.920  -1.844  23.225  0.00  0.00    -0.049 C 
ATOM     35  H11 OCG d   1      39.623  -2.574  22.458  0.00  0.00     0.033 H 
ATOM     36  H12 OCG d   1      40.592  -2.327  23.950  0.00  0.00     0.033 H 
ATOM     37  H13 OCG d   1      40.441  -1.001  22.747  0.00  0.00     0.033 H 
ENDBRANCH   2  34
BRANCH   5  38
ATOM     38  C16 OCG d   1      35.368   0.149  26.004  0.00  0.00     0.257 C 
ATOM     39  O17 OCG d   1      34.266  -0.380  25.877  0.00  0.00    -0.267 OA
ATOM     40  N18 OCG d   1      35.547   1.203  26.813  0.00  0.00    -0.306 N 
ATOM     41  H8  OCG d   1      36.392   1.727  26.705  0.00  0.00     0.170 HD
BRANCH  40  42
ATOM     42  C19 OCG d   1      34.685   1.612  27.756  0.00  0.00     0.159 A 
ATOM     43  N20 OCG d   1      33.834   0.908  28.481  0.00  0.00    -0.111 NA
ATOM     44  O21 OCG d   1      33.070   1.830  29.421  0.00  0.00    -0.224 OA
ATOM     45  C22 OCG d   1      33.518   2.974  29.182  0.00  0.00     0.047 A 
ATOM     46  C23 OCG d   1      34.503   2.934  28.183  0.00  0.00    -0.013 A 
ATOM     47  H9  OCG d   1      33.187   3.882  29.684  0.00  0.00     0.127 H 
ATOM     48  H10 OCG d   1      35.043   3.798  27.799  0.00  0.00     0.092 H 
ENDBRANCH  40  42
ENDBRANCH   5  38
TORSDOF 7
