REMARK  10 active torsions:
REMARK  status: ('A' for Active; 'I' for Inactive)
REMARK    1  A    between atoms: C3_3  and  C2_2 
REMARK       I    between atoms: N2_22  and  C3_3 
REMARK    2  A    between atoms: N6_4  and  C20_16 
REMARK    3  A    between atoms: C9_7  and  C10_8 
REMARK    4  A    between atoms: N_18  and  C11_9 
REMARK    5  A    between atoms: C13_11  and  N5_30 
REMARK    6  A    between atoms: C14_12  and  C15_13 
REMARK    7  A    between atoms: C20_16  and  C21_17 
REMARK    8  A    between atoms: C21_17  and  O1_33 
REMARK    9  A    between atoms: C_19  and  N_18 
REMARK   10  A    between atoms: N2_22  and  C4_23 
ROOT
ATOM      1  C11 1N1 d   1      11.993   1.947  24.806  0.00  0.00     0.135 A 
ATOM      2  C12 1N1 d   1      11.894   1.804  26.198  0.00  0.00     0.006 A 
ATOM      3  C13 1N1 d   1      11.855   0.512  26.762  0.00  0.00     0.131 A 
ATOM      4  C14 1N1 d   1      12.004  -0.396  24.597  0.00  0.00     0.126 A 
ATOM      5  N3  1N1 d   1      11.912  -0.563  25.944  0.00  0.00    -0.216 NA
ATOM      6  N4  1N1 d   1      12.068   0.834  24.045  0.00  0.00    -0.216 NA
ATOM      7  H8  1N1 d   1      11.848   2.680  26.835  0.00  0.00     0.095 H 
ENDROOT
BRANCH   1   8
ATOM      8  N   1N1 d   1      12.039   3.185  24.234  0.00  0.00    -0.320 N 
ATOM      9  H20 1N1 d   1      11.965   3.999  24.860  0.00  0.00     0.169 HD
BRANCH   8  10
ATOM     10  C   1N1 d   1      12.175   3.431  22.896  0.00  0.00     0.172 A 
ATOM     11  N1  1N1 d   1      12.181   4.693  22.425  0.00  0.00    -0.235 NA
ATOM     12  C1  1N1 d   1      12.366   4.779  21.080  0.00  0.00     0.027 A 
ATOM     13  C2  1N1 d   1      12.557   3.538  20.457  0.00  0.00     0.094 A 
ATOM     14  H1  1N1 d   1      12.366   5.724  20.538  0.00  0.00     0.117 H 
ATOM     15  S   1N1 d   1      12.474   2.210  21.635  0.00  0.00    -0.045 SA
BRANCH  13  16
ATOM     16  C3  1N1 d   1      12.768   3.163  19.034  0.00  0.00     0.264 C 
ATOM     17  N2  1N1 d   1      13.042   4.127  18.150  0.00  0.00    -0.320 N 
ATOM     18  H21 1N1 d   1      13.119   5.074  18.461  0.00  0.00     0.169 HD
ATOM     19  O   1N1 d   1      12.673   1.996  18.715  0.00  0.00    -0.267 OA
BRANCH  17  20
ATOM     20  C4  1N1 d   1      13.224   3.827  16.786  0.00  0.00     0.062 A 
ATOM     21  C9  1N1 d   1      14.490   3.793  16.204  0.00  0.00    -0.034 A 
ATOM     22  C8  1N1 d   1      14.617   3.519  14.846  0.00  0.00    -0.075 A 
ATOM     23  C7  1N1 d   1      13.494   3.273  14.061  0.00  0.00    -0.081 A 
ATOM     24  H4  1N1 d   1      15.602   3.497  14.394  0.00  0.00     0.084 H 
ATOM     25  C6  1N1 d   1      12.231   3.303  14.643  0.00  0.00    -0.060 A 
ATOM     26  H3  1N1 d   1      13.603   3.060  13.004  0.00  0.00     0.083 H 
ATOM     27  C5  1N1 d   1      12.107   3.585  16.001  0.00  0.00     0.061 A 
ATOM     28  H22 1N1 d   1      11.349   3.108  14.043  0.00  0.00     0.086 H 
ATOM     29 CL   1N1 d   1      10.480   3.623  16.750  0.00  0.00    -0.082 Cl
BRANCH  21  30
ATOM     30  C10 1N1 d   1      15.720   4.074  17.030  0.00  0.00    -0.049 C 
ATOM     31  H5  1N1 d   1      16.614   3.999  16.393  0.00  0.00     0.033 H 
ATOM     32  H6  1N1 d   1      15.789   3.340  17.847  0.00  0.00     0.033 H 
ATOM     33  H7  1N1 d   1      15.654   5.088  17.452  0.00  0.00     0.033 H 
ENDBRANCH  21  30
ENDBRANCH  17  20
ENDBRANCH  13  16
ENDBRANCH   8  10
ENDBRANCH   1   8
BRANCH   3  34
ATOM     34  N5  1N1 d   1      11.741   0.354  28.158  0.00  0.00    -0.362 N 
ATOM     35  C16 1N1 d   1      11.873  -0.957  28.814  0.00  0.00     0.019 C 
ATOM     36  C17 1N1 d   1      10.948  -1.019  30.051  0.00  0.00     0.098 C 
ATOM     37  H12 1N1 d   1      12.916  -1.104  29.131  0.00  0.00     0.066 H 
ATOM     38  H13 1N1 d   1      11.590  -1.750  28.106  0.00  0.00     0.066 H 
ATOM     39  N6  1N1 d   1      10.965   0.251  30.799  0.00  0.00    -0.066 N 
ATOM     40  H23 1N1 d   1       9.920  -1.225  29.719  0.00  0.00     0.078 H 
ATOM     41  H24 1N1 d   1      11.289  -1.829  30.713  0.00  0.00     0.078 H 
ATOM     42  C18 1N1 d   1      11.869   1.313  30.372  0.00  0.00     0.098 C 
ATOM     43  H2  1N1 d   1      10.235   0.625  30.213  0.00  0.00     0.280 HD
ATOM     44  C19 1N1 d   1      11.492   1.578  28.923  0.00  0.00     0.019 C 
ATOM     45  H25 1N1 d   1      12.916   0.985  30.447  0.00  0.00     0.078 H 
ATOM     46  H26 1N1 d   1      11.723   2.216  30.983  0.00  0.00     0.078 H 
ATOM     47  H14 1N1 d   1      10.428   1.849  28.858  0.00  0.00     0.066 H 
ATOM     48  H15 1N1 d   1      12.104   2.399  28.523  0.00  0.00     0.066 H 
BRANCH  39  49
ATOM     49  C20 1N1 d   1      10.100   0.406  31.994  0.00  0.00     0.103 C 
ATOM     50  H16 1N1 d   1      10.643   0.028  32.873  0.00  0.00     0.079 H 
ATOM     51  H17 1N1 d   1       9.185  -0.186  31.846  0.00  0.00     0.079 H 
BRANCH  49  52
ATOM     52  C21 1N1 d   1       9.701   1.877  32.253  0.00  0.00     0.039 C 
ATOM     53  H18 1N1 d   1      10.040   2.486  31.402  0.00  0.00     0.076 H 
ATOM     54  H19 1N1 d   1      10.202   2.219  33.171  0.00  0.00     0.076 H 
BRANCH  52  55
ATOM     55  O1  1N1 d   1       8.266   2.064  32.413  0.00  0.00    -0.399 OA
ATOM     56  H27 1N1 d   1       8.083   2.983  32.569  0.00  0.00     0.209 HD
ENDBRANCH  52  55
ENDBRANCH  49  52
ENDBRANCH  39  49
ENDBRANCH   3  34
BRANCH   4  57
ATOM     57  C15 1N1 d   1      12.083  -1.589  23.683  0.00  0.00    -0.019 C 
ATOM     58  H9  1N1 d   1      12.017  -2.512  24.278  0.00  0.00     0.037 H 
ATOM     59  H10 1N1 d   1      13.039  -1.571  23.139  0.00  0.00     0.037 H 
ATOM     60  H11 1N1 d   1      11.251  -1.556  22.964  0.00  0.00     0.037 H 
ENDBRANCH   4  57
TORSDOF 10
