REMARK  3 active torsions:
REMARK  status: ('A' for Active; 'I' for Inactive)
REMARK    1  A    between atoms: C2'_10  and  O2'_11 
REMARK    2  A    between atoms: C1'_12  and  N9_13 
REMARK    3  A    between atoms: C2_20  and  N2_21 
ROOT
ATOM      1  PA  PCG d   1       3.027 -34.267  27.326  0.00  0.00     0.408 P 
ATOM      2  O1A PCG d   1       4.366 -33.602  27.111  0.00  0.00    -0.624 OA
ATOM      3  O2A PCG d   1       1.757 -33.476  27.479  0.00  0.00    -0.624 OA
ATOM      4  O5' PCG d   1       3.119 -35.084  28.701  0.00  0.00    -0.287 OA
ATOM      5  C5' PCG d   1       2.203 -36.140  28.962  0.00  0.00     0.058 C 
ATOM      6  C4' PCG d   1       2.278 -37.055  27.762  0.00  0.00     0.090 C 
ATOM      7  O4' PCG d   1       1.417 -38.180  27.841  0.00  0.00    -0.353 OA
ATOM      8  C3' PCG d   1       1.789 -36.357  26.520  0.00  0.00     0.106 C 
ATOM      9  O3' PCG d   1       2.762 -35.378  26.189  0.00  0.00    -0.279 OA
ATOM     10  C2' PCG d   1       1.586 -37.525  25.569  0.00  0.00     0.106 C 
ATOM     11  C1' PCG d   1       1.282 -38.688  26.509  0.00  0.00     0.139 C 
ATOM     12  H   PCG d   1       1.192 -35.761  29.109  0.00  0.00     0.079 H 
ATOM     13  H   PCG d   1       2.458 -36.669  29.881  0.00  0.00     0.079 H 
ATOM     14  H   PCG d   1       3.327 -37.350  27.735  0.00  0.00     0.090 H 
ATOM     15  H   PCG d   1       0.863 -35.784  26.556  0.00  0.00     0.092 H 
ATOM     16  H   PCG d   1       0.802 -37.343  24.834  0.00  0.00     0.093 H 
ATOM     17  H   PCG d   1       1.964 -39.517  26.317  0.00  0.00     0.122 H 
ENDROOT
BRANCH  11  18
ATOM     18  N9  PCG d   1      -0.096 -39.200  26.308  0.00  0.00    -0.295 N 
ATOM     19  C8  PCG d   1      -0.495 -40.433  25.917  0.00  0.00     0.071 A 
ATOM     20  N7  PCG d   1      -1.852 -40.543  25.851  0.00  0.00    -0.234 NA
ATOM     21  H   PCG d   1       0.192 -41.246  25.681  0.00  0.00     0.144 H 
ATOM     22  C5  PCG d   1      -2.339 -39.341  26.213  0.00  0.00     0.171 A 
ATOM     23  C6  PCG d   1      -3.682 -38.730  26.359  0.00  0.00     0.292 A 
ATOM     24  C4  PCG d   1      -1.183 -38.475  26.527  0.00  0.00     0.161 A 
ATOM     25  O6  PCG d   1      -4.705 -39.411  26.117  0.00  0.00    -0.265 OA
ATOM     26  N1  PCG d   1      -3.746 -37.445  26.761  0.00  0.00    -0.154 N 
ATOM     27  C2  PCG d   1      -2.639 -36.699  27.029  0.00  0.00     0.680 A 
ATOM     28  H   PCG d   1      -4.663 -37.013  26.869  0.00  0.00     0.187 HD
ATOM     29  N3  PCG d   1      -1.383 -37.195  26.918  0.00  0.00    -0.174 N 
ATOM     30  H   PCG d   1      -0.583 -36.599  27.131  0.00  0.00     0.186 HD
BRANCH  27  31
ATOM     31  N2  PCG d   1      -2.752 -35.404  27.431  0.00  0.00    -0.234 N 
ATOM     32  H   PCG d   1      -3.674 -34.981  27.535  0.00  0.00     0.174 HD
ATOM     33  H   PCG d   1      -1.914 -34.856  27.628  0.00  0.00     0.174 HD
ENDBRANCH  27  31
ENDBRANCH  11  18
BRANCH  10  34
ATOM     34  O2' PCG d   1       2.774 -37.788  24.825  0.00  0.00    -0.388 OA
ATOM     35  H   PCG d   1       3.009 -37.010  24.314  0.00  0.00     0.210 HD
ENDBRANCH  10  34
TORSDOF 3
