REMARK WARNING: 32 MAX_TORS EXCEEDED!!!
REMARK  40 active torsions:
REMARK  status: ('A' for Active; 'I' for Inactive)
REMARK    1  A    between atoms: CA_2  and  CB_3 
REMARK    2  A    between atoms: N_6  and  CN_7 
REMARK    3  A    between atoms: CA_8  and  CB_9 
REMARK    4  A    between atoms: CB_9  and  CG_10 
REMARK    5  A    between atoms: CG_10  and  CD1_11 
REMARK    6  A    between atoms: CG_10  and  CD2_12 
REMARK    7  A    between atoms: N_15  and  CN_16 
REMARK    8  A    between atoms: CA_17  and  CB_18 
REMARK    9  A    between atoms: CB_18  and  CG_19 
REMARK   10  A    between atoms: CG_19  and  CD1_20 
REMARK   11  A    between atoms: CG_19  and  CD2_21 
REMARK   12  A    between atoms: N_24  and  CN_25 
REMARK   13  A    between atoms: CA_26  and  CB_27 
REMARK   14  A    between atoms: CB_27  and  CG1_28 
REMARK   15  A    between atoms: CB_27  and  CG2_29 
REMARK   16  A    between atoms: N_33  and  CN_39 
REMARK   17  A    between atoms: CB_36  and  CA_35 
REMARK   18  A    between atoms: CB_36  and  OG1_44 
REMARK   19  A    between atoms: CG2_45  and  CB_36 
REMARK   20  A    between atoms: CD2_43  and  CE_37 
REMARK   21  A    between atoms: CZ_41  and  CH_38 
REMARK   22  A    between atoms: CG2_45  and  CD1_42 
REMARK   23  A    between atoms: CD2_43  and  CG2_45 
REMARK   24  A    between atoms: CA_47  and  CB_50 
REMARK   25  A    between atoms: CB_50  and  CG_51 
REMARK   26  A    between atoms: N_52  and  CN_56 
REMARK   27  A    between atoms: N_57  and  CN_58 
REMARK   28  A    between atoms: CA_59  and  CB_60 
REMARK   29  A    between atoms: CB_60  and  CG_61 
REMARK   30  A    between atoms: CG_61  and  CD1_62 
REMARK   31  A    between atoms: CG_61  and  CD2_63 
REMARK   32  A    between atoms: CA_67  and  CB_70 
REMARK   33  A    between atoms: CB_70  and  CG1_71 
REMARK   34  A    between atoms: CB_70  and  CG2_72 
REMARK   35  A    between atoms: N_73  and  CN_74 
REMARK   36  A    between atoms: CA_75  and  CB_76 
REMARK   37  A    between atoms: CB_76  and  CG_77 
REMARK   38  A    between atoms: CG_77  and  CD1_78 
REMARK   39  A    between atoms: CG_77  and  CD2_79 
REMARK   40  A    between atoms: CA_83  and  CB_86 
ROOT
ATOM      1  N   DAL d   1      -0.876 -14.494  69.456  0.00  0.00    -0.346 N 
ATOM      2  CA  DAL d   1      -1.811 -13.536  68.842  0.00  0.00     0.086 C 
ATOM      3  C   DAL d   1      -3.075 -14.225  68.410  0.00  0.00     0.242 C 
ATOM      4  O   DAL d   1      -3.617 -15.090  69.100  0.00  0.00    -0.271 OA
ATOM      5  H   DAL d   1      -0.976 -14.739  70.441  0.00  0.00     0.163 HD
ATOM      6  H   DAL d   1      -1.340 -13.115  67.954  0.00  0.00     0.086 H 
ATOM      7  N   MLE d   1      -3.635 -13.873  67.202  0.00  0.00    -0.342 N 
ATOM      8  CA  MLE d   1      -4.841 -14.509  66.695  0.00  0.00     0.079 C 
ATOM      9  C   MLE d   1      -4.669 -15.093  65.305  0.00  0.00     0.177 C 
ATOM     10  O   MLE d   1      -5.333 -14.512  64.210  0.00  0.00    -0.175 OA
ATOM     11  N   MLE d   1      -3.890 -16.166  65.173  0.00  0.00    -0.353 N 
ATOM     12  CA  MLE d   1      -3.669 -16.742  63.853  0.00  0.00     0.078 C 
ATOM     13  C   MLE d   1      -4.508 -17.990  63.639  0.00  0.00     0.177 C 
ATOM     14  O   MLE d   1      -5.104 -18.611  64.756  0.00  0.00    -0.175 OA
ATOM     15  N   MLE d   1       2.548 -25.149  63.338  0.00  0.00    -0.354 N 
ATOM     16  CA  MLE d   1       3.221 -24.317  64.324  0.00  0.00     0.078 C 
ATOM     17  C   MLE d   1       2.319 -23.167  64.694  0.00  0.00     0.175 C 
ATOM     18  O   MLE d   1       2.233 -22.021  63.885  0.00  0.00    -0.175 OA
ATOM     19  N   MLE d   1       1.273 -19.933  66.450  0.00  0.00    -0.342 N 
ATOM     20  CA  MLE d   1       2.015 -18.802  67.022  0.00  0.00     0.079 C 
ATOM     21  C   MLE d   1       1.155 -17.875  67.841  0.00  0.00     0.175 C 
ATOM     22  O   MLE d   1      -0.231 -18.083  67.948  0.00  0.00    -0.175 OA
ATOM     23  H   MLE d   1      -5.005 -15.324  67.400  0.00  0.00     0.086 H 
ATOM     24  H   MLE d   1      -4.011 -16.034  63.098  0.00  0.00     0.086 H 
ATOM     25  H   MLE d   1       3.409 -24.889  65.232  0.00  0.00     0.086 H 
ATOM     26  H   MLE d   1       2.722 -19.253  67.718  0.00  0.00     0.086 H 
ATOM     27  N   MVA d   1      -4.677 -18.445  62.394  0.00  0.00    -0.353 N 
ATOM     28  CA  MVA d   1      -5.285 -19.758  62.165  0.00  0.00     0.080 C 
ATOM     29  C   MVA d   1      -4.318 -20.665  61.434  0.00  0.00     0.177 C 
ATOM     30  O   MVA d   1      -4.455 -20.865  60.051  0.00  0.00    -0.175 OA
ATOM     31  H   MVA d   1      -5.492 -20.149  63.161  0.00  0.00     0.086 H 
ATOM     32  C   XXA d   1      -2.406 -23.487  61.523  0.00  0.00     0.243 C 
ATOM     33  N   XXA d   1      -3.342 -21.245  62.129  0.00  0.00    -0.350 N 
ATOM     34  O   XXA d   1      -3.170 -24.002  62.334  0.00  0.00    -0.271 OA
ATOM     35  CA  XXA d   1      -2.311 -21.986  61.393  0.00  0.00     0.115 C 
ATOM     36  H   XXA d   1      -2.551 -21.760  60.354  0.00  0.00     0.091 H 
ATOM     37  N   ABA d   1      -1.636 -24.194  60.701  0.00  0.00    -0.346 N 
ATOM     38  CA  ABA d   1      -1.695 -25.650  60.637  0.00  0.00     0.089 C 
ATOM     39  C   ABA d   1      -0.353 -26.296  60.989  0.00  0.00     0.242 C 
ATOM     40  O   ABA d   1       0.421 -26.622  60.091  0.00  0.00    -0.271 OA
ATOM     41  H   ABA d   1      -0.981 -23.701  60.094  0.00  0.00     0.163 HD
ATOM     42  H   ABA d   1      -2.422 -25.979  61.379  0.00  0.00     0.087 H 
ATOM     43  N   SAR d   1      -0.064 -26.470  62.285  0.00  0.00    -0.347 N 
ATOM     44  CA  SAR d   1       1.202 -27.081  62.679  0.00  0.00     0.059 C 
ATOM     45  C   SAR d   1       1.986 -26.297  63.718  0.00  0.00     0.172 C 
ATOM     46  O   SAR d   1       2.104 -26.806  65.034  0.00  0.00    -0.175 OA
ATOM     47  H   SAR d   1       1.823 -27.133  61.784  0.00  0.00     0.077 H 
ATOM     48  H   SAR d   1       0.964 -28.048  63.123  0.00  0.00     0.077 H 
ATOM     49  N   VAL d   1       1.603 -23.321  65.802  0.00  0.00    -0.357 N 
ATOM     50  CA  VAL d   1       0.668 -22.301  66.254  0.00  0.00     0.091 C 
ATOM     51  C   VAL d   1       1.464 -21.172  66.916  0.00  0.00     0.243 C 
ATOM     52  O   VAL d   1       2.262 -21.432  67.824  0.00  0.00    -0.271 OA
ATOM     53  H   VAL d   1       1.709 -24.158  66.339  0.00  0.00     0.162 HD
ATOM     54  H   VAL d   1       0.122 -21.904  65.398  0.00  0.00     0.088 H 
ATOM     55  N   ALA d   1       1.775 -16.872  68.455  0.00  0.00    -0.357 N 
ATOM     56  CA  ALA d   1       1.068 -16.008  69.396  0.00  0.00     0.085 C 
ATOM     57  C   ALA d   1       0.129 -15.060  68.711  0.00  0.00     0.240 C 
ATOM     58  O   ALA d   1       0.225 -14.766  67.522  0.00  0.00    -0.271 OA
ATOM     59  H   ALA d   1       2.744 -16.706  68.269  0.00  0.00     0.162 HD
ATOM     60  H   ALA d   1       0.448 -16.645  70.026  0.00  0.00     0.086 H 
ENDROOT
BRANCH  35  61
ATOM     61  CB  XXA d   1      -0.870 -21.474  61.607  0.00  0.00     0.067 C 
ATOM     62  H   XXA d   1      -0.260 -21.916  60.819  0.00  0.00     0.087 H 
BRANCH  61  63
ATOM     63  OG1 XXA d   1      -0.418 -21.888  62.880  0.00  0.00    -0.393 OA
ATOM     64  H   XXA d   1       0.478 -21.572  63.019  0.00  0.00     0.210 HD
ENDBRANCH  61  63
BRANCH  61  65
ATOM     65  CG2 XXA d   1      -0.694 -19.953  61.426  0.00  0.00    -0.027 C 
ATOM     66  H   XXA d   1      -1.325 -19.512  62.197  0.00  0.00     0.043 H 
BRANCH  65  67
ATOM     67  CD1 XXA d   1      -1.193 -19.445  60.071  0.00  0.00    -0.070 C 
ATOM     68  H   XXA d   1      -0.638 -19.938  59.273  0.00  0.00     0.028 H 
ATOM     69  H   XXA d   1      -2.255 -19.669  59.969  0.00  0.00     0.028 H 
ATOM     70  H   XXA d   1      -1.040 -18.368  60.009  0.00  0.00     0.028 H 
ENDBRANCH  65  67
BRANCH  65  71
ATOM     71  CD2 XXA d   1       0.748 -19.483  61.669  0.00  0.00    -0.044 C 
ATOM     72  H   XXA d   1       0.748 -18.394  61.721  0.00  0.00     0.039 H 
ATOM     73  H   XXA d   1       1.103 -19.935  62.595  0.00  0.00     0.039 H 
BRANCH  71  74
ATOM     74  CE  XXA d   1       1.678 -19.904  60.549  0.00  0.00    -0.103 C 
ATOM     75  CZ  XXA d   1       2.769 -20.621  60.813  0.00  0.00    -0.087 C 
ATOM     76  H   XXA d   1       2.998 -20.906  61.840  0.00  0.00     0.083 H 
ATOM     77  H   XXA d   1       1.453 -19.618  59.522  0.00  0.00     0.076 H 
BRANCH  75  78
ATOM     78  CH  XXA d   1       3.663 -21.028  59.722  0.00  0.00    -0.092 C 
ATOM     79  CT  XXA d   1       4.756 -21.741  59.990  0.00  0.00    -0.121 C 
ATOM     80  H   XXA d   1       4.985 -22.021  61.018  0.00  0.00     0.066 H 
ATOM     81  H   XXA d   1       5.421 -22.044  59.181  0.00  0.00     0.066 H 
ATOM     82  H   XXA d   1       3.433 -20.747  58.694  0.00  0.00     0.082 H 
ENDBRANCH  75  78
ENDBRANCH  71  74
ENDBRANCH  65  71
ENDBRANCH  61  65
ENDBRANCH  35  61
BRANCH  33  83
ATOM     83  CN  XXA d   1      -3.312 -21.230  63.592  0.00  0.00    -0.016 C 
ATOM     84  H   XXA d   1      -3.279 -20.198  63.943  0.00  0.00     0.056 H 
ATOM     85  H   XXA d   1      -4.207 -21.718  63.977  0.00  0.00     0.056 H 
ATOM     86  H   XXA d   1      -2.427 -21.762  63.941  0.00  0.00     0.056 H 
ENDBRANCH  33  83
BRANCH  38  87
ATOM     87  CB  ABA d   1      -2.148 -26.102  59.243  0.00  0.00    -0.041 C 
ATOM     88  H   ABA d   1      -2.247 -27.187  59.260  0.00  0.00     0.036 H 
ATOM     89  H   ABA d   1      -1.406 -25.757  58.523  0.00  0.00     0.036 H 
BRANCH  87  90
ATOM     90  CG  ABA d   1      -3.499 -25.515  58.841  0.00  0.00    -0.074 C 
ATOM     91  H   ABA d   1      -4.258 -25.830  59.557  0.00  0.00     0.027 H 
ATOM     92  H   ABA d   1      -3.433 -24.427  58.834  0.00  0.00     0.027 H 
ATOM     93  H   ABA d   1      -3.767 -25.870  57.846  0.00  0.00     0.027 H 
ENDBRANCH  87  90
ENDBRANCH  38  87
BRANCH  28  94
ATOM     94  CB  MVA d   1      -6.661 -19.744  61.466  0.00  0.00    -0.034 C 
ATOM     95  H   MVA d   1      -6.428 -19.582  60.413  0.00  0.00     0.042 H 
BRANCH  94  96
ATOM     96  CG1 MVA d   1      -7.388 -21.066  61.688  0.00  0.00    -0.071 C 
ATOM     97  H   MVA d   1      -6.791 -21.881  61.278  0.00  0.00     0.028 H 
ATOM     98  H   MVA d   1      -7.535 -21.223  62.757  0.00  0.00     0.028 H 
ATOM     99  H   MVA d   1      -8.356 -21.036  61.187  0.00  0.00     0.028 H 
ENDBRANCH  94  96
BRANCH  94 100
ATOM    100  CG2 MVA d   1      -7.592 -18.613  61.898  0.00  0.00    -0.071 C 
ATOM    101  H   MVA d   1      -7.785 -18.692  62.968  0.00  0.00     0.028 H 
ATOM    102  H   MVA d   1      -7.121 -17.654  61.682  0.00  0.00     0.028 H 
ATOM    103  H   MVA d   1      -8.532 -18.689  61.351  0.00  0.00     0.028 H 
ENDBRANCH  94 100
ENDBRANCH  28  94
BRANCH  27 104
ATOM    104  CN  MVA d   1      -4.293 -17.634  61.240  0.00  0.00    -0.016 C 
ATOM    105  H   MVA d   1      -4.856 -16.701  61.249  0.00  0.00     0.056 H 
ATOM    106  H   MVA d   1      -3.226 -17.416  61.289  0.00  0.00     0.056 H 
ATOM    107  H   MVA d   1      -4.511 -18.182  60.324  0.00  0.00     0.056 H 
ENDBRANCH  27 104
BRANCH  43 108
ATOM    108  CN  SAR d   1      -0.992 -26.196  63.372  0.00  0.00    -0.016 C 
ATOM    109  H   SAR d   1      -1.279 -25.145  63.347  0.00  0.00     0.056 H 
ATOM    110  H   SAR d   1      -1.879 -26.819  63.256  0.00  0.00     0.056 H 
ATOM    111  H   SAR d   1      -0.511 -26.420  64.324  0.00  0.00     0.056 H 
ENDBRANCH  43 108
BRANCH  12 112
ATOM    112  CB  MLE d   1      -2.163 -16.957  63.603  0.00  0.00    -0.036 C 
ATOM    113  H   MLE d   1      -2.051 -17.346  62.591  0.00  0.00     0.037 H 
ATOM    114  H   MLE d   1      -1.796 -17.637  64.372  0.00  0.00     0.037 H 
BRANCH 112 115
ATOM    115  CG  MLE d   1      -1.338 -15.666  63.696  0.00  0.00    -0.059 C 
ATOM    116  H   MLE d   1      -1.454 -15.312  64.720  0.00  0.00     0.038 H 
BRANCH 115 117
ATOM    117  CD1 MLE d   1       0.131 -15.946  63.411  0.00  0.00    -0.073 C 
ATOM    118  H   MLE d   1       0.511 -16.662  64.140  0.00  0.00     0.028 H 
ATOM    119  H   MLE d   1       0.233 -16.359  62.407  0.00  0.00     0.028 H 
ATOM    120  H   MLE d   1       0.697 -15.017  63.482  0.00  0.00     0.028 H 
ENDBRANCH 115 117
BRANCH 115 121
ATOM    121  CD2 MLE d   1      -1.847 -14.541  62.793  0.00  0.00    -0.073 C 
ATOM    122  H   MLE d   1      -1.818 -14.870  61.754  0.00  0.00     0.028 H 
ATOM    123  H   MLE d   1      -2.872 -14.291  63.068  0.00  0.00     0.028 H 
ATOM    124  H   MLE d   1      -1.212 -13.663  62.915  0.00  0.00     0.028 H 
ENDBRANCH 115 121
ENDBRANCH 112 115
ENDBRANCH  12 112
BRANCH  11 125
ATOM    125  CN  MLE d   1      -3.451 -16.912  66.344  0.00  0.00    -0.016 C 
ATOM    126  H   MLE d   1      -2.877 -16.255  66.998  0.00  0.00     0.056 H 
ATOM    127  H   MLE d   1      -4.322 -17.290  66.880  0.00  0.00     0.056 H 
ATOM    128  H   MLE d   1      -2.827 -17.748  66.028  0.00  0.00     0.056 H 
ENDBRANCH  11 125
BRANCH  15 129
ATOM    129  CN  MLE d   1       2.468 -24.627  61.972  0.00  0.00    -0.016 C 
ATOM    130  H   MLE d   1       2.918 -25.343  61.284  0.00  0.00     0.056 H 
ATOM    131  H   MLE d   1       1.423 -24.472  61.704  0.00  0.00     0.056 H 
ATOM    132  H   MLE d   1       3.004 -23.680  61.914  0.00  0.00     0.056 H 
ENDBRANCH  15 129
BRANCH  16 133
ATOM    133  CB  MLE d   1       4.611 -23.886  63.838  0.00  0.00    -0.036 C 
ATOM    134  H   MLE d   1       4.462 -23.304  62.929  0.00  0.00     0.037 H 
ATOM    135  H   MLE d   1       5.197 -24.796  63.708  0.00  0.00     0.037 H 
BRANCH 133 136
ATOM    136  CG  MLE d   1       5.385 -22.996  64.813  0.00  0.00    -0.059 C 
ATOM    137  H   MLE d   1       4.767 -22.119  65.007  0.00  0.00     0.038 H 
BRANCH 136 138
ATOM    138  CD1 MLE d   1       5.640 -23.691  66.146  0.00  0.00    -0.073 C 
ATOM    139  H   MLE d   1       4.687 -23.951  66.607  0.00  0.00     0.028 H 
ATOM    140  H   MLE d   1       6.223 -24.596  65.977  0.00  0.00     0.028 H 
ATOM    141  H   MLE d   1       6.192 -23.020  66.804  0.00  0.00     0.028 H 
ENDBRANCH 136 138
BRANCH 136 142
ATOM    142  CD2 MLE d   1       6.710 -22.563  64.198  0.00  0.00    -0.073 C 
ATOM    143  H   MLE d   1       7.308 -23.445  63.969  0.00  0.00     0.028 H 
ATOM    144  H   MLE d   1       6.519 -22.005  63.282  0.00  0.00     0.028 H 
ATOM    145  H   MLE d   1       7.248 -21.931  64.905  0.00  0.00     0.028 H 
ENDBRANCH 136 142
ENDBRANCH 133 136
ENDBRANCH  16 133
BRANCH   8 146
ATOM    146  CB  MLE d   1      -6.098 -13.618  66.730  0.00  0.00    -0.036 C 
ATOM    147  H   MLE d   1      -6.909 -14.209  66.304  0.00  0.00     0.037 H 
ATOM    148  H   MLE d   1      -5.846 -12.706  66.189  0.00  0.00     0.037 H 
BRANCH 146 149
ATOM    149  CG  MLE d   1      -6.561 -13.184  68.123  0.00  0.00    -0.059 C 
ATOM    150  H   MLE d   1      -5.701 -12.761  68.643  0.00  0.00     0.038 H 
BRANCH 149 151
ATOM    151  CD1 MLE d   1      -7.655 -12.127  68.000  0.00  0.00    -0.073 C 
ATOM    152  H   MLE d   1      -7.264 -11.262  67.464  0.00  0.00     0.028 H 
ATOM    153  H   MLE d   1      -8.501 -12.543  67.453  0.00  0.00     0.028 H 
ATOM    154  H   MLE d   1      -7.979 -11.824  68.996  0.00  0.00     0.028 H 
ENDBRANCH 149 151
BRANCH 149 155
ATOM    155  CD2 MLE d   1      -7.062 -14.368  68.952  0.00  0.00    -0.073 C 
ATOM    156  H   MLE d   1      -7.904 -14.836  68.442  0.00  0.00     0.028 H 
ATOM    157  H   MLE d   1      -6.257 -15.094  69.070  0.00  0.00     0.028 H 
ATOM    158  H   MLE d   1      -7.380 -14.014  69.933  0.00  0.00     0.028 H 
ENDBRANCH 149 155
ENDBRANCH 146 149
ENDBRANCH   8 146
BRANCH   7 159
ATOM    159  CN  MLE d   1      -3.008 -12.961  66.270  0.00  0.00    -0.015 C 
ATOM    160  H   MLE d   1      -2.729 -13.502  65.366  0.00  0.00     0.056 H 
ATOM    161  H   MLE d   1      -3.708 -12.165  66.016  0.00  0.00     0.056 H 
ATOM    162  H   MLE d   1      -2.117 -12.531  66.728  0.00  0.00     0.056 H 
ENDBRANCH   7 159
BRANCH  50 163
ATOM    163  CB  VAL d   1      -0.408 -22.888  67.209  0.00  0.00    -0.033 C 
ATOM    164  H   VAL d   1       0.108 -23.279  68.085  0.00  0.00     0.042 H 
BRANCH 163 165
ATOM    165  CG1 VAL d   1      -1.389 -21.806  67.684  0.00  0.00    -0.071 C 
ATOM    166  H   VAL d   1      -0.841 -21.029  68.217  0.00  0.00     0.028 H 
ATOM    167  H   VAL d   1      -1.893 -21.370  66.821  0.00  0.00     0.028 H 
ATOM    168  H   VAL d   1      -2.127 -22.253  68.350  0.00  0.00     0.028 H 
ENDBRANCH 163 165
BRANCH 163 169
ATOM    169  CG2 VAL d   1      -1.168 -24.039  66.529  0.00  0.00    -0.071 C 
ATOM    170  H   VAL d   1      -1.659 -23.667  65.630  0.00  0.00     0.028 H 
ATOM    171  H   VAL d   1      -0.466 -24.828  66.261  0.00  0.00     0.028 H 
ATOM    172  H   VAL d   1      -1.916 -24.435  67.216  0.00  0.00     0.028 H 
ENDBRANCH 163 169
ENDBRANCH  50 163
BRANCH   2 173
ATOM    173  CB  DAL d   1      -2.116 -12.395  69.813  0.00  0.00    -0.049 C 
ATOM    174  H   DAL d   1      -2.763 -11.667  69.324  0.00  0.00     0.030 H 
ATOM    175  H   DAL d   1      -2.617 -12.794  70.695  0.00  0.00     0.030 H 
ATOM    176  H   DAL d   1      -1.184 -11.913  70.110  0.00  0.00     0.030 H 
ENDBRANCH   2 173
BRANCH  19 177
ATOM    177  CN  MLE d   1       0.304 -19.664  65.378  0.00  0.00    -0.015 C 
ATOM    178  H   MLE d   1       0.583 -20.228  64.488  0.00  0.00     0.056 H 
ATOM    179  H   MLE d   1      -0.691 -19.967  65.705  0.00  0.00     0.056 H 
ATOM    180  H   MLE d   1       0.304 -18.598  65.149  0.00  0.00     0.056 H 
ENDBRANCH  19 177
BRANCH  20 181
ATOM    181  CB  MLE d   1       2.851 -18.042  65.980  0.00  0.00    -0.036 C 
ATOM    182  H   MLE d   1       3.390 -17.239  66.482  0.00  0.00     0.037 H 
ATOM    183  H   MLE d   1       2.182 -17.645  65.217  0.00  0.00     0.037 H 
BRANCH 181 184
ATOM    184  CG  MLE d   1       3.865 -18.970  65.309  0.00  0.00    -0.059 C 
ATOM    185  H   MLE d   1       3.389 -19.945  65.205  0.00  0.00     0.038 H 
BRANCH 184 186
ATOM    186  CD1 MLE d   1       4.221 -18.475  63.909  0.00  0.00    -0.073 C 
ATOM    187  H   MLE d   1       3.320 -18.442  63.297  0.00  0.00     0.028 H 
ATOM    188  H   MLE d   1       4.653 -17.477  63.977  0.00  0.00     0.028 H 
ATOM    189  H   MLE d   1       4.944 -19.155  63.457  0.00  0.00     0.028 H 
ENDBRANCH 184 186
BRANCH 184 190
ATOM    190  CD2 MLE d   1       5.107 -19.188  66.166  0.00  0.00    -0.073 C 
ATOM    191  H   MLE d   1       5.594 -18.230  66.348  0.00  0.00     0.028 H 
ATOM    192  H   MLE d   1       4.817 -19.636  67.117  0.00  0.00     0.028 H 
ATOM    193  H   MLE d   1       5.795 -19.854  65.644  0.00  0.00     0.028 H 
ENDBRANCH 184 190
ENDBRANCH 181 184
ENDBRANCH  20 181
BRANCH  56 194
ATOM    194  CB  ALA d   1       2.056 -15.274  70.277  0.00  0.00    -0.049 C 
ATOM    195  H   ALA d   1       2.651 -15.997  70.834  0.00  0.00     0.030 H 
ATOM    196  H   ALA d   1       2.712 -14.664  69.656  0.00  0.00     0.030 H 
ATOM    197  H   ALA d   1       1.514 -14.634  70.973  0.00  0.00     0.030 H 
ENDBRANCH  56 194
TORSDOF 40
