REMARK WARNING: 32 MAX_TORS EXCEEDED!!!
REMARK  40 active torsions:
REMARK  status: ('A' for Active; 'I' for Inactive)
REMARK    1  A    between atoms: CA_2  and  CB_3 
REMARK    2  A    between atoms: N_6  and  CN_7 
REMARK    3  A    between atoms: CA_8  and  CB_9 
REMARK    4  A    between atoms: CB_9  and  CG_10 
REMARK    5  A    between atoms: CG_10  and  CD1_11 
REMARK    6  A    between atoms: CG_10  and  CD2_12 
REMARK    7  A    between atoms: N_15  and  CN_16 
REMARK    8  A    between atoms: CA_17  and  CB_18 
REMARK    9  A    between atoms: CB_18  and  CG_19 
REMARK   10  A    between atoms: CG_19  and  CD1_20 
REMARK   11  A    between atoms: CG_19  and  CD2_21 
REMARK   12  A    between atoms: N_24  and  CN_25 
REMARK   13  A    between atoms: CA_26  and  CB_27 
REMARK   14  A    between atoms: CB_27  and  CG1_28 
REMARK   15  A    between atoms: CB_27  and  CG2_29 
REMARK   16  A    between atoms: N_33  and  CN_39 
REMARK   17  A    between atoms: CB_36  and  CA_35 
REMARK   18  A    between atoms: CB_36  and  OG1_44 
REMARK   19  A    between atoms: CG2_45  and  CB_36 
REMARK   20  A    between atoms: CD2_43  and  CE_37 
REMARK   21  A    between atoms: CZ_41  and  CH_38 
REMARK   22  A    between atoms: CG2_45  and  CD1_42 
REMARK   23  A    between atoms: CD2_43  and  CG2_45 
REMARK   24  A    between atoms: CA_47  and  CB_50 
REMARK   25  A    between atoms: CB_50  and  CG_51 
REMARK   26  A    between atoms: N_52  and  CN_56 
REMARK   27  A    between atoms: N_57  and  CN_58 
REMARK   28  A    between atoms: CA_59  and  CB_60 
REMARK   29  A    between atoms: CB_60  and  CG_61 
REMARK   30  A    between atoms: CG_61  and  CD1_62 
REMARK   31  A    between atoms: CG_61  and  CD2_63 
REMARK   32  A    between atoms: CA_67  and  CB_70 
REMARK   33  A    between atoms: CB_70  and  CG1_71 
REMARK   34  A    between atoms: CB_70  and  CG2_72 
REMARK   35  A    between atoms: N_73  and  CN_74 
REMARK   36  A    between atoms: CA_75  and  CB_76 
REMARK   37  A    between atoms: CB_76  and  CG_77 
REMARK   38  A    between atoms: CG_77  and  CD1_78 
REMARK   39  A    between atoms: CG_77  and  CD2_79 
REMARK   40  A    between atoms: CA_83  and  CB_86 
ROOT
ATOM      1  N   DAL d   1      17.171  33.112  52.644  0.00  0.00    -0.346 N 
ATOM      2  CA  DAL d   1      17.717  33.267  51.292  0.00  0.00     0.086 C 
ATOM      3  C   DAL d   1      16.772  32.626  50.265  0.00  0.00     0.242 C 
ATOM      4  O   DAL d   1      15.558  32.809  50.371  0.00  0.00    -0.271 OA
ATOM      5  H   DAL d   1      16.468  33.780  52.961  0.00  0.00     0.163 HD
ATOM      6  H   DAL d   1      18.684  32.767  51.238  0.00  0.00     0.086 H 
ATOM      7  N   MLE d   1      17.295  31.887  49.278  0.00  0.00    -0.342 N 
ATOM      8  CA  MLE d   1      16.402  31.246  48.301  0.00  0.00     0.079 C 
ATOM      9  C   MLE d   1      16.665  29.761  48.165  0.00  0.00     0.177 C 
ATOM     10  O   MLE d   1      17.307  29.270  47.014  0.00  0.00    -0.175 OA
ATOM     11  N   MLE d   1      16.274  28.962  49.159  0.00  0.00    -0.353 N 
ATOM     12  CA  MLE d   1      16.562  27.531  49.086  0.00  0.00     0.078 C 
ATOM     13  C   MLE d   1      15.338  26.720  48.738  0.00  0.00     0.177 C 
ATOM     14  O   MLE d   1      14.065  27.311  48.817  0.00  0.00    -0.175 OA
ATOM     15  N   MLE d   1      13.248  21.864  57.214  0.00  0.00    -0.354 N 
ATOM     16  CA  MLE d   1      13.795  23.084  57.805  0.00  0.00     0.078 C 
ATOM     17  C   MLE d   1      14.123  24.088  56.730  0.00  0.00     0.175 C 
ATOM     18  O   MLE d   1      15.345  24.030  56.041  0.00  0.00    -0.175 OA
ATOM     19  N   MLE d   1      15.383  27.445  55.289  0.00  0.00    -0.342 N 
ATOM     20  CA  MLE d   1      16.315  28.456  55.792  0.00  0.00     0.079 C 
ATOM     21  C   MLE d   1      16.217  29.734  55.006  0.00  0.00     0.175 C 
ATOM     22  O   MLE d   1      15.431  29.785  53.841  0.00  0.00    -0.175 OA
ATOM     23  H   MLE d   1      15.402  31.379  48.713  0.00  0.00     0.086 H 
ATOM     24  H   MLE d   1      17.270  27.395  48.268  0.00  0.00     0.086 H 
ATOM     25  H   MLE d   1      13.029  23.519  58.447  0.00  0.00     0.086 H 
ATOM     26  H   MLE d   1      16.005  28.674  56.814  0.00  0.00     0.086 H 
ATOM     27  N   MVA d   1      15.503  25.460  48.342  0.00  0.00    -0.353 N 
ATOM     28  CA  MVA d   1      14.324  24.603  48.199  0.00  0.00     0.080 C 
ATOM     29  C   MVA d   1      14.433  23.410  49.116  0.00  0.00     0.177 C 
ATOM     30  O   MVA d   1      14.808  22.165  48.588  0.00  0.00    -0.175 OA
ATOM     31  H   MVA d   1      13.472  25.210  48.505  0.00  0.00     0.086 H 
ATOM     32  C   YYA d   1      13.087  21.752  51.718  0.00  0.00     0.243 C 
ATOM     33  N   YYA d   1      14.167  23.586  50.412  0.00  0.00    -0.350 N 
ATOM     34  O   YYA d   1      11.995  22.248  51.459  0.00  0.00    -0.271 OA
ATOM     35  CA  YYA d   1      14.358  22.464  51.337  0.00  0.00     0.115 C 
ATOM     36  H   YYA d   1      14.941  21.772  50.730  0.00  0.00     0.091 H 
ATOM     37  N   ABA d   1      13.230  20.579  52.329  0.00  0.00    -0.346 N 
ATOM     38  CA  ABA d   1      12.090  19.772  52.756  0.00  0.00     0.089 C 
ATOM     39  C   ABA d   1      12.024  19.619  54.281  0.00  0.00     0.242 C 
ATOM     40  O   ABA d   1      12.466  18.604  54.812  0.00  0.00    -0.271 OA
ATOM     41  H   ABA d   1      14.172  20.230  52.506  0.00  0.00     0.163 HD
ATOM     42  H   ABA d   1      11.192  20.299  52.434  0.00  0.00     0.087 H 
ATOM     43  N   SAR d   1      11.480  20.609  54.995  0.00  0.00    -0.347 N 
ATOM     44  CA  SAR d   1      11.380  20.474  56.445  0.00  0.00     0.059 C 
ATOM     45  C   SAR d   1      11.933  21.653  57.224  0.00  0.00     0.172 C 
ATOM     46  O   SAR d   1      11.041  22.465  57.938  0.00  0.00    -0.175 OA
ATOM     47  H   SAR d   1      11.968  19.601  56.726  0.00  0.00     0.077 H 
ATOM     48  H   SAR d   1      10.320  20.400  56.687  0.00  0.00     0.077 H 
ATOM     49  N   VAL d   1      13.195  25.002  56.470  0.00  0.00    -0.357 N 
ATOM     50  CA  VAL d   1      13.386  26.034  55.453  0.00  0.00     0.091 C 
ATOM     51  C   VAL d   1      14.317  27.104  56.016  0.00  0.00     0.243 C 
ATOM     52  O   VAL d   1      14.084  27.596  57.118  0.00  0.00    -0.271 OA
ATOM     53  H   VAL d   1      12.339  24.983  56.986  0.00  0.00     0.162 HD
ATOM     54  H   VAL d   1      13.828  25.578  54.567  0.00  0.00     0.088 H 
ATOM     55  N   ALA d   1      16.888  30.784  55.471  0.00  0.00    -0.357 N 
ATOM     56  CA  ALA d   1      16.805  32.091  54.823  0.00  0.00     0.085 C 
ATOM     57  C   ALA d   1      17.544  32.145  53.480  0.00  0.00     0.240 C 
ATOM     58  O   ALA d   1      18.423  31.327  53.216  0.00  0.00    -0.271 OA
ATOM     59  H   ALA d   1      17.462  30.677  56.282  0.00  0.00     0.162 HD
ATOM     60  H   ALA d   1      15.753  32.266  54.597  0.00  0.00     0.086 H 
ENDROOT
BRANCH  35  61
ATOM     61  CB  YYA d   1      15.236  22.758  52.576  0.00  0.00     0.067 C 
ATOM     62  H   YYA d   1      15.484  21.785  53.000  0.00  0.00     0.087 H 
BRANCH  61  63
ATOM     63  OG1 YYA d   1      14.513  23.516  53.525  0.00  0.00    -0.393 OA
ATOM     64  H   YYA d   1      15.071  23.690  54.286  0.00  0.00     0.210 HD
ENDBRANCH  61  63
BRANCH  61  65
ATOM     65  CG2 YYA d   1      16.598  23.408  52.260  0.00  0.00    -0.027 C 
ATOM     66  H   YYA d   1      16.376  24.437  51.976  0.00  0.00     0.043 H 
BRANCH  65  67
ATOM     67  CD1 YYA d   1      17.321  22.784  51.055  0.00  0.00    -0.070 C 
ATOM     68  H   YYA d   1      17.504  21.727  51.250  0.00  0.00     0.028 H 
ATOM     69  H   YYA d   1      16.699  22.888  50.166  0.00  0.00     0.028 H 
ATOM     70  H   YYA d   1      18.270  23.296  50.898  0.00  0.00     0.028 H 
ENDBRANCH  65  67
BRANCH  65  71
ATOM     71  CD2 YYA d   1      17.503  23.412  53.494  0.00  0.00    -0.044 C 
ATOM     72  H   YYA d   1      18.302  24.139  53.350  0.00  0.00     0.039 H 
ATOM     73  H   YYA d   1      16.912  23.676  54.371  0.00  0.00     0.039 H 
BRANCH  71  74
ATOM     74  CE  YYA d   1      18.110  22.038  53.697  0.00  0.00    -0.103 C 
ATOM     75  CZ  YYA d   1      18.417  21.533  54.891  0.00  0.00    -0.087 C 
ATOM     76  H   YYA d   1      18.849  20.533  54.935  0.00  0.00     0.083 H 
ATOM     77  H   YYA d   1      18.307  21.428  52.815  0.00  0.00     0.076 H 
BRANCH  75  78
ATOM     78  CH  YYA d   1      18.202  22.256  56.150  0.00  0.00    -0.092 C 
ATOM     79  CT  YYA d   1      18.553  21.663  57.288  0.00  0.00    -0.121 C 
ATOM     80  H   YYA d   1      18.989  20.664  57.270  0.00  0.00     0.066 H 
ATOM     81  H   YYA d   1      18.405  22.176  58.238  0.00  0.00     0.066 H 
ATOM     82  H   YYA d   1      17.765  23.255  56.153  0.00  0.00     0.082 H 
ENDBRANCH  75  78
ENDBRANCH  71  74
ENDBRANCH  65  71
ENDBRANCH  61  65
ENDBRANCH  35  61
BRANCH  33  83
ATOM     83  CN  YYA d   1      13.422  24.766  50.859  0.00  0.00    -0.016 C 
ATOM     84  H   YYA d   1      13.969  25.667  50.579  0.00  0.00     0.056 H 
ATOM     85  H   YYA d   1      12.440  24.774  50.387  0.00  0.00     0.056 H 
ATOM     86  H   YYA d   1      13.306  24.732  51.942  0.00  0.00     0.056 H 
ENDBRANCH  33  83
BRANCH  38  87
ATOM     87  CB  ABA d   1      12.139  18.382  52.101  0.00  0.00    -0.041 C 
ATOM     88  H   ABA d   1      11.236  17.845  52.391  0.00  0.00     0.036 H 
ATOM     89  H   ABA d   1      13.051  17.887  52.436  0.00  0.00     0.036 H 
BRANCH  87  90
ATOM     90  CG  ABA d   1      12.175  18.447  50.581  0.00  0.00    -0.074 C 
ATOM     91  H   ABA d   1      11.281  18.955  50.219  0.00  0.00     0.027 H 
ATOM     92  H   ABA d   1      13.061  18.997  50.263  0.00  0.00     0.027 H 
ATOM     93  H   ABA d   1      12.209  17.436  50.176  0.00  0.00     0.027 H 
ENDBRANCH  87  90
ENDBRANCH  38  87
BRANCH  28  94
ATOM     94  CB  MVA d   1      13.975  24.205  46.752  0.00  0.00    -0.034 C 
ATOM     95  H   MVA d   1      14.704  23.441  46.482  0.00  0.00     0.042 H 
BRANCH  94  96
ATOM     96  CG1 MVA d   1      12.561  23.634  46.668  0.00  0.00    -0.071 C 
ATOM     97  H   MVA d   1      12.489  22.750  47.302  0.00  0.00     0.028 H 
ATOM     98  H   MVA d   1      11.847  24.384  47.007  0.00  0.00     0.028 H 
ATOM     99  H   MVA d   1      12.341  23.362  45.636  0.00  0.00     0.028 H 
ENDBRANCH  94  96
BRANCH  94 100
ATOM    100  CG2 MVA d   1      14.129  25.340  45.740  0.00  0.00    -0.071 C 
ATOM    101  H   MVA d   1      13.470  26.163  46.016  0.00  0.00     0.028 H 
ATOM    102  H   MVA d   1      15.163  25.686  45.739  0.00  0.00     0.028 H 
ATOM    103  H   MVA d   1      13.864  24.978  44.747  0.00  0.00     0.028 H 
ENDBRANCH  94 100
ENDBRANCH  28  94
BRANCH  27 104
ATOM    104  CN  MVA d   1      16.796  24.972  47.874  0.00  0.00    -0.016 C 
ATOM    105  H   MVA d   1      17.108  25.550  47.004  0.00  0.00     0.056 H 
ATOM    106  H   MVA d   1      17.534  25.082  48.669  0.00  0.00     0.056 H 
ATOM    107  H   MVA d   1      16.709  23.920  47.601  0.00  0.00     0.056 H 
ENDBRANCH  27 104
BRANCH  43 108
ATOM    108  CN  SAR d   1      10.896  21.826  54.447  0.00  0.00    -0.016 C 
ATOM    109  H   SAR d   1      11.654  22.369  53.882  0.00  0.00     0.056 H 
ATOM    110  H   SAR d   1      10.068  21.565  53.788  0.00  0.00     0.056 H 
ATOM    111  H   SAR d   1      10.531  22.451  55.262  0.00  0.00     0.056 H 
ENDBRANCH  43 108
BRANCH  12 112
ATOM    112  CB  MLE d   1      17.248  27.018  50.363  0.00  0.00    -0.036 C 
ATOM    113  H   MLE d   1      17.391  25.943  50.252  0.00  0.00     0.037 H 
ATOM    114  H   MLE d   1      16.612  27.281  51.208  0.00  0.00     0.037 H 
BRANCH 112 115
ATOM    115  CG  MLE d   1      18.625  27.648  50.603  0.00  0.00    -0.059 C 
ATOM    116  H   MLE d   1      18.454  28.707  50.795  0.00  0.00     0.038 H 
BRANCH 115 117
ATOM    117  CD1 MLE d   1      19.298  27.018  51.819  0.00  0.00    -0.073 C 
ATOM    118  H   MLE d   1      18.677  27.178  52.700  0.00  0.00     0.028 H 
ATOM    119  H   MLE d   1      19.422  25.948  51.650  0.00  0.00     0.028 H 
ATOM    120  H   MLE d   1      20.274  27.479  51.972  0.00  0.00     0.028 H 
ENDBRANCH 115 117
BRANCH 115 121
ATOM    121  CD2 MLE d   1      19.540  27.567  49.381  0.00  0.00    -0.073 C 
ATOM    122  H   MLE d   1      19.695  26.522  49.114  0.00  0.00     0.028 H 
ATOM    123  H   MLE d   1      19.076  28.092  48.546  0.00  0.00     0.028 H 
ATOM    124  H   MLE d   1      20.499  28.030  49.615  0.00  0.00     0.028 H 
ENDBRANCH 115 121
ENDBRANCH 112 115
ENDBRANCH  12 112
BRANCH  11 125
ATOM    125  CN  MLE d   1      15.449  29.448  50.267  0.00  0.00    -0.016 C 
ATOM    126  H   MLE d   1      15.977  30.246  50.789  0.00  0.00     0.056 H 
ATOM    127  H   MLE d   1      14.506  29.830  49.876  0.00  0.00     0.056 H 
ATOM    128  H   MLE d   1      15.252  28.628  50.958  0.00  0.00     0.056 H 
ENDBRANCH  11 125
BRANCH  15 129
ATOM    129  CN  MLE d   1      14.184  20.903  56.639  0.00  0.00    -0.016 C 
ATOM    130  H   MLE d   1      14.095  19.952  57.164  0.00  0.00     0.056 H 
ATOM    131  H   MLE d   1      13.953  20.760  55.583  0.00  0.00     0.056 H 
ATOM    132  H   MLE d   1      15.201  21.282  56.742  0.00  0.00     0.056 H 
ENDBRANCH  15 129
BRANCH  16 133
ATOM    133  CB  MLE d   1      15.000  22.795  58.715  0.00  0.00    -0.036 C 
ATOM    134  H   MLE d   1      15.871  22.679  58.071  0.00  0.00     0.037 H 
ATOM    135  H   MLE d   1      14.759  21.907  59.299  0.00  0.00     0.037 H 
BRANCH 133 136
ATOM    136  CG  MLE d   1      15.315  23.919  59.707  0.00  0.00    -0.059 C 
ATOM    137  H   MLE d   1      15.391  24.839  59.127  0.00  0.00     0.038 H 
BRANCH 136 138
ATOM    138  CD1 MLE d   1      14.202  24.116  60.738  0.00  0.00    -0.073 C 
ATOM    139  H   MLE d   1      13.274  24.369  60.225  0.00  0.00     0.028 H 
ATOM    140  H   MLE d   1      14.066  23.195  61.304  0.00  0.00     0.028 H 
ATOM    141  H   MLE d   1      14.476  24.924  61.416  0.00  0.00     0.028 H 
ENDBRANCH 136 138
BRANCH 136 142
ATOM    142  CD2 MLE d   1      16.641  23.654  60.416  0.00  0.00    -0.073 C 
ATOM    143  H   MLE d   1      16.579  22.710  60.958  0.00  0.00     0.028 H 
ATOM    144  H   MLE d   1      17.441  23.599  59.678  0.00  0.00     0.028 H 
ATOM    145  H   MLE d   1      16.846  24.464  61.116  0.00  0.00     0.028 H 
ENDBRANCH 136 142
ENDBRANCH 133 136
ENDBRANCH  16 133
BRANCH   8 146
ATOM    146  CB  MLE d   1      16.407  31.926  46.916  0.00  0.00    -0.036 C 
ATOM    147  H   MLE d   1      15.718  31.366  46.285  0.00  0.00     0.037 H 
ATOM    148  H   MLE d   1      17.440  31.931  46.568  0.00  0.00     0.037 H 
BRANCH 146 149
ATOM    149  CG  MLE d   1      15.929  33.381  46.917  0.00  0.00    -0.059 C 
ATOM    150  H   MLE d   1      16.513  33.889  47.684  0.00  0.00     0.038 H 
BRANCH 149 151
ATOM    151  CD1 MLE d   1      16.179  34.043  45.568  0.00  0.00    -0.073 C 
ATOM    152  H   MLE d   1      17.247  34.027  45.349  0.00  0.00     0.028 H 
ATOM    153  H   MLE d   1      15.640  33.499  44.792  0.00  0.00     0.028 H 
ATOM    154  H   MLE d   1      15.829  35.075  45.601  0.00  0.00     0.028 H 
ENDBRANCH 149 151
BRANCH 149 155
ATOM    155  CD2 MLE d   1      14.454  33.519  47.289  0.00  0.00    -0.073 C 
ATOM    156  H   MLE d   1      13.846  32.969  46.571  0.00  0.00     0.028 H 
ATOM    157  H   MLE d   1      14.293  33.114  48.288  0.00  0.00     0.028 H 
ATOM    158  H   MLE d   1      14.174  34.572  47.273  0.00  0.00     0.028 H 
ENDBRANCH 149 155
ENDBRANCH 146 149
ENDBRANCH   8 146
BRANCH   7 159
ATOM    159  CN  MLE d   1      18.722  31.581  49.167  0.00  0.00    -0.015 C 
ATOM    160  H   MLE d   1      18.873  30.508  49.288  0.00  0.00     0.056 H 
ATOM    161  H   MLE d   1      19.084  31.892  48.187  0.00  0.00     0.056 H 
ATOM    162  H   MLE d   1      19.268  32.116  49.944  0.00  0.00     0.056 H 
ENDBRANCH   7 159
BRANCH  50 163
ATOM    163  CB  VAL d   1      12.035  26.666  55.009  0.00  0.00    -0.033 C 
ATOM    164  H   VAL d   1      11.613  27.176  55.875  0.00  0.00     0.042 H 
BRANCH 163 165
ATOM    165  CG1 VAL d   1      12.238  27.708  53.900  0.00  0.00    -0.071 C 
ATOM    166  H   VAL d   1      12.888  28.503  54.265  0.00  0.00     0.028 H 
ATOM    167  H   VAL d   1      12.697  27.231  53.034  0.00  0.00     0.028 H 
ATOM    168  H   VAL d   1      11.273  28.127  53.616  0.00  0.00     0.028 H 
ENDBRANCH 163 165
BRANCH 163 169
ATOM    169  CG2 VAL d   1      11.059  25.591  54.553  0.00  0.00    -0.071 C 
ATOM    170  H   VAL d   1      11.487  25.047  53.711  0.00  0.00     0.028 H 
ATOM    171  H   VAL d   1      10.871  24.900  55.375  0.00  0.00     0.028 H 
ATOM    172  H   VAL d   1      10.123  26.058  54.248  0.00  0.00     0.028 H 
ENDBRANCH 163 169
ENDBRANCH  50 163
BRANCH   2 173
ATOM    173  CB  DAL d   1      17.901  34.741  50.981  0.00  0.00    -0.049 C 
ATOM    174  H   DAL d   1      18.328  34.850  49.984  0.00  0.00     0.030 H 
ATOM    175  H   DAL d   1      16.934  35.243  51.021  0.00  0.00     0.030 H 
ATOM    176  H   DAL d   1      18.573  35.185  51.716  0.00  0.00     0.030 H 
ENDBRANCH   2 173
BRANCH  19 177
ATOM    177  CN  MLE d   1      15.683  26.761  54.030  0.00  0.00    -0.015 C 
ATOM    178  H   MLE d   1      15.834  25.699  54.222  0.00  0.00     0.056 H 
ATOM    179  H   MLE d   1      14.850  26.892  53.339  0.00  0.00     0.056 H 
ATOM    180  H   MLE d   1      16.588  27.185  53.594  0.00  0.00     0.056 H 
ENDBRANCH  19 177
BRANCH  20 181
ATOM    181  CB  MLE d   1      17.763  27.952  55.908  0.00  0.00    -0.036 C 
ATOM    182  H   MLE d   1      18.351  28.731  56.393  0.00  0.00     0.037 H 
ATOM    183  H   MLE d   1      18.119  27.721  54.904  0.00  0.00     0.037 H 
BRANCH 181 184
ATOM    184  CG  MLE d   1      17.879  26.679  56.754  0.00  0.00    -0.059 C 
ATOM    185  H   MLE d   1      17.027  26.052  56.489  0.00  0.00     0.038 H 
BRANCH 184 186
ATOM    186  CD1 MLE d   1      19.164  25.920  56.428  0.00  0.00    -0.073 C 
ATOM    187  H   MLE d   1      19.162  25.641  55.374  0.00  0.00     0.028 H 
ATOM    188  H   MLE d   1      20.023  26.558  56.635  0.00  0.00     0.028 H 
ATOM    189  H   MLE d   1      19.220  25.022  57.043  0.00  0.00     0.028 H 
ENDBRANCH 184 186
BRANCH 184 190
ATOM    190  CD2 MLE d   1      17.770  26.950  58.256  0.00  0.00    -0.073 C 
ATOM    191  H   MLE d   1      18.569  27.626  58.561  0.00  0.00     0.028 H 
ATOM    192  H   MLE d   1      16.804  27.406  58.472  0.00  0.00     0.028 H 
ATOM    193  H   MLE d   1      17.860  26.010  58.801  0.00  0.00     0.028 H 
ENDBRANCH 184 190
ENDBRANCH 181 184
ENDBRANCH  20 181
BRANCH  56 194
ATOM    194  CB  ALA d   1      17.302  33.181  55.765  0.00  0.00    -0.049 C 
ATOM    195  H   ALA d   1      16.687  33.190  56.665  0.00  0.00     0.030 H 
ATOM    196  H   ALA d   1      18.339  32.982  56.034  0.00  0.00     0.030 H 
ATOM    197  H   ALA d   1      17.234  34.148  55.267  0.00  0.00     0.030 H 
ENDBRANCH  56 194
TORSDOF 40
