REMARK  8 active torsions:
REMARK  status: ('A' for Active; 'I' for Inactive)
REMARK    1  A    between atoms: C2_4  and  C1_1 
REMARK    2  A    between atoms: C2_4  and  C3_7 
REMARK    3  A    between atoms: C8_14  and  S2_6 
REMARK    4  A    between atoms: S2_6  and  C9_15 
REMARK    5  A    between atoms: C9_15  and  N3_8 
REMARK    6  A    between atoms: N3_8  and  C10_16 
REMARK    7  A    between atoms: N4_10  and  C16_22 
REMARK    8  A    between atoms: C7_13  and  C8_14 
ROOT
ATOM      1  N4  ITD d   1      22.509  -7.497  72.324  0.00  0.00    -0.365 N 
ATOM      2  C9  ITD d   1      21.255  -7.369  72.779  0.00  0.00     0.158 C 
ATOM      3  H8  ITD d   1      23.239  -7.659  73.032  0.00  0.00     0.162 HD
ENDROOT
BRANCH   2   4
ATOM      4  S2  ITD d   1      20.266  -6.133  72.241  0.00  0.00    -0.087 SA
BRANCH   4   5
ATOM      5  C8  ITD d   1      18.621  -6.760  72.105  0.00  0.00     0.023 C 
ATOM      6  H12 ITD d   1      17.921  -5.933  71.913  0.00  0.00     0.059 H 
ATOM      7  H13 ITD d   1      18.338  -7.271  73.037  0.00  0.00     0.059 H 
BRANCH   5   8
ATOM      8  C7  ITD d   1      18.588  -7.737  70.955  0.00  0.00     0.030 A 
ATOM      9  N2  ITD d   1      18.209  -7.382  69.701  0.00  0.00    -0.328 N 
ATOM     10  C4  ITD d   1      18.229  -8.379  68.859  0.00  0.00     0.147 A 
ATOM     11  C6  ITD d   1      17.752  -6.132  69.120  0.00  0.00     0.024 A 
ATOM     12  N1  ITD d   1      17.926  -7.984  67.615  0.00  0.00    -0.360 N 
ATOM     13  S1  ITD d   1      18.853  -9.843  69.494  0.00  0.00    -0.064 SA
ATOM     14  C2  ITD d   1      17.661  -6.546  67.643  0.00  0.00     0.041 A 
ATOM     15  H4  ITD d   1      17.887  -8.589  66.782  0.00  0.00     0.162 HD
ATOM     16  C5  ITD d   1      18.981  -9.093  71.061  0.00  0.00    -0.019 A 
ATOM     17  H9  ITD d   1      19.310  -9.587  71.974  0.00  0.00     0.098 H 
ATOM     18  H10 ITD d   1      16.773  -5.829  69.521  0.00  0.00     0.068 H 
ATOM     19  H11 ITD d   1      18.479  -5.320  69.273  0.00  0.00     0.068 H 
BRANCH  14  20
ATOM     20  C1  ITD d   1      16.263  -6.280  67.102  0.00  0.00    -0.052 C 
ATOM     21  H1  ITD d   1      16.062  -5.199  67.122  0.00  0.00     0.030 H 
ATOM     22  H2  ITD d   1      15.523  -6.803  67.726  0.00  0.00     0.030 H 
ATOM     23  H3  ITD d   1      16.194  -6.646  66.067  0.00  0.00     0.030 H 
ENDBRANCH  14  20
BRANCH  14  24
ATOM     24  C3  ITD d   1      18.729  -5.812  66.836  0.00  0.00    -0.052 C 
ATOM     25  H5  ITD d   1      19.721  -6.030  67.258  0.00  0.00     0.030 H 
ATOM     26  H6  ITD d   1      18.542  -4.729  66.880  0.00  0.00     0.030 H 
ATOM     27  H7  ITD d   1      18.694  -6.149  65.789  0.00  0.00     0.030 H 
ENDBRANCH  14  24
ENDBRANCH   5   8
ENDBRANCH   4   5
ENDBRANCH   2   4
BRANCH   2  28
ATOM     28  N3  ITD d   1      20.721  -8.189  73.690  0.00  0.00    -0.262 NA
BRANCH  28  29
ATOM     29  C10 ITD d   1      21.301  -9.340  74.366  0.00  0.00     0.035 C 
ATOM     30  C11 ITD d   1      22.147  -9.006  75.586  0.00  0.00    -0.044 C 
ATOM     31  C12 ITD d   1      22.268 -10.246  76.470  0.00  0.00    -0.063 C 
ATOM     32  H15 ITD d   1      21.669  -8.195  76.154  0.00  0.00     0.036 H 
ATOM     33  H16 ITD d   1      23.148  -8.686  75.263  0.00  0.00     0.036 H 
ATOM     34  C13 ITD d   1      22.821 -11.453  75.710  0.00  0.00    -0.065 C 
ATOM     35  H17 ITD d   1      21.271 -10.501  76.860  0.00  0.00     0.033 H 
ATOM     36  H18 ITD d   1      22.942 -10.018  77.308  0.00  0.00     0.033 H 
ATOM     37  C14 ITD d   1      22.144 -11.682  74.350  0.00  0.00    -0.063 C 
ATOM     38  H19 ITD d   1      22.674 -12.351  76.328  0.00  0.00     0.033 H 
ATOM     39  H20 ITD d   1      23.897 -11.296  75.542  0.00  0.00     0.033 H 
ATOM     40  C15 ITD d   1      21.967 -10.410  73.516  0.00  0.00    -0.044 C 
ATOM     41  H21 ITD d   1      21.150 -12.119  74.528  0.00  0.00     0.033 H 
ATOM     42  H22 ITD d   1      22.758 -12.390  73.774  0.00  0.00     0.033 H 
ATOM     43  H23 ITD d   1      22.951 -10.052  73.179  0.00  0.00     0.036 H 
ATOM     44  H24 ITD d   1      21.337 -10.629  72.641  0.00  0.00     0.036 H 
ATOM     45  H14 ITD d   1      20.419  -9.851  74.780  0.00  0.00     0.075 H 
ENDBRANCH  28  29
ENDBRANCH   2  28
BRANCH   1  46
ATOM     46  C16 ITD d   1      22.954  -7.432  70.931  0.00  0.00     0.011 C 
ATOM     47  C17 ITD d   1      21.895  -7.605  69.845  0.00  0.00    -0.046 C 
ATOM     48  C18 ITD d   1      22.552  -7.752  68.473  0.00  0.00    -0.063 C 
ATOM     49  H26 ITD d   1      21.237  -6.724  69.838  0.00  0.00     0.035 H 
ATOM     50  H27 ITD d   1      21.300  -8.505  70.060  0.00  0.00     0.035 H 
ATOM     51  C19 ITD d   1      23.512  -6.603  68.157  0.00  0.00    -0.065 C 
ATOM     52  H28 ITD d   1      21.765  -7.775  67.705  0.00  0.00     0.033 H 
ATOM     53  H29 ITD d   1      23.114  -8.697  68.450  0.00  0.00     0.033 H 
ATOM     54  C20 ITD d   1      24.516  -6.362  69.280  0.00  0.00    -0.063 C 
ATOM     55  H30 ITD d   1      22.926  -5.685  68.003  0.00  0.00     0.033 H 
ATOM     56  H31 ITD d   1      24.063  -6.845  67.236  0.00  0.00     0.033 H 
ATOM     57  C21 ITD d   1      23.828  -6.218  70.637  0.00  0.00    -0.046 C 
ATOM     58  H32 ITD d   1      25.076  -5.440  69.065  0.00  0.00     0.033 H 
ATOM     59  H33 ITD d   1      25.213  -7.212  69.323  0.00  0.00     0.033 H 
ATOM     60  H34 ITD d   1      24.593  -6.126  71.422  0.00  0.00     0.035 H 
ATOM     61  H35 ITD d   1      23.200  -5.315  70.629  0.00  0.00     0.035 H 
ATOM     62  H25 ITD d   1      23.614  -8.305  70.818  0.00  0.00     0.072 H 
ENDBRANCH   1  46
TORSDOF 8
