REMARK  8 active torsions:
REMARK  status: ('A' for Active; 'I' for Inactive)
REMARK    1  A    between atoms: C2_4  and  C1_1 
REMARK    2  A    between atoms: C2_4  and  C3_7 
REMARK    3  A    between atoms: C8_14  and  S2_6 
REMARK    4  A    between atoms: S2_6  and  C9_15 
REMARK    5  A    between atoms: C9_15  and  N3_8 
REMARK    6  A    between atoms: N3_8  and  C10_16 
REMARK    7  A    between atoms: N4_10  and  C16_22 
REMARK    8  A    between atoms: C7_13  and  C8_14 
ROOT
ATOM      1  N4  ITD d   1      19.348  29.278  74.885  0.00  0.00    -0.365 N 
ATOM      2  C9  ITD d   1      18.060  29.336  75.248  0.00  0.00     0.158 C 
ATOM      3  H   ITD d   1      20.029  29.157  75.635  0.00  0.00     0.162 HD
ENDROOT
BRANCH   2   4
ATOM      4  S2  ITD d   1      17.050  30.502  74.625  0.00  0.00    -0.087 SA
BRANCH   4   5
ATOM      5  C8  ITD d   1      15.465  29.802  74.320  0.00  0.00     0.023 C 
ATOM      6  H   ITD d   1      14.727  30.584  74.141  0.00  0.00     0.059 H 
ATOM      7  H   ITD d   1      15.123  29.232  75.183  0.00  0.00     0.059 H 
BRANCH   5   8
ATOM      8  C7  ITD d   1      15.601  28.911  73.113  0.00  0.00     0.030 A 
ATOM      9  N2  ITD d   1      15.429  29.359  71.844  0.00  0.00    -0.328 N 
ATOM     10  C4  ITD d   1      15.605  28.424  70.950  0.00  0.00     0.147 A 
ATOM     11  C6  ITD d   1      15.079  30.654  71.281  0.00  0.00     0.024 A 
ATOM     12  N1  ITD d   1      15.438  28.886  69.702  0.00  0.00    -0.360 N 
ATOM     13  S1  ITD d   1      16.040  26.894  71.584  0.00  0.00    -0.064 SA
ATOM     14  C2  ITD d   1      15.135  30.316  69.780  0.00  0.00     0.041 A 
ATOM     15  H   ITD d   1      15.510  28.336  68.846  0.00  0.00     0.162 HD
ATOM     16  C5  ITD d   1      15.961  27.546  73.193  0.00  0.00    -0.019 A 
ATOM     17  H   ITD d   1      16.157  26.994  74.112  0.00  0.00     0.098 H 
ATOM     18  H   ITD d   1      14.120  31.048  71.619  0.00  0.00     0.068 H 
ATOM     19  H   ITD d   1      15.736  31.470  71.584  0.00  0.00     0.068 H 
BRANCH  14  20
ATOM     20  C1  ITD d   1      13.792  30.602  69.119  0.00  0.00    -0.052 C 
ATOM     21  H   ITD d   1      13.569  31.666  69.198  0.00  0.00     0.030 H 
ATOM     22  H   ITD d   1      13.837  30.316  68.068  0.00  0.00     0.030 H 
ATOM     23  H   ITD d   1      13.012  30.028  69.620  0.00  0.00     0.030 H 
ENDBRANCH  14  20
BRANCH  14  24
ATOM     24  C3  ITD d   1      16.256  31.102  69.107  0.00  0.00    -0.052 C 
ATOM     25  H   ITD d   1      16.072  32.170  69.227  0.00  0.00     0.030 H 
ATOM     26  H   ITD d   1      17.209  30.842  69.569  0.00  0.00     0.030 H 
ATOM     27  H   ITD d   1      16.285  30.854  68.046  0.00  0.00     0.030 H 
ENDBRANCH  14  24
ENDBRANCH   5   8
ENDBRANCH   4   5
ENDBRANCH   2   4
BRANCH   2  28
ATOM     28  N3  ITD d   1      17.521  28.498  76.139  0.00  0.00    -0.262 NA
BRANCH  28  29
ATOM     29  C10 ITD d   1      18.175  27.411  76.849  0.00  0.00     0.035 C 
ATOM     30  C11 ITD d   1      19.100  27.912  77.954  0.00  0.00    -0.044 C 
ATOM     31  C12 ITD d   1      19.532  26.728  78.817  0.00  0.00    -0.063 C 
ATOM     32  H   ITD d   1      18.575  28.643  78.569  0.00  0.00     0.036 H 
ATOM     33  H   ITD d   1      19.978  28.384  77.512  0.00  0.00     0.036 H 
ATOM     34  C13 ITD d   1      20.231  25.658  77.978  0.00  0.00    -0.065 C 
ATOM     35  H   ITD d   1      18.645  26.288  79.273  0.00  0.00     0.033 H 
ATOM     36  H   ITD d   1      20.229  27.086  79.575  0.00  0.00     0.033 H 
ATOM     37  C14 ITD d   1      19.409  25.218  76.764  0.00  0.00    -0.063 C 
ATOM     38  H   ITD d   1      20.381  24.784  78.612  0.00  0.00     0.033 H 
ATOM     39  H   ITD d   1      21.165  26.082  77.610  0.00  0.00     0.033 H 
ATOM     40  C15 ITD d   1      18.883  26.400  75.948  0.00  0.00    -0.044 C 
ATOM     41  H   ITD d   1      18.550  24.654  77.128  0.00  0.00     0.033 H 
ATOM     42  H   ITD d   1      20.057  24.627  76.117  0.00  0.00     0.033 H 
ATOM     43  H   ITD d   1      19.725  26.893  75.461  0.00  0.00     0.036 H 
ATOM     44  H   ITD d   1      18.172  26.029  75.211  0.00  0.00     0.036 H 
ATOM     45  H   ITD d   1      17.356  26.863  77.316  0.00  0.00     0.075 H 
ENDBRANCH  28  29
ENDBRANCH   2  28
BRANCH   1  46
ATOM     46  C16 ITD d   1      19.881  29.370  73.525  0.00  0.00     0.011 C 
ATOM     47  C17 ITD d   1      18.918  28.964  72.409  0.00  0.00    -0.046 C 
ATOM     48  C18 ITD d   1      19.573  29.085  71.035  0.00  0.00    -0.063 C 
ATOM     49  H   ITD d   1      18.054  29.628  72.440  0.00  0.00     0.035 H 
ATOM     50  H   ITD d   1      18.628  27.925  72.564  0.00  0.00     0.035 H 
ATOM     51  C19 ITD d   1      20.158  30.474  70.790  0.00  0.00    -0.065 C 
ATOM     52  H   ITD d   1      18.809  28.903  70.280  0.00  0.00     0.033 H 
ATOM     53  H   ITD d   1      20.387  28.362  70.984  0.00  0.00     0.033 H 
ATOM     54  C20 ITD d   1      21.168  30.825  71.876  0.00  0.00    -0.063 C 
ATOM     55  H   ITD d   1      19.351  31.207  70.806  0.00  0.00     0.033 H 
ATOM     56  H   ITD d   1      20.660  30.482  69.823  0.00  0.00     0.033 H 
ATOM     57  C21 ITD d   1      20.526  30.728  73.257  0.00  0.00    -0.046 C 
ATOM     58  H   ITD d   1      21.516  31.846  71.719  0.00  0.00     0.033 H 
ATOM     59  H   ITD d   1      22.001  30.124  71.824  0.00  0.00     0.033 H 
ATOM     60  H   ITD d   1      21.312  30.873  73.998  0.00  0.00     0.035 H 
ATOM     61  H   ITD d   1      19.742  31.483  73.311  0.00  0.00     0.035 H 
ATOM     62  H   ITD d   1      20.659  28.607  73.493  0.00  0.00     0.072 H 
ENDBRANCH   1  46
TORSDOF 8
