REMARK  8 active torsions:
REMARK  status: ('A' for Active; 'I' for Inactive)
REMARK    1  A    between atoms: C2_4  and  C1_1 
REMARK    2  A    between atoms: C2_4  and  C3_7 
REMARK    3  A    between atoms: C8_14  and  S2_6 
REMARK    4  A    between atoms: S2_6  and  C9_15 
REMARK    5  A    between atoms: C9_15  and  N3_8 
REMARK    6  A    between atoms: N3_8  and  C10_16 
REMARK    7  A    between atoms: N4_10  and  C16_22 
REMARK    8  A    between atoms: C7_13  and  C8_14 
ROOT
ATOM      1  N4  NON d   1     -32.135   4.833  17.980  0.00  0.00    -0.365 N 
ATOM      2  C9  NON d   1     -31.773   3.609  17.558  0.00  0.00     0.158 C 
ATOM      3  H   NON d   1     -32.384   5.503  17.252  0.00  0.00     0.162 HD
ENDROOT
BRANCH   2   4
ATOM      4  S2  NON d   1     -30.272   2.983  17.927  0.00  0.00    -0.087 SA
BRANCH   4   5
ATOM      5  C8  NON d   1     -30.368   1.233  18.104  0.00  0.00     0.023 C 
ATOM      6  H   NON d   1     -29.373   0.787  18.108  0.00  0.00     0.059 H 
ATOM      7  H   NON d   1     -30.906   0.786  17.268  0.00  0.00     0.059 H 
BRANCH   5   8
ATOM      8  C7  NON d   1     -31.081   0.971  19.404  0.00  0.00     0.030 A 
ATOM      9  N2  NON d   1     -30.455   1.010  20.609  0.00  0.00    -0.328 N 
ATOM     10  C4  NON d   1     -31.268   0.778  21.601  0.00  0.00     0.147 A 
ATOM     11  C6  NON d   1     -29.079   1.241  21.020  0.00  0.00     0.024 A 
ATOM     12  N1  NON d   1     -30.641   0.818  22.781  0.00  0.00    -0.360 N 
ATOM     13  S1  NON d   1     -32.903   0.534  21.160  0.00  0.00    -0.064 SA
ATOM     14  C2  NON d   1     -29.229   1.100  22.545  0.00  0.00     0.041 A 
ATOM     15  H   NON d   1     -31.076   0.675  23.692  0.00  0.00     0.162 HD
ATOM     16  C5  NON d   1     -32.470   0.723  19.486  0.00  0.00    -0.019 A 
ATOM     17  H   NON d   1     -33.156   0.661  18.641  0.00  0.00     0.098 H 
ATOM     18  H   NON d   1     -28.355   0.559  20.573  0.00  0.00     0.068 H 
ATOM     19  H   NON d   1     -28.666   2.196  20.694  0.00  0.00     0.068 H 
BRANCH  14  20
ATOM     20  C1  NON d   1     -28.403  -0.080  23.035  0.00  0.00    -0.052 C 
ATOM     21  H   NON d   1     -27.346   0.119  22.857  0.00  0.00     0.030 H 
ATOM     22  H   NON d   1     -28.573  -0.222  24.102  0.00  0.00     0.030 H 
ATOM     23  H   NON d   1     -28.700  -0.979  22.495  0.00  0.00     0.030 H 
ENDBRANCH  14  20
BRANCH  14  24
ATOM     24  C3  NON d   1     -28.859   2.396  23.265  0.00  0.00    -0.052 C 
ATOM     25  H   NON d   1     -27.823   2.651  23.041  0.00  0.00     0.030 H 
ATOM     26  H   NON d   1     -29.514   3.198  22.926  0.00  0.00     0.030 H 
ATOM     27  H   NON d   1     -28.977   2.259  24.340  0.00  0.00     0.030 H 
ENDBRANCH  14  24
ENDBRANCH   5   8
ENDBRANCH   4   5
ENDBRANCH   2   4
BRANCH   2  28
ATOM     28  N3  NON d   1     -32.532   2.822  16.783  0.00  0.00    -0.262 NA
BRANCH  28  29
ATOM     29  C10 NON d   1     -33.854   3.008  16.205  0.00  0.00     0.035 C 
ATOM     30  C11 NON d   1     -33.818   3.750  14.876  0.00  0.00    -0.044 C 
ATOM     31  C12 NON d   1     -35.148   3.572  14.149  0.00  0.00    -0.063 C 
ATOM     32  H   NON d   1     -33.014   3.348  14.260  0.00  0.00     0.036 H 
ATOM     33  H   NON d   1     -33.647   4.811  15.060  0.00  0.00     0.036 H 
ATOM     34  C13 NON d   1     -36.310   4.064  15.009  0.00  0.00    -0.065 C 
ATOM     35  H   NON d   1     -35.293   2.513  13.938  0.00  0.00     0.033 H 
ATOM     36  H   NON d   1     -35.124   4.153  13.227  0.00  0.00     0.033 H 
ATOM     37  C14 NON d   1     -36.330   3.380  16.376  0.00  0.00    -0.063 C 
ATOM     38  H   NON d   1     -37.242   3.830  14.494  0.00  0.00     0.033 H 
ATOM     39  H   NON d   1     -36.193   5.137  15.163  0.00  0.00     0.033 H 
ATOM     40  C15 NON d   1     -34.986   3.489  17.106  0.00  0.00    -0.044 C 
ATOM     41  H   NON d   1     -36.544   2.323  16.220  0.00  0.00     0.033 H 
ATOM     42  H   NON d   1     -37.086   3.872  16.988  0.00  0.00     0.033 H 
ATOM     43  H   NON d   1     -34.810   4.531  17.373  0.00  0.00     0.036 H 
ATOM     44  H   NON d   1     -35.016   2.869  18.002  0.00  0.00     0.036 H 
ATOM     45  H   NON d   1     -34.145   1.973  16.028  0.00  0.00     0.075 H 
ENDBRANCH  28  29
ENDBRANCH   2  28
BRANCH   1  46
ATOM     46  C16 NON d   1     -32.216   5.324  19.363  0.00  0.00     0.011 C 
ATOM     47  C17 NON d   1     -31.260   4.683  20.371  0.00  0.00    -0.046 C 
ATOM     48  C18 NON d   1     -31.481   5.214  21.790  0.00  0.00    -0.063 C 
ATOM     49  H   NON d   1     -30.239   4.923  20.073  0.00  0.00     0.035 H 
ATOM     50  H   NON d   1     -31.442   3.608  20.377  0.00  0.00     0.035 H 
ATOM     51  C19 NON d   1     -31.377   6.738  21.877  0.00  0.00    -0.065 C 
ATOM     52  H   NON d   1     -30.706   4.790  22.429  0.00  0.00     0.033 H 
ATOM     53  H   NON d   1     -32.487   4.930  22.099  0.00  0.00     0.033 H 
ATOM     54  C20 NON d   1     -32.245   7.409  20.812  0.00  0.00    -0.063 C 
ATOM     55  H   NON d   1     -30.339   7.027  21.715  0.00  0.00     0.033 H 
ATOM     56  H   NON d   1     -31.722   7.056  22.861  0.00  0.00     0.033 H 
ATOM     57  C21 NON d   1     -32.010   6.838  19.411  0.00  0.00    -0.046 C 
ATOM     58  H   NON d   1     -31.987   8.468  20.789  0.00  0.00     0.033 H 
ATOM     59  H   NON d   1     -33.289   7.235  21.073  0.00  0.00     0.033 H 
ATOM     60  H   NON d   1     -32.727   7.300  18.732  0.00  0.00     0.035 H 
ATOM     61  H   NON d   1     -30.979   7.049  19.127  0.00  0.00     0.035 H 
ATOM     62  H   NON d   1     -33.220   5.032  19.672  0.00  0.00     0.072 H 
ENDBRANCH   1  46
TORSDOF 8
