REMARK  8 active torsions:
REMARK  status: ('A' for Active; 'I' for Inactive)
REMARK    1  A    between atoms: C2_4  and  C1_1 
REMARK    2  A    between atoms: C2_4  and  C3_7 
REMARK    3  A    between atoms: C8_14  and  S2_6 
REMARK    4  A    between atoms: S2_6  and  C9_15 
REMARK    5  A    between atoms: C9_15  and  N3_8 
REMARK    6  A    between atoms: N3_8  and  C10_16 
REMARK    7  A    between atoms: N4_10  and  C16_22 
REMARK    8  A    between atoms: C7_13  and  C8_14 
ROOT
ATOM      1  N4  ITD d   1      20.659   6.519  29.921  0.00  0.00    -0.365 N 
ATOM      2  C9  ITD d   1      19.662   5.871  30.576  0.00  0.00     0.158 C 
ATOM      3  H   ITD d   1      21.506   6.622  30.479  0.00  0.00     0.162 HD
ENDROOT
BRANCH   2   4
ATOM      4  S2  ITD d   1      18.064   5.878  30.162  0.00  0.00    -0.087 SA
BRANCH   4   5
ATOM      5  C8  ITD d   1      17.526   4.196  30.094  0.00  0.00     0.023 C 
ATOM      6  H   ITD d   1      16.442   4.101  30.041  0.00  0.00     0.059 H 
ATOM      7  H   ITD d   1      17.776   3.635  30.994  0.00  0.00     0.059 H 
BRANCH   5   8
ATOM      8  C7  ITD d   1      18.219   3.670  28.867  0.00  0.00     0.030 A 
ATOM      9  N2  ITD d   1      17.674   3.862  27.649  0.00  0.00    -0.328 N 
ATOM     10  C4  ITD d   1      18.395   3.354  26.693  0.00  0.00     0.147 A 
ATOM     11  C6  ITD d   1      16.447   4.519  27.227  0.00  0.00     0.024 C 
ATOM     12  N1  ITD d   1      17.820   3.574  25.506  0.00  0.00    -0.360 N 
ATOM     13  S1  ITD d   1      19.844   2.575  27.206  0.00  0.00    -0.064 SA
ATOM     14  C2  ITD d   1      16.639   4.411  25.718  0.00  0.00     0.041 C 
ATOM     15  H   ITD d   1      18.148   3.219  24.608  0.00  0.00     0.162 HD
ATOM     16  C5  ITD d   1      19.450   2.964  28.852  0.00  0.00    -0.019 A 
ATOM     17  H   ITD d   1      20.048   2.709  29.727  0.00  0.00     0.098 H 
ATOM     18  H   ITD d   1      15.528   4.076  27.610  0.00  0.00     0.068 H 
ATOM     19  H   ITD d   1      16.309   5.532  27.606  0.00  0.00     0.068 H 
BRANCH  14  20
ATOM     20  C1  ITD d   1      15.447   3.740  25.057  0.00  0.00    -0.052 C 
ATOM     21  H   ITD d   1      14.547   4.322  25.257  0.00  0.00     0.030 H 
ATOM     22  H   ITD d   1      15.613   3.685  23.981  0.00  0.00     0.030 H 
ATOM     23  H   ITD d   1      15.328   2.734  25.460  0.00  0.00     0.030 H 
ENDBRANCH  14  20
BRANCH  14  24
ATOM     24  C3  ITD d   1      16.876   5.824  25.211  0.00  0.00    -0.052 C 
ATOM     25  H   ITD d   1      16.012   6.444  25.451  0.00  0.00     0.030 H 
ATOM     26  H   ITD d   1      17.765   6.236  25.689  0.00  0.00     0.030 H 
ATOM     27  H   ITD d   1      17.020   5.802  24.131  0.00  0.00     0.030 H 
ENDBRANCH  14  24
ENDBRANCH   5   8
ENDBRANCH   4   5
ENDBRANCH   2   4
BRANCH   2  28
ATOM     28  N3  ITD d   1      19.839   5.122  31.662  0.00  0.00    -0.262 NA
BRANCH  28  29
ATOM     29  C10 ITD d   1      21.020   4.795  32.393  0.00  0.00     0.035 C 
ATOM     30  C11 ITD d   1      21.678   6.025  33.010  0.00  0.00    -0.044 C 
ATOM     31  C12 ITD d   1      22.882   5.605  33.866  0.00  0.00    -0.063 C 
ATOM     32  H   ITD d   1      20.953   6.541  33.640  0.00  0.00     0.036 H 
ATOM     33  H   ITD d   1      22.018   6.686  32.213  0.00  0.00     0.036 H 
ATOM     34  C13 ITD d   1      23.839   4.666  33.105  0.00  0.00    -0.065 C 
ATOM     35  H   ITD d   1      22.507   5.072  34.739  0.00  0.00     0.033 H 
ATOM     36  H   ITD d   1      23.435   6.504  34.138  0.00  0.00     0.033 H 
ATOM     37  C14 ITD d   1      23.134   3.456  32.484  0.00  0.00    -0.063 C 
ATOM     38  H   ITD d   1      24.570   4.290  33.821  0.00  0.00     0.033 H 
ATOM     39  H   ITD d   1      24.286   5.239  32.293  0.00  0.00     0.033 H 
ATOM     40  C15 ITD d   1      21.982   3.911  31.588  0.00  0.00    -0.044 C 
ATOM     41  H   ITD d   1      22.736   2.829  33.282  0.00  0.00     0.033 H 
ATOM     42  H   ITD d   1      23.852   2.897  31.883  0.00  0.00     0.033 H 
ATOM     43  H   ITD d   1      22.380   4.481  30.748  0.00  0.00     0.036 H 
ATOM     44  H   ITD d   1      21.446   3.038  31.217  0.00  0.00     0.036 H 
ATOM     45  H   ITD d   1      20.712   4.180  33.239  0.00  0.00     0.075 H 
ENDBRANCH  28  29
ENDBRANCH   2  28
BRANCH   1  46
ATOM     46  C16 ITD d   1      20.776   7.108  28.566  0.00  0.00     0.011 C 
ATOM     47  C17 ITD d   1      19.982   6.479  27.402  0.00  0.00    -0.046 C 
ATOM     48  C18 ITD d   1      20.020   7.267  26.077  0.00  0.00    -0.063 C 
ATOM     49  H   ITD d   1      18.939   6.447  27.717  0.00  0.00     0.035 H 
ATOM     50  H   ITD d   1      20.437   5.509  27.202  0.00  0.00     0.035 H 
ATOM     51  C19 ITD d   1      20.008   8.796  26.205  0.00  0.00    -0.065 C 
ATOM     52  H   ITD d   1      19.114   6.998  25.534  0.00  0.00     0.033 H 
ATOM     53  H   ITD d   1      20.961   7.007  25.593  0.00  0.00     0.033 H 
ATOM     54  C20 ITD d   1      21.045   9.287  27.212  0.00  0.00    -0.063 C 
ATOM     55  H   ITD d   1      19.021   9.104  26.551  0.00  0.00     0.033 H 
ATOM     56  H   ITD d   1      20.246   9.224  25.231  0.00  0.00     0.033 H 
ATOM     57  C21 ITD d   1      20.800   8.647  28.581  0.00  0.00    -0.046 C 
ATOM     58  H   ITD d   1      20.965  10.370  27.306  0.00  0.00     0.033 H 
ATOM     59  H   ITD d   1      22.040   9.010  26.862  0.00  0.00     0.033 H 
ATOM     60  H   ITD d   1      21.624   8.948  29.228  0.00  0.00     0.035 H 
ATOM     61  H   ITD d   1      19.819   8.980  28.919  0.00  0.00     0.035 H 
ATOM     62  H   ITD d   1      21.771   6.773  28.274  0.00  0.00     0.072 H 
ENDBRANCH   1  46
TORSDOF 8
