REMARK  16 active torsions:
REMARK  status: ('A' for Active; 'I' for Inactive)
REMARK    1  A    between atoms: C28_1  and  C9_10 
REMARK       I    between atoms: N19_12  and  C28_1 
REMARK    2  A    between atoms: C33_3  and  C38_2 
REMARK    3  A    between atoms: C31_9  and  C32_8 
REMARK    4  A    between atoms: C9_10  and  C31_9 
REMARK    5  A    between atoms: C18_13  and  N19_12 
REMARK    6  A    between atoms: C16_14  and  C18_13 
REMARK    7  A    between atoms: C18_13  and  C20_16 
REMARK       I    between atoms: N14_19  and  C16_14 
REMARK    8  A    between atoms: C20_16  and  O21_17 
REMARK    9  A    between atoms: C20_16  and  C39_18 
REMARK   10  A    between atoms: C12_20  and  N14_19 
REMARK   11  A    between atoms: C10_21  and  C12_20 
REMARK   12  A    between atoms: C12_20  and  C13_23 
REMARK       I    between atoms: N30_35  and  C10_21 
REMARK   13  A    between atoms: C13_23  and  C15_24 
REMARK   14  A    between atoms: C15_24  and  C22_25 
REMARK   15  A    between atoms: C8_34  and  N30_35 
REMARK   16  A    between atoms: C8_34  and  C1_36 
ROOT
ATOM      1  C16 OEU d   1      10.980-136.622  18.278  0.00  0.00     0.243 C 
ATOM      2  O17 OEU d   1      11.623-135.580  18.143  0.00  0.00    -0.271 OA
ATOM      3  N14 OEU d   1      10.981-137.602  17.387  0.00  0.00    -0.346 N 
ATOM      4  H   OEU d   1      10.445-138.447  17.585  0.00  0.00     0.163 HD
ENDROOT
BRANCH   3   5
ATOM      5  C12 OEU d   1      11.725-137.516  16.125  0.00  0.00     0.089 C 
ATOM      6  H   OEU d   1      12.470-136.724  16.201  0.00  0.00     0.087 H 
BRANCH   5   7
ATOM      7  C10 OEU d   1      10.737-137.209  14.986  0.00  0.00     0.240 C 
ATOM      8  O11 OEU d   1       9.614-137.709  14.960  0.00  0.00    -0.271 OA
ATOM      9  N30 OEU d   1      11.183-136.365  14.065  0.00  0.00    -0.355 N 
ATOM     10  H   OEU d   1      12.118-135.968  14.161  0.00  0.00     0.162 HD
BRANCH   9  11
ATOM     11  C8  OEU d   1      10.361-135.993  12.915  0.00  0.00     0.021 C 
ATOM     12  H   OEU d   1       9.565-136.730  12.809  0.00  0.00     0.071 H 
ATOM     13  H   OEU d   1      11.000-135.960  12.033  0.00  0.00     0.071 H 
BRANCH  11  14
ATOM     14  C1  OEU d   1       9.721-134.616  13.099  0.00  0.00    -0.019 A 
ATOM     15  C6  OEU d   1      10.360-133.403  12.824  0.00  0.00     0.042 A 
ATOM     16  C5  OEU d   1       9.691-132.193  13.007  0.00  0.00    -0.061 A 
ATOM     17 CL7  OEU d   1      12.000-133.374  12.258  0.00  0.00    -0.084 Cl
ATOM     18  C4  OEU d   1       8.378-132.188  13.466  0.00  0.00    -0.081 A 
ATOM     19  H   OEU d   1      10.197-131.252  12.790  0.00  0.00     0.086 H 
ATOM     20  C3  OEU d   1       7.742-133.392  13.745  0.00  0.00    -0.082 A 
ATOM     21  H   OEU d   1       7.850-131.244  13.606  0.00  0.00     0.083 H 
ATOM     22  C2  OEU d   1       8.409-134.598  13.554  0.00  0.00    -0.074 A 
ATOM     23  H   OEU d   1       6.717-133.391  14.115  0.00  0.00     0.083 H 
ATOM     24  H   OEU d   1       7.897-135.537  13.763  0.00  0.00     0.084 H 
ENDBRANCH  11  14
ENDBRANCH   9  11
ENDBRANCH   5   7
BRANCH   5  25
ATOM     25  C13 OEU d   1      12.442-138.826  15.837  0.00  0.00    -0.034 C 
ATOM     26  H   OEU d   1      13.061-138.699  14.949  0.00  0.00     0.037 H 
ATOM     27  H   OEU d   1      11.697-139.607  15.684  0.00  0.00     0.037 H 
BRANCH  25  28
ATOM     28  C15 OEU d   1      13.335-139.224  17.002  0.00  0.00    -0.039 C 
ATOM     29  H   OEU d   1      13.717-140.226  16.807  0.00  0.00     0.040 H 
ATOM     30  H   OEU d   1      12.740-139.177  17.914  0.00  0.00     0.040 H 
BRANCH  28  31
ATOM     31  C22 OEU d   1      14.530-138.285  17.167  0.00  0.00    -0.058 A 
ATOM     32  C23 OEU d   1      15.490-138.175  16.152  0.00  0.00    -0.077 A 
ATOM     33  C25 OEU d   1      16.589-137.324  16.318  0.00  0.00    -0.082 A 
ATOM     34  H   OEU d   1      15.381-138.752  15.234  0.00  0.00     0.084 H 
ATOM     35  C26 OEU d   1      16.716-136.592  17.499  0.00  0.00    -0.083 A 
ATOM     36  H   OEU d   1      17.339-137.234  15.532  0.00  0.00     0.083 H 
ATOM     37  C27 OEU d   1      15.757-136.708  18.508  0.00  0.00    -0.082 A 
ATOM     38  H   OEU d   1      17.568-135.926  17.635  0.00  0.00     0.083 H 
ATOM     39  C24 OEU d   1      14.663-137.556  18.350  0.00  0.00    -0.077 A 
ATOM     40  H   OEU d   1      15.866-136.131  19.426  0.00  0.00     0.083 H 
ATOM     41  H   OEU d   1      13.919-137.649  19.141  0.00  0.00     0.084 H 
ENDBRANCH  28  31
ENDBRANCH  25  28
ENDBRANCH   5  25
ENDBRANCH   3   5
BRANCH   1  42
ATOM     42  C18 OEU d   1      10.065-136.882  19.492  0.00  0.00     0.113 C 
ATOM     43  H   OEU d   1       9.983-137.967  19.558  0.00  0.00     0.091 H 
BRANCH  42  44
ATOM     44  N19 OEU d   1      10.620-136.322  20.723  0.00  0.00    -0.345 N 
ATOM     45  C28 OEU d   1      11.642-136.885  21.351  0.00  0.00     0.218 C 
ATOM     46  O29 OEU d   1      12.227-137.897  20.961  0.00  0.00    -0.274 OA
ATOM     47  H   OEU d   1      10.208-135.473  21.110  0.00  0.00     0.163 HD
BRANCH  45  48
ATOM     48  C9  OEU d   1      12.065-136.163  22.624  0.00  0.00     0.013 C 
ATOM     49  H   OEU d   1      11.539-136.601  23.472  0.00  0.00     0.047 H 
ATOM     50  H   OEU d   1      11.820-135.105  22.530  0.00  0.00     0.047 H 
BRANCH  48  51
ATOM     51  C31 OEU d   1      13.566-136.308  22.843  0.00  0.00    -0.033 C 
ATOM     52  H   OEU d   1      13.813-137.369  22.812  0.00  0.00     0.040 H 
ATOM     53  H   OEU d   1      14.079-135.744  22.064  0.00  0.00     0.040 H 
BRANCH  51  54
ATOM     54  C32 OEU d   1      14.008-135.754  24.204  0.00  0.00    -0.052 A 
ATOM     55  C33 OEU d   1      15.085-134.866  24.360  0.00  0.00    -0.056 A 
ATOM     56  C34 OEU d   1      15.428-134.414  25.633  0.00  0.00    -0.077 A 
ATOM     57  C35 OEU d   1      14.707-134.844  26.749  0.00  0.00    -0.082 A 
ATOM     58  H   OEU d   1      16.262-133.723  25.758  0.00  0.00     0.084 H 
ATOM     59  C37 OEU d   1      13.641-135.728  26.605  0.00  0.00    -0.082 A 
ATOM     60  H   OEU d   1      14.981-134.485  27.741  0.00  0.00     0.083 H 
ATOM     61  C36 OEU d   1      13.295-136.182  25.335  0.00  0.00    -0.076 A 
ATOM     62  H   OEU d   1      13.082-136.062  27.479  0.00  0.00     0.083 H 
ATOM     63  H   OEU d   1      12.463-136.876  25.218  0.00  0.00     0.084 H 
BRANCH  55  64
ATOM     64  C38 OEU d   1      15.895-134.379  23.140  0.00  0.00    -0.051 C 
ATOM     65  H   OEU d   1      16.342-135.236  22.637  0.00  0.00     0.033 H 
ATOM     66  H   OEU d   1      15.232-133.857  22.450  0.00  0.00     0.033 H 
ATOM     67  H   OEU d   1      16.681-133.701  23.474  0.00  0.00     0.033 H 
ENDBRANCH  55  64
ENDBRANCH  51  54
ENDBRANCH  48  51
ENDBRANCH  45  48
ENDBRANCH  42  44
BRANCH  42  68
ATOM     68  C20 OEU d   1       8.693-136.237  19.318  0.00  0.00     0.060 C 
ATOM     69  H   OEU d   1       8.821-135.155  19.277  0.00  0.00     0.086 H 
BRANCH  68  70
ATOM     70  O21 OEU d   1       7.876-136.610  20.432  0.00  0.00    -0.393 OA
ATOM     71  H   OEU d   1       7.008-136.212  20.338  0.00  0.00     0.210 HD
ENDBRANCH  68  70
BRANCH  68  72
ATOM     72  C39 OEU d   1       8.021-136.645  18.012  0.00  0.00    -0.050 C 
ATOM     73  H   OEU d   1       8.646-136.340  17.173  0.00  0.00     0.031 H 
ATOM     74  H   OEU d   1       7.890-137.727  17.995  0.00  0.00     0.031 H 
ATOM     75  H   OEU d   1       7.048-136.159  17.938  0.00  0.00     0.031 H 
ENDBRANCH  68  72
ENDBRANCH  42  68
ENDBRANCH   1  42
TORSDOF 16
