REMARK  17 active torsions:
REMARK  status: ('A' for Active; 'I' for Inactive)
REMARK    1  A    between atoms: C27_2  and  C8_1 
REMARK       I    between atoms: N18_17  and  C27_2 
REMARK    2  A    between atoms: C32_8  and  O35_9 
REMARK    3  A    between atoms: O35_9  and  C36_10 
REMARK    4  A    between atoms: C36_10  and  C37_11 
REMARK    5  A    between atoms: C17_18  and  N18_17 
REMARK    6  A    between atoms: C15_19  and  C17_18 
REMARK    7  A    between atoms: C17_18  and  C19_21 
REMARK       I    between atoms: N13_24  and  C15_19 
REMARK    8  A    between atoms: C19_21  and  O20_22 
REMARK    9  A    between atoms: C19_21  and  C43_23 
REMARK   10  A    between atoms: C11_25  and  N13_24 
REMARK   11  A    between atoms: C9_26  and  C11_25 
REMARK   12  A    between atoms: C11_25  and  C12_28 
REMARK       I    between atoms: N29_43  and  C9_26 
REMARK   13  A    between atoms: C12_28  and  C14_29 
REMARK   14  A    between atoms: C14_29  and  C21_30 
REMARK   15  A    between atoms: C6_38  and  C7_39 
REMARK   16  A    between atoms: C2_42  and  C1_41 
REMARK   17  A    between atoms: C2_42  and  N29_43 
ROOT
ATOM      1  C15 3OE d   1      10.773-136.924  18.376  0.00  0.00     0.243 C 
ATOM      2  O16 3OE d   1      11.470-135.911  18.299  0.00  0.00    -0.271 OA
ATOM      3  N13 3OE d   1      10.794-137.921  17.485  0.00  0.00    -0.346 N 
ATOM      4  H   3OE d   1      10.208-138.737  17.660  0.00  0.00     0.163 HD
ENDROOT
BRANCH   1   5
ATOM      5  C17 3OE d   1       9.805-137.148  19.558  0.00  0.00     0.114 C 
ATOM      6  H   3OE d   1       9.492-138.190  19.494  0.00  0.00     0.091 H 
BRANCH   5   7
ATOM      7  N18 3OE d   1      10.480-136.900  20.852  0.00  0.00    -0.341 N 
ATOM      8  C27 3OE d   1      11.263-137.801  21.462  0.00  0.00     0.252 C 
ATOM      9  O28 3OE d   1      11.544-138.912  21.004  0.00  0.00    -0.268 OA
ATOM     10  H   3OE d   1      10.342-135.996  21.303  0.00  0.00     0.163 HD
BRANCH   8  11
ATOM     11  C8  3OE d   1      11.870-137.360  22.803  0.00  0.00     0.032 A 
ATOM     12  C34 3OE d   1      11.950-136.004  23.127  0.00  0.00    -0.065 A 
ATOM     13  C33 3OE d   1      12.512-135.620  24.343  0.00  0.00    -0.050 A 
ATOM     14  H   3OE d   1      11.575-135.251  22.433  0.00  0.00     0.085 H 
ATOM     15  C32 3OE d   1      12.994-136.577  25.242  0.00  0.00     0.069 A 
ATOM     16  H   3OE d   1      12.577-134.562  24.596  0.00  0.00     0.087 H 
ATOM     17  C31 3OE d   1      12.924-137.935  24.916  0.00  0.00    -0.050 A 
ATOM     18  C30 3OE d   1      12.359-138.325  23.699  0.00  0.00    -0.065 A 
ATOM     19  H   3OE d   1      13.308-138.685  25.607  0.00  0.00     0.087 H 
ATOM     20  H   3OE d   1      12.297-139.383  23.444  0.00  0.00     0.085 H 
BRANCH  15  21
ATOM     21  O35 3OE d   1      13.544-136.130  26.409  0.00  0.00    -0.347 OA
BRANCH  21  22
ATOM     22  C36 3OE d   1      13.375-136.930  27.589  0.00  0.00     0.050 C 
ATOM     23  H   3OE d   1      13.413-137.967  27.256  0.00  0.00     0.082 H 
ATOM     24  H   3OE d   1      12.444-136.597  28.047  0.00  0.00     0.082 H 
BRANCH  22  25
ATOM     25  C37 3OE d   1      14.350-136.807  28.571  0.00  0.00    -0.034 A 
ATOM     26  C38 3OE d   1      14.302-135.734  29.461  0.00  0.00    -0.075 A 
ATOM     27  C39 3OE d   1      15.283-135.602  30.443  0.00  0.00    -0.082 A 
ATOM     28  H   3OE d   1      13.499-135.000  29.389  0.00  0.00     0.084 H 
ATOM     29  C40 3OE d   1      16.317-136.536  30.527  0.00  0.00    -0.083 A 
ATOM     30  H   3OE d   1      15.242-134.769  31.145  0.00  0.00     0.083 H 
ATOM     31  C41 3OE d   1      16.372-137.608  29.635  0.00  0.00    -0.082 A 
ATOM     32  H   3OE d   1      17.085-136.428  31.293  0.00  0.00     0.083 H 
ATOM     33  C42 3OE d   1      15.387-137.741  28.653  0.00  0.00    -0.075 A 
ATOM     34  H   3OE d   1      17.179-138.338  29.704  0.00  0.00     0.083 H 
ATOM     35  H   3OE d   1      15.427-138.573  27.951  0.00  0.00     0.084 H 
ENDBRANCH  22  25
ENDBRANCH  21  22
ENDBRANCH  15  21
ENDBRANCH   8  11
ENDBRANCH   5   7
BRANCH   5  36
ATOM     36  C19 3OE d   1       8.546-136.262  19.474  0.00  0.00     0.060 C 
ATOM     37  H   3OE d   1       8.869-135.227  19.591  0.00  0.00     0.086 H 
BRANCH  36  38
ATOM     38  O20 3OE d   1       7.647-136.654  20.511  0.00  0.00    -0.393 OA
ATOM     39  H   3OE d   1       6.857-136.110  20.471  0.00  0.00     0.210 HD
ENDBRANCH  36  38
BRANCH  36  40
ATOM     40  C43 3OE d   1       7.830-136.340  18.122  0.00  0.00    -0.050 C 
ATOM     41  H   3OE d   1       8.509-136.017  17.333  0.00  0.00     0.031 H 
ATOM     42  H   3OE d   1       7.518-137.368  17.936  0.00  0.00     0.031 H 
ATOM     43  H   3OE d   1       6.955-135.691  18.138  0.00  0.00     0.031 H 
ENDBRANCH  36  40
ENDBRANCH   5  36
ENDBRANCH   1   5
BRANCH   3  44
ATOM     44  C11 3OE d   1      11.620-137.904  16.261  0.00  0.00     0.089 C 
ATOM     45  H   3OE d   1      12.362-137.109  16.343  0.00  0.00     0.087 H 
BRANCH  44  46
ATOM     46  C9  3OE d   1      10.691-137.675  15.059  0.00  0.00     0.240 C 
ATOM     47  O10 3OE d   1       9.681-138.363  14.915  0.00  0.00    -0.271 OA
ATOM     48  N29 3OE d   1      11.046-136.693  14.232  0.00  0.00    -0.355 N 
ATOM     49  H   3OE d   1      11.897-136.167  14.429  0.00  0.00     0.162 HD
BRANCH  48  50
ATOM     50  C2  3OE d   1      10.254-136.341  13.045  0.00  0.00     0.025 C 
ATOM     51  H   3OE d   1      10.902-136.364  12.169  0.00  0.00     0.072 H 
ATOM     52  H   3OE d   1       9.439-137.057  12.939  0.00  0.00     0.072 H 
BRANCH  50  53
ATOM     53  C1  3OE d   1       9.659-134.926  13.189  0.00  0.00     0.006 A 
ATOM     54  C6  3OE d   1      10.195-133.677  12.861  0.00  0.00    -0.047 A 
ATOM     55  C5  3OE d   1       9.404-132.612  13.109  0.00  0.00    -0.070 A 
ATOM     56  C4  3OE d   1       8.211-132.911  13.640  0.00  0.00    -0.044 A 
ATOM     57  H   3OE d   1       9.712-131.589  12.894  0.00  0.00     0.085 H 
ATOM     58  S3  3OE d   1       8.130-134.603  13.809  0.00  0.00    -0.104 SA
ATOM     59  H   3OE d   1       7.433-132.199  13.914  0.00  0.00     0.095 H 
BRANCH  54  60
ATOM     60  C7  3OE d   1      11.590-133.530  12.274  0.00  0.00    -0.050 C 
ATOM     61  H   3OE d   1      12.322-133.935  12.973  0.00  0.00     0.033 H 
ATOM     62  H   3OE d   1      11.646-134.076  11.332  0.00  0.00     0.033 H 
ATOM     63  H   3OE d   1      11.799-132.475  12.097  0.00  0.00     0.033 H 
ENDBRANCH  54  60
ENDBRANCH  50  53
ENDBRANCH  48  50
ENDBRANCH  44  46
BRANCH  44  64
ATOM     64  C12 3OE d   1      12.361-139.235  16.074  0.00  0.00    -0.034 C 
ATOM     65  H   3OE d   1      13.004-139.132  15.200  0.00  0.00     0.037 H 
ATOM     66  H   3OE d   1      11.609-140.017  15.970  0.00  0.00     0.037 H 
BRANCH  64  67
ATOM     67  C14 3OE d   1      13.253-139.608  17.261  0.00  0.00    -0.039 C 
ATOM     68  H   3OE d   1      13.675-140.595  17.068  0.00  0.00     0.040 H 
ATOM     69  H   3OE d   1      12.640-139.585  18.162  0.00  0.00     0.040 H 
BRANCH  67  70
ATOM     70  C21 3OE d   1      14.413-138.628  17.453  0.00  0.00    -0.058 A 
ATOM     71  C22 3OE d   1      15.392-138.486  16.464  0.00  0.00    -0.077 A 
ATOM     72  C24 3OE d   1      16.449-137.588  16.648  0.00  0.00    -0.082 A 
ATOM     73  H   3OE d   1      15.331-139.076  15.549  0.00  0.00     0.084 H 
ATOM     74  C25 3OE d   1      16.521-136.837  17.823  0.00  0.00    -0.083 A 
ATOM     75  H   3OE d   1      17.212-137.475  15.878  0.00  0.00     0.083 H 
ATOM     76  C26 3OE d   1      15.543-136.982  18.813  0.00  0.00    -0.082 A 
ATOM     77  H   3OE d   1      17.342-136.135  17.970  0.00  0.00     0.083 H 
ATOM     78  C23 3OE d   1      14.489-137.879  18.631  0.00  0.00    -0.077 A 
ATOM     79  H   3OE d   1      15.604-136.393  19.728  0.00  0.00     0.083 H 
ATOM     80  H   3OE d   1      13.729-137.995  19.404  0.00  0.00     0.084 H 
ENDBRANCH  67  70
ENDBRANCH  64  67
ENDBRANCH  44  64
ENDBRANCH   3  44
TORSDOF 17
