REMARK  18 active torsions:
REMARK  status: ('A' for Active; 'I' for Inactive)
REMARK    1  A    between atoms: C1_1  and  O2_3 
REMARK       I    between atoms: N1_11  and  C1_1 
REMARK    2  A    between atoms: O2_3  and  C2_4 
REMARK    3  A    between atoms: C2_4  and  C3_5 
REMARK    4  A    between atoms: C9_12  and  N1_11 
REMARK    5  A    between atoms: C10_13  and  C9_12 
REMARK    6  A    between atoms: C9_12  and  C11_15 
REMARK       I    between atoms: N2_22  and  C10_13 
REMARK    7  A    between atoms: C11_15  and  C12_16 
REMARK    8  A    between atoms: C19_27  and  N2_22 
REMARK    9  A    between atoms: C24_31  and  O5_24 
REMARK   10  A    between atoms: O5_24  and  C26_33 
REMARK   11  A    between atoms: C21_29  and  O6_25 
REMARK   12  A    between atoms: C18_26  and  C19_27 
REMARK   13  A    between atoms: C23_30  and  C18_26 
REMARK   14  A    between atoms: C19_27  and  C20_28 
REMARK   15  A    between atoms: C20_28  and  C21_29 
REMARK   16  A    between atoms: C26_33  and  C25_32 
REMARK   17  A    between atoms: C26_33  and  C32_38 
REMARK   18  A    between atoms: C26_33  and  C33_39 
ROOT
ATOM      1  C10 I0Y d   1      26.616   7.817   2.450  0.00  0.00     0.241 C 
ATOM      2  O3  I0Y d   1      26.574   7.656   1.241  0.00  0.00    -0.271 OA
ATOM      3  N2  I0Y d   1      25.516   7.541   3.330  0.00  0.00    -0.347 N 
ATOM      4  H   I0Y d   1      25.470   8.034   4.221  0.00  0.00     0.163 HD
ENDROOT
BRANCH   3   5
ATOM      5  C19 I0Y d   1      24.473   6.598   3.011  0.00  0.00     0.076 C 
ATOM      6  H   I0Y d   1      24.621   6.033   2.091  0.00  0.00     0.085 H 
BRANCH   5   7
ATOM      7  C18 I0Y d   1      24.425   5.550   4.136  0.00  0.00    -0.015 C 
ATOM      8  H   I0Y d   1      24.726   6.030   5.067  0.00  0.00     0.043 H 
ATOM      9  H   I0Y d   1      25.094   4.731   3.873  0.00  0.00     0.043 H 
BRANCH   7  10
ATOM     10  C23 I0Y d   1      23.057   5.001   4.312  0.00  0.00    -0.056 A 
ATOM     11  C28 I0Y d   1      22.354   4.916   5.522  0.00  0.00    -0.074 A 
ATOM     12  C30 I0Y d   1      21.005   4.517   5.479  0.00  0.00    -0.050 A 
ATOM     13  H   I0Y d   1      22.838   5.152   6.469  0.00  0.00     0.084 H 
ATOM     14  C24 I0Y d   1      20.414   4.232   4.228  0.00  0.00     0.069 A 
ATOM     15  H   I0Y d   1      20.425   4.429   6.397  0.00  0.00     0.087 H 
ATOM     16  C29 I0Y d   1      21.151   4.345   3.063  0.00  0.00    -0.050 A 
ATOM     17  C27 I0Y d   1      22.476   4.737   3.099  0.00  0.00    -0.074 A 
ATOM     18  H   I0Y d   1      20.681   4.122   2.105  0.00  0.00     0.087 H 
ATOM     19  H   I0Y d   1      23.050   4.835   2.177  0.00  0.00     0.084 H 
BRANCH  14  20
ATOM     20  O5  I0Y d   1      19.054   3.846   4.043  0.00  0.00    -0.341 OA
BRANCH  20  21
ATOM     21  C26 I0Y d   1      18.140   4.696   3.332  0.00  0.00     0.057 C 
BRANCH  21  22
ATOM     22  C25 I0Y d   1      17.967   5.973   4.112  0.00  0.00    -0.048 C 
ATOM     23  H   I0Y d   1      17.569   5.743   5.100  0.00  0.00     0.031 H 
ATOM     24  H   I0Y d   1      18.933   6.468   4.215  0.00  0.00     0.031 H 
ATOM     25  H   I0Y d   1      17.275   6.629   3.584  0.00  0.00     0.031 H 
ENDBRANCH  21  22
BRANCH  21  26
ATOM     26  C32 I0Y d   1      18.610   5.049   1.945  0.00  0.00    -0.048 C 
ATOM     27  H   I0Y d   1      19.564   5.572   2.008  0.00  0.00     0.031 H 
ATOM     28  H   I0Y d   1      18.733   4.137   1.361  0.00  0.00     0.031 H 
ATOM     29  H   I0Y d   1      17.872   5.692   1.466  0.00  0.00     0.031 H 
ENDBRANCH  21  26
BRANCH  21  30
ATOM     30  C33 I0Y d   1      16.789   4.016   3.142  0.00  0.00    -0.048 C 
ATOM     31  H   I0Y d   1      16.924   3.096   2.573  0.00  0.00     0.031 H 
ATOM     32  H   I0Y d   1      16.361   3.783   4.117  0.00  0.00     0.031 H 
ATOM     33  H   I0Y d   1      16.120   4.685   2.601  0.00  0.00     0.031 H 
ENDBRANCH  21  30
ENDBRANCH  20  21
ENDBRANCH  14  20
ENDBRANCH   7  10
ENDBRANCH   5   7
BRANCH   5  34
ATOM     34  C20 I0Y d   1      23.217   7.430   2.855  0.00  0.00     0.172 C 
ATOM     35  O4  I0Y d   1      22.405   7.611   3.761  0.00  0.00    -0.293 OA
BRANCH  34  36
ATOM     36  C21 I0Y d   1      22.836   7.957   1.655  0.00  0.00     0.073 C 
ATOM     37  H   I0Y d   1      23.222   8.974   1.580  0.00  0.00     0.085 H 
ATOM     38  H   I0Y d   1      23.232   7.331   0.855  0.00  0.00     0.085 H 
BRANCH  36  39
ATOM     39  O6  I0Y d   1      21.457   7.995   1.549  0.00  0.00    -0.394 OA
ATOM     40  H   I0Y d   1      21.098   8.539   2.254  0.00  0.00     0.209 HD
ENDBRANCH  36  39
ENDBRANCH  34  36
ENDBRANCH   5  34
ENDBRANCH   3   5
BRANCH   1  41
ATOM     41  C9  I0Y d   1      27.804   8.490   3.275  0.00  0.00     0.095 C 
ATOM     42  H   I0Y d   1      28.080   7.856   4.118  0.00  0.00     0.088 H 
BRANCH  41  43
ATOM     43  N1  I0Y d   1      29.106   8.502   2.473  0.00  0.00    -0.323 N 
ATOM     44  C1  I0Y d   1      29.744   7.264   2.792  0.00  0.00     0.361 C 
ATOM     45  O1  I0Y d   1      29.032   6.323   3.230  0.00  0.00    -0.238 OA
ATOM     46  H   I0Y d   1      29.445   9.233   1.848  0.00  0.00     0.165 HD
BRANCH  44  47
ATOM     47  O2  I0Y d   1      31.011   7.262   2.915  0.00  0.00    -0.299 OA
BRANCH  47  48
ATOM     48  C2  I0Y d   1      31.770   6.104   2.992  0.00  0.00     0.054 C 
ATOM     49  H   I0Y d   1      31.090   5.253   2.950  0.00  0.00     0.082 H 
ATOM     50  H   I0Y d   1      32.341   6.137   3.920  0.00  0.00     0.082 H 
BRANCH  48  51
ATOM     51  C3  I0Y d   1      32.745   5.977   1.851  0.00  0.00    -0.034 A 
ATOM     52  C8  I0Y d   1      34.091   6.275   2.040  0.00  0.00    -0.075 A 
ATOM     53  C7  I0Y d   1      34.967   6.174   0.956  0.00  0.00    -0.082 A 
ATOM     54  H   I0Y d   1      34.457   6.583   3.020  0.00  0.00     0.084 H 
ATOM     55  C6  I0Y d   1      34.485   5.799  -0.305  0.00  0.00    -0.083 A 
ATOM     56  H   I0Y d   1      36.027   6.387   1.092  0.00  0.00     0.083 H 
ATOM     57  C5  I0Y d   1      33.128   5.522  -0.490  0.00  0.00    -0.082 A 
ATOM     58  H   I0Y d   1      35.173   5.723  -1.147  0.00  0.00     0.083 H 
ATOM     59  C4  I0Y d   1      32.255   5.613   0.594  0.00  0.00    -0.075 A 
ATOM     60  H   I0Y d   1      32.755   5.237  -1.474  0.00  0.00     0.083 H 
ATOM     61  H   I0Y d   1      31.194   5.401   0.461  0.00  0.00     0.084 H 
ENDBRANCH  48  51
ENDBRANCH  47  48
ENDBRANCH  44  47
ENDBRANCH  41  43
BRANCH  41  62
ATOM     62  C11 I0Y d   1      27.353   9.798   4.102  0.00  0.00    -0.014 C 
ATOM     63  H   I0Y d   1      27.264   9.477   5.140  0.00  0.00     0.043 H 
ATOM     64  H   I0Y d   1      26.447  10.159   3.615  0.00  0.00     0.043 H 
BRANCH  62  65
ATOM     65  C12 I0Y d   1      28.307  10.965   4.113  0.00  0.00    -0.056 A 
ATOM     66  C13 I0Y d   1      28.466  11.627   2.918  0.00  0.00    -0.077 A 
ATOM     67  C15 I0Y d   1      29.342  12.694   2.837  0.00  0.00    -0.082 A 
ATOM     68  H   I0Y d   1      27.904  11.312   2.039  0.00  0.00     0.084 H 
ATOM     69  C17 I0Y d   1      30.051  13.096   3.958  0.00  0.00    -0.083 A 
ATOM     70  H   I0Y d   1      29.475  13.219   1.891  0.00  0.00     0.083 H 
ATOM     71  C16 I0Y d   1      29.885  12.431   5.161  0.00  0.00    -0.082 A 
ATOM     72  H   I0Y d   1      30.741  13.938   3.892  0.00  0.00     0.083 H 
ATOM     73  C14 I0Y d   1      29.010  11.351   5.242  0.00  0.00    -0.077 A 
ATOM     74  H   I0Y d   1      30.439  12.752   6.043  0.00  0.00     0.083 H 
ATOM     75  H   I0Y d   1      28.880  10.816   6.183  0.00  0.00     0.084 H 
ENDBRANCH  62  65
ENDBRANCH  41  62
ENDBRANCH   1  41
TORSDOF 18
