REMARK  8 active torsions:
REMARK  status: ('A' for Active; 'I' for Inactive)
REMARK    1  A    between atoms: C16_13  and  C17_3 
REMARK    2  A    between atoms: C17_3  and  C18_17 
REMARK    3  A    between atoms: C21_5  and  N27_21 
REMARK    4  A    between atoms: C07_16  and  C01_8 
REMARK    5  A    between atoms: N27_21  and  S28_22 
REMARK    6  A    between atoms: S28_22  and  C31_25 
REMARK    7  A    between atoms: C31_25  and  C32_26 
REMARK    8  A    between atoms: C32_26  and  C33_27 
ROOT
ATOM      1  C17 032 d   1       1.516  -2.316 -20.597  0.00  0.00     0.200 C 
ATOM      2  O19 032 d   1       1.942  -2.898 -21.592  0.00  0.00    -0.286 OA
ENDROOT
BRANCH   1   3
ATOM      3  C16 032 d   1       2.365  -1.886 -19.491  0.00  0.00     0.044 A 
ATOM      4  C15 032 d   1       1.934  -1.231 -18.357  0.00  0.00    -0.006 A 
ATOM      5  N14 032 d   1       2.999  -0.988 -17.535  0.00  0.00    -0.349 N 
ATOM      6  H1  032 d   1       0.903  -0.950 -18.148  0.00  0.00     0.112 H 
ATOM      7  C06 032 d   1       4.133  -1.474 -18.114  0.00  0.00     0.138 A 
ATOM      8  H5  032 d   1       2.952  -0.513 -16.622  0.00  0.00     0.167 HD
ATOM      9  N03 032 d   1       5.354  -1.393 -17.558  0.00  0.00    -0.242 NA
ATOM     10  C05 032 d   1       3.781  -2.044 -19.335  0.00  0.00     0.026 A 
ATOM     11  C02 032 d   1       6.309  -1.953 -18.333  0.00  0.00     0.015 A 
ATOM     12  C01 032 d   1       6.130  -2.562 -19.577  0.00  0.00    -0.007 A 
ATOM     13  H3  032 d   1       7.322  -1.927 -17.948  0.00  0.00     0.116 H 
ATOM     14  C04 032 d   1       4.825  -2.607 -20.089  0.00  0.00    -0.056 A 
ATOM     15  H4  032 d   1       4.625  -3.068 -21.049  0.00  0.00     0.086 H 
BRANCH  12  16
ATOM     16  C07 032 d   1       7.269  -3.124 -20.317  0.00  0.00    -0.024 A 
ATOM     17  C08 032 d   1       7.146  -4.319 -21.047  0.00  0.00    -0.071 A 
ATOM     18  C09 032 d   1       8.232  -4.846 -21.751  0.00  0.00    -0.061 A 
ATOM     19  H15 032 d   1       6.195  -4.839 -21.064  0.00  0.00     0.084 H 
ATOM     20  C10 032 d   1       9.454  -4.176 -21.735  0.00  0.00     0.034 A 
ATOM     21  H16 032 d   1       8.125  -5.771 -22.306  0.00  0.00     0.086 H 
ATOM     22  C11 032 d   1       9.603  -2.986 -21.024  0.00  0.00    -0.061 A 
ATOM     23 CL13 032 d   1      10.795  -4.820 -22.601  0.00  0.00    -0.084 Cl
ATOM     24  C12 032 d   1       8.514  -2.465 -20.323  0.00  0.00    -0.071 A 
ATOM     25  H17 032 d   1      10.556  -2.470 -21.016  0.00  0.00     0.086 H 
ATOM     26  H18 032 d   1       8.628  -1.537 -19.774  0.00  0.00     0.084 H 
ENDBRANCH  12  16
ENDBRANCH   1   3
BRANCH   1  27
ATOM     27  C18 032 d   1       0.073  -2.029 -20.549  0.00  0.00     0.094 A 
ATOM     28  C20 032 d   1      -0.845  -3.053 -20.418  0.00  0.00     0.160 A 
ATOM     29  C21 032 d   1      -2.207  -2.778 -20.374  0.00  0.00     0.082 A 
ATOM     30  F26 032 d   1      -0.426  -4.317 -20.325  0.00  0.00    -0.203 F 
ATOM     31  C22 032 d   1      -2.658  -1.461 -20.469  0.00  0.00    -0.051 A 
ATOM     32  C23 032 d   1      -1.742  -0.420 -20.608  0.00  0.00    -0.042 A 
ATOM     33  H2  032 d   1      -3.720  -1.248 -20.435  0.00  0.00     0.087 H 
ATOM     34  C24 032 d   1      -0.387  -0.720 -20.649  0.00  0.00     0.133 A 
ATOM     35  H6  032 d   1      -2.082   0.607 -20.683  0.00  0.00     0.088 H 
ATOM     36  F25 032 d   1       0.477   0.287 -20.782  0.00  0.00    -0.205 F 
BRANCH  29  37
ATOM     37  N27 032 d   1      -3.116  -3.877 -20.230  0.00  0.00    -0.281 N 
ATOM     38  H7  032 d   1      -2.770  -4.813 -20.169  0.00  0.00     0.178 HD
BRANCH  37  39
ATOM     39  S28 032 d   1      -4.803  -3.571 -20.163  0.00  0.00     0.231 S 
ATOM     40  O29 032 d   1      -5.510  -4.828 -20.031  0.00  0.00    -0.206 OA
ATOM     41  O30 032 d   1      -5.206  -2.598 -21.157  0.00  0.00    -0.206 OA
BRANCH  39  42
ATOM     42  C31 032 d   1      -4.997  -2.774 -18.571  0.00  0.00     0.046 C 
ATOM     43  H8  032 d   1      -5.946  -2.218 -18.581  0.00  0.00     0.058 H 
ATOM     44  H9  032 d   1      -4.161  -2.071 -18.437  0.00  0.00     0.058 H 
BRANCH  42  45
ATOM     45  C32 032 d   1      -5.016  -3.720 -17.378  0.00  0.00    -0.055 C 
ATOM     46  H10 032 d   1      -4.526  -4.665 -17.655  0.00  0.00     0.033 H 
ATOM     47  H11 032 d   1      -6.058  -3.918 -17.087  0.00  0.00     0.033 H 
BRANCH  45  48
ATOM     48  C33 032 d   1      -4.277  -3.096 -16.205  0.00  0.00    -0.076 C 
ATOM     49  H12 032 d   1      -4.297  -3.787 -15.350  0.00  0.00     0.027 H 
ATOM     50  H13 032 d   1      -4.766  -2.151 -15.924  0.00  0.00     0.027 H 
ATOM     51  H14 032 d   1      -3.234  -2.898 -16.492  0.00  0.00     0.027 H 
ENDBRANCH  45  48
ENDBRANCH  42  45
ENDBRANCH  39  42
ENDBRANCH  37  39
ENDBRANCH  29  37
ENDBRANCH   1  27
TORSDOF 8
