REMARK  7 active torsions:
REMARK  status: ('A' for Active; 'I' for Inactive)
REMARK    1  A    between atoms: C01_1  and  C02_2 
REMARK    2  A    between atoms: C02_2  and  C03_3 
REMARK    3  A    between atoms: C05_5  and  C06_6 
REMARK       I    between atoms: C06_6  and  N08_8 
REMARK    4  A    between atoms: N08_8  and  C09_9 
REMARK    5  A    between atoms: C09_9  and  C10_10 
REMARK    6  A    between atoms: C14_14  and  C15_15 
REMARK    7  A    between atoms: C15_15  and  C16_16 
ROOT
ATOM      1  C03 OGK d   1      -2.327   6.274  45.725  0.00  0.00    -0.053 C 
ATOM      2  C04 OGK d   1      -1.573   4.986  45.936  0.00  0.00    -0.050 C 
ATOM      3  C05 OGK d   1      -0.631   4.877  47.123  0.00  0.00     0.028 C 
ATOM      4  C17 OGK d   1      -0.750   5.843  48.327  0.00  0.00    -0.032 C 
ATOM      5  C18 OGK d   1       0.642   6.177  48.519  0.00  0.00    -0.054 C 
ATOM      6  C19 OGK d   1       0.680   7.606  49.096  0.00  0.00    -0.009 C 
ATOM      7  C20 OGK d   1      -0.655   8.201  48.726  0.00  0.00     0.131 C 
ATOM      8  O21 OGK d   1      -1.052   9.260  49.082  0.00  0.00    -0.298 OA
ATOM      9  C22 OGK d   1      -1.463   7.133  48.024  0.00  0.00     0.008 C 
ATOM     10  C23 OGK d   1      -1.622   7.414  46.473  0.00  0.00    -0.052 C 
ATOM     11  H   OGK d   1      -3.343   6.197  46.112  0.00  0.00     0.040 H 
ATOM     12  H   OGK d   1      -0.935   4.885  45.058  0.00  0.00     0.034 H 
ATOM     13  H   OGK d   1      -2.342   4.234  46.115  0.00  0.00     0.034 H 
ATOM     14  H   OGK d   1       0.132   5.498  46.653  0.00  0.00     0.055 H 
ATOM     15  H   OGK d   1      -1.302   5.391  49.151  0.00  0.00     0.042 H 
ATOM     16  H   OGK d   1       1.187   6.124  47.577  0.00  0.00     0.034 H 
ATOM     17  H   OGK d   1       1.120   5.471  49.198  0.00  0.00     0.034 H 
ATOM     18  H   OGK d   1       1.510   8.186  48.694  0.00  0.00     0.044 H 
ATOM     19  H   OGK d   1       0.842   7.606  50.174  0.00  0.00     0.044 H 
ATOM     20  H   OGK d   1      -2.493   7.103  48.380  0.00  0.00     0.052 H 
ATOM     21  H   OGK d   1      -2.230   8.311  46.359  0.00  0.00     0.034 H 
ATOM     22  H   OGK d   1      -0.623   7.519  46.051  0.00  0.00     0.034 H 
ENDROOT
BRANCH   3  23
ATOM     23  C06 OGK d   1       0.138   3.549  47.319  0.00  0.00     0.223 C 
ATOM     24  O07 OGK d   1      -0.328   2.584  46.812  0.00  0.00    -0.273 OA
ATOM     25  N08 OGK d   1       1.199   3.444  48.360  0.00  0.00    -0.341 N 
ATOM     26  H   OGK d   1       1.456   4.279  48.886  0.00  0.00     0.163 HD
BRANCH  25  27
ATOM     27  C09 OGK d   1       1.904   2.152  48.664  0.00  0.00     0.125 A 
ATOM     28  C13 OGK d   1       2.735   1.787  47.762  0.00  0.00    -0.025 A 
ATOM     29  C14 OGK d   1       3.212   2.374  48.836  0.00  0.00    -0.017 A 
ATOM     30  H   OGK d   1       2.839   1.889  46.682  0.00  0.00     0.038 H 
ATOM     31  H   OGK d   1       2.943   0.887  47.183  0.00  0.00     0.038 H 
ATOM     32  H   OGK d   1       3.982   3.140  48.925  0.00  0.00     0.044 H 
BRANCH  27  33
ATOM     33  C10 OGK d   1       1.262   1.344  49.164  0.00  0.00     0.203 C 
ATOM     34  O11 OGK d   1       0.385   1.672  49.929  0.00  0.00    -0.646 OA
ATOM     35  O12 OGK d   1       1.230   0.032  48.595  0.00  0.00    -0.646 OA
ENDBRANCH  27  33
BRANCH  29  36
ATOM     36  C15 OGK d   1       3.447   1.500  50.080  0.00  0.00    -0.062 C 
ATOM     37  H   OGK d   1       3.506   0.467  49.738  0.00  0.00     0.033 H 
ATOM     38  H   OGK d   1       2.628   1.700  50.771  0.00  0.00     0.033 H 
BRANCH  36  39
ATOM     39  C16 OGK d   1       4.747   1.800  50.827  0.00  0.00    -0.076 C 
ATOM     40  H   OGK d   1       5.594   1.638  50.160  0.00  0.00     0.027 H 
ATOM     41  H   OGK d   1       4.740   2.837  51.163  0.00  0.00     0.027 H 
ATOM     42  H   OGK d   1       4.830   1.138  51.689  0.00  0.00     0.027 H 
ENDBRANCH  36  39
ENDBRANCH  29  36
ENDBRANCH  25  27
ENDBRANCH   3  23
BRANCH   1  43
ATOM     43  C02 OGK d   1      -2.367   6.556  44.208  0.00  0.00    -0.065 C 
ATOM     44  H   OGK d   1      -1.500   7.184  44.004  0.00  0.00     0.033 H 
ATOM     45  H   OGK d   1      -2.404   5.578  43.729  0.00  0.00     0.033 H 
BRANCH  43  46
ATOM     46  C01 OGK d   1      -3.579   7.331  43.661  0.00  0.00    -0.076 C 
ATOM     47  H   OGK d   1      -4.491   6.774  43.876  0.00  0.00     0.027 H 
ATOM     48  H   OGK d   1      -3.628   8.310  44.138  0.00  0.00     0.027 H 
ATOM     49  H   OGK d   1      -3.473   7.456  42.583  0.00  0.00     0.027 H 
ENDBRANCH  43  46
ENDBRANCH   1  43
TORSDOF 7
