REMARK  13 active torsions:
REMARK  status: ('A' for Active; 'I' for Inactive)
REMARK    1  A    between atoms: C1_1  and  O3_3 
REMARK    2  A    between atoms: C2_2  and  C6_6 
REMARK    3  A    between atoms: O3_3  and  C7_7 
REMARK    4  A    between atoms: C4_4  and  O9_9 
REMARK    5  A    between atoms: C6_6  and  O11_11 
REMARK    6  A    between atoms: C8_8  and  N14_14 
REMARK    7  A    between atoms: C10_10  and  O15_15 
REMARK    8  A    between atoms: O11_11  and  S16_16 
REMARK    9  A    between atoms: C12_12  and  O18_18 
REMARK   10  A    between atoms: N14_14  and  S20_20 
REMARK   11  A    between atoms: C17_17  and  O25_25 
REMARK   12  A    between atoms: O18_18  and  S26_26 
REMARK   13  A    between atoms: C19_19  and  C27_27 
ROOT
ATOM      1  C1  H1S d   1     -17.775 -20.025 -22.980  0.00  0.00     0.095 C 
ATOM      2  C2  H1S d   1     -19.199 -19.492 -23.030  0.00  0.00     0.091 C 
ATOM      3  C4  H1S d   1     -17.457 -20.627 -21.615  0.00  0.00     0.087 C 
ATOM      4  O5  H1S d   1     -20.068 -20.603 -22.790  0.00  0.00    -0.349 OA
ATOM      5  C8  H1S d   1     -18.596 -21.499 -21.063  0.00  0.00     0.096 C 
ATOM      6  C10 H1S d   1     -20.019 -21.041 -21.418  0.00  0.00     0.151 C 
ATOM      7  H   H1S d   1     -17.706 -20.814 -23.729  0.00  0.00     0.091 H 
ATOM      8  H   H1S d   1     -19.301 -18.712 -22.275  0.00  0.00     0.090 H 
ATOM      9  H   H1S d   1     -17.293 -19.811 -20.912  0.00  0.00     0.090 H 
ATOM     10  H   H1S d   1     -18.469 -22.448 -21.585  0.00  0.00     0.085 H 
ATOM     11  H   H1S d   1     -20.700 -21.886 -21.309  0.00  0.00     0.132 H 
ENDROOT
BRANCH   1  12
ATOM     12  O3  H1S d   1     -16.815 -19.017 -23.317  0.00  0.00    -0.347 OA
BRANCH  12  13
ATOM     13  C7  H1S d   1     -15.974 -19.475 -24.394  0.00  0.00     0.167 C 
ATOM     14  C12 H1S d   1     -16.061 -18.508 -25.576  0.00  0.00     0.135 C 
ATOM     15  C17 H1S d   1     -14.739 -18.366 -26.317  0.00  0.00     0.086 C 
ATOM     16  H   H1S d   1     -16.315 -17.531 -25.165  0.00  0.00     0.097 H 
ATOM     17  C24 H1S d   1     -13.951 -19.661 -26.234  0.00  0.00    -0.034 C 
ATOM     18  H   H1S d   1     -14.916 -18.159 -27.372  0.00  0.00     0.093 H 
ATOM     19  C19 H1S d   1     -13.694 -20.136 -25.014  0.00  0.00     0.147 C 
ATOM     20  H   H1S d   1     -13.611 -20.179 -27.131  0.00  0.00     0.085 H 
ATOM     21  O13 H1S d   1     -14.615 -19.684 -23.961  0.00  0.00    -0.311 OA
ATOM     22  H   H1S d   1     -16.339 -20.447 -24.726  0.00  0.00     0.134 H 
BRANCH  14  23
ATOM     23  O18 H1S d   1     -17.077 -18.943 -26.496  0.00  0.00    -0.244 OA
BRANCH  23  24
ATOM     24  S26 H1S d   1     -16.715 -19.827 -27.722  0.00  0.00     0.252 S 
ATOM     25  O31 H1S d   1     -16.071 -18.764 -28.544  0.00  0.00    -0.572 OA
ATOM     26  O32 H1S d   1     -15.994 -21.094 -28.019  0.00  0.00    -0.572 OA
ATOM     27  O33 H1S d   1     -18.141 -19.884 -28.117  0.00  0.00    -0.572 OA
ENDBRANCH  23  24
ENDBRANCH  14  23
BRANCH  15  28
ATOM     28  O25 H1S d   1     -14.010 -17.274 -25.738  0.00  0.00    -0.389 OA
ATOM     29  H   H1S d   1     -13.831 -17.464 -24.814  0.00  0.00     0.210 HD
ENDBRANCH  15  28
BRANCH  19  30
ATOM     30  C27 H1S d   1     -12.530 -21.027 -24.761  0.00  0.00     0.233 C 
ATOM     31  O34 H1S d   1     -12.393 -21.617 -23.659  0.00  0.00    -0.642 OA
ATOM     32  O35 H1S d   1     -11.664 -21.193 -25.651  0.00  0.00    -0.642 OA
ENDBRANCH  19  30
ENDBRANCH  12  13
ENDBRANCH   1  12
BRANCH   2  33
ATOM     33  C6  H1S d   1     -19.566 -18.817 -24.360  0.00  0.00     0.067 C 
ATOM     34  H   H1S d   1     -19.694 -19.555 -25.151  0.00  0.00     0.080 H 
ATOM     35  H   H1S d   1     -18.773 -18.147 -24.691  0.00  0.00     0.080 H 
BRANCH  33  36
ATOM     36  O11 H1S d   1     -20.804 -18.085 -24.121  0.00  0.00    -0.254 OA
BRANCH  36  37
ATOM     37  S16 H1S d   1     -21.406 -17.049 -25.146  0.00  0.00     0.251 S 
ATOM     38  O21 H1S d   1     -22.417 -17.695 -26.057  0.00  0.00    -0.572 OA
ATOM     39  O22 H1S d   1     -22.056 -15.937 -24.391  0.00  0.00    -0.572 OA
ATOM     40  O23 H1S d   1     -20.309 -16.415 -25.942  0.00  0.00    -0.572 OA
ENDBRANCH  36  37
ENDBRANCH  33  36
ENDBRANCH   2  33
BRANCH   3  41
ATOM     41  O9  H1S d   1     -16.308 -21.482 -21.793  0.00  0.00    -0.391 OA
ATOM     42  H   H1S d   1     -16.061 -21.864 -20.948  0.00  0.00     0.210 HD
ENDBRANCH   3  41
BRANCH   5  43
ATOM     43  N14 H1S d   1     -18.466 -21.714 -19.628  0.00  0.00    -0.289 N 
ATOM     44  H   H1S d   1     -19.293 -21.946 -19.078  0.00  0.00     0.175 HD
BRANCH  43  45
ATOM     45  S20 H1S d   1     -17.031 -21.591 -18.892  0.00  0.00     0.205 S 
ATOM     46  O28 H1S d   1     -16.490 -20.231 -19.129  0.00  0.00    -0.578 OA
ATOM     47  O29 H1S d   1     -17.175 -21.720 -17.414  0.00  0.00    -0.578 OA
ATOM     48  O30 H1S d   1     -16.082 -22.580 -19.502  0.00  0.00    -0.578 OA
ENDBRANCH  43  45
ENDBRANCH   5  43
BRANCH   6  49
ATOM     49  O15 H1S d   1     -20.473 -20.011 -20.509  0.00  0.00    -0.369 OA
ATOM     50  H   H1S d   1     -19.913 -19.237 -20.599  0.00  0.00     0.212 HD
ENDBRANCH   6  49
TORSDOF 13
