REMARK  20 active torsions:
REMARK  status: ('A' for Active; 'I' for Inactive)
REMARK    1  A    between atoms: C21_21  and  C16_16 
REMARK    2  A    between atoms: C26_26  and  C17_17 
REMARK    3  A    between atoms: C27_27  and  C18_18 
REMARK    4  A    between atoms: C20_20  and  O44_44 
REMARK       I    between atoms: N38_38  and  C21_21 
REMARK       I    between atoms: N37_37  and  C22_22 
REMARK       I    between atoms: C22_22  and  N40_40 
REMARK    5  A    between atoms: C28_28  and  C23_23 
REMARK    6  A    between atoms: C29_29  and  C24_24 
REMARK    7  A    between atoms: O44_44  and  C25_25 
REMARK    8  A    between atoms: C35_35  and  C26_26 
REMARK    9  A    between atoms: N39_39  and  C27_27 
REMARK   10  A    between atoms: C30_30  and  C28_28 
REMARK   11  A    between atoms: C31_31  and  C29_29 
REMARK   12  A    between atoms: C32_32  and  C30_30 
REMARK   13  A    between atoms: C33_33  and  C31_31 
REMARK   14  A    between atoms: N40_40  and  C32_32 
REMARK   15  A    between atoms: N40_40  and  C33_33 
REMARK   16  A    between atoms: C36_36  and  C34_34 
REMARK   17  A    between atoms: C34_34  and  N39_39 
REMARK   18  A    between atoms: C35_35  and  C36_36 
REMARK   19  A    between atoms: C35_35  and  N38_38 
REMARK   20  A    between atoms: C36_36  and  O43_43 
ROOT
ATOM      1  C21 3HF d   1      78.943  61.116  84.649  0.00  0.00     0.254 C 
ATOM      2  N38 3HF d   1      77.626  61.398  84.606  0.00  0.00    -0.349 N 
ATOM      3  O41 3HF d   1      79.555  60.996  85.697  0.00  0.00    -0.268 OA
ATOM      4  H44 3HF d   1      77.213  61.450  83.697  0.00  0.00     0.163 HD
ENDROOT
BRANCH   2   5
ATOM      5  C35 3HF d   1      76.732  61.636  85.739  0.00  0.00     0.042 C 
ATOM      6  H42 3HF d   1      77.349  61.996  86.575  0.00  0.00     0.077 H 
BRANCH   5   7
ATOM      7  C26 3HF d   1      75.803  62.800  85.319  0.00  0.00    -0.020 C 
ATOM      8  H24 3HF d   1      74.978  62.375  84.729  0.00  0.00     0.043 H 
ATOM      9  H25 3HF d   1      75.401  63.257  86.235  0.00  0.00     0.043 H 
BRANCH   7  10
ATOM     10  C17 3HF d   1      76.445  63.902  84.494  0.00  0.00    -0.056 A 
ATOM     11  C8  3HF d   1      77.675  64.455  84.863  0.00  0.00    -0.077 A 
ATOM     12  C3  3HF d   1      78.263  65.471  84.092  0.00  0.00    -0.082 A 
ATOM     13  H8  3HF d   1      78.180  64.096  85.753  0.00  0.00     0.084 H 
ATOM     14  C1  3HF d   1      77.604  65.927  82.951  0.00  0.00    -0.083 A 
ATOM     15  H3  3HF d   1      79.218  65.896  84.380  0.00  0.00     0.083 H 
ATOM     16  C4  3HF d   1      76.373  65.378  82.573  0.00  0.00    -0.082 A 
ATOM     17  H1  3HF d   1      78.049  66.713  82.352  0.00  0.00     0.083 H 
ATOM     18  C9  3HF d   1      75.800  64.369  83.345  0.00  0.00    -0.077 A 
ATOM     19  H4  3HF d   1      75.868  65.736  81.683  0.00  0.00     0.083 H 
ATOM     20  H9  3HF d   1      74.847  63.943  83.052  0.00  0.00     0.084 H 
ENDBRANCH   7  10
ENDBRANCH   5   7
BRANCH   5  21
ATOM     21  C36 3HF d   1      76.016  60.380  86.263  0.00  0.00     0.078 C 
ATOM     22  H43 3HF d   1      75.556  59.855  85.413  0.00  0.00     0.088 H 
BRANCH  21  23
ATOM     23  C34 3HF d   1      76.955  59.407  86.990  0.00  0.00     0.107 C 
ATOM     24  H40 3HF d   1      77.461  59.938  87.809  0.00  0.00     0.079 H 
ATOM     25  H41 3HF d   1      77.705  59.030  86.279  0.00  0.00     0.079 H 
BRANCH  23  26
ATOM     26  N39 3HF d   1      76.190  58.254  87.553  0.00  0.00    -0.069 N 
ATOM     27  H45 3HF d   1      75.338  58.603  87.963  0.00  0.00     0.277 HD
ATOM     28  H46 3HF d   1      75.966  57.619  86.803  0.00  0.00     0.277 HD
BRANCH  26  29
ATOM     29  C27 3HF d   1      76.959  57.502  88.607  0.00  0.00     0.105 C 
ATOM     30  H26 3HF d   1      76.335  56.676  88.981  0.00  0.00     0.083 H 
ATOM     31  H27 3HF d   1      77.875  57.094  88.155  0.00  0.00     0.083 H 
BRANCH  29  32
ATOM     32  C18 3HF d   1      77.341  58.389  89.768  0.00  0.00    -0.030 A 
ATOM     33  C10 3HF d   1      78.669  58.494  90.174  0.00  0.00    -0.075 A 
ATOM     34  C6  3HF d   1      79.003  59.328  91.247  0.00  0.00    -0.080 A 
ATOM     35  H10 3HF d   1      79.441  57.932  89.661  0.00  0.00     0.084 H 
ATOM     36  C12 3HF d   1      78.010  60.062  91.899  0.00  0.00    -0.051 A 
ATOM     37  H6  3HF d   1      80.034  59.404  91.573  0.00  0.00     0.083 H 
ATOM     38  C20 3HF d   1      76.680  59.962  91.487  0.00  0.00     0.068 A 
ATOM     39  H12 3HF d   1      78.272  60.711  92.727  0.00  0.00     0.087 H 
ATOM     40  C13 3HF d   1      76.353  59.121  90.430  0.00  0.00    -0.043 A 
ATOM     41  H13 3HF d   1      75.319  59.032  90.116  0.00  0.00     0.088 H 
BRANCH  38  42
ATOM     42  O44 3HF d   1      75.701  60.639  92.089  0.00  0.00    -0.356 OA
BRANCH  42  43
ATOM     43  C25 3HF d   1      76.005  61.960  92.585  0.00  0.00     0.010 C 
ATOM     44  H21 3HF d   1      75.108  62.392  93.052  0.00  0.00     0.066 H 
ATOM     45  H22 3HF d   1      76.327  62.600  91.750  0.00  0.00     0.066 H 
ATOM     46  H23 3HF d   1      76.811  61.895  93.330  0.00  0.00     0.066 H 
ENDBRANCH  42  43
ENDBRANCH  38  42
ENDBRANCH  29  32
ENDBRANCH  26  29
ENDBRANCH  23  26
ENDBRANCH  21  23
BRANCH  21  47
ATOM     47  O43 3HF d   1      75.000  60.801  87.173  0.00  0.00    -0.392 OA
ATOM     48  H47 3HF d   1      74.385  61.366  86.720  0.00  0.00     0.210 HD
ENDBRANCH  21  47
ENDBRANCH   5  21
ENDBRANCH   2   5
BRANCH   1  49
ATOM     49  C16 3HF d   1      79.640  61.003  83.338  0.00  0.00     0.060 A 
ATOM     50  C14 3HF d   1      79.186  61.668  82.212  0.00  0.00     0.006 A 
ATOM     51  N37 3HF d   1      80.033  61.433  81.184  0.00  0.00    -0.273 N 
ATOM     52  H14 3HF d   1      78.289  62.283  82.162  0.00  0.00     0.114 H 
ATOM     53  C19 3HF d   1      81.025  60.610  81.621  0.00  0.00     0.054 A 
ATOM     54  C22 3HF d   1      79.896  61.832  79.912  0.00  0.00     0.329 C 
ATOM     55  C11 3HF d   1      82.126  60.082  80.940  0.00  0.00    -0.056 A 
ATOM     56  C15 3HF d   1      80.810  60.337  82.974  0.00  0.00     0.008 A 
ATOM     57  C5  3HF d   1      83.023  59.269  81.641  0.00  0.00    -0.081 A 
ATOM     58  H11 3HF d   1      82.281  60.298  79.889  0.00  0.00     0.087 H 
ATOM     59  C2  3HF d   1      82.817  58.993  82.993  0.00  0.00    -0.082 A 
ATOM     60  H5  3HF d   1      83.883  58.851  81.131  0.00  0.00     0.083 H 
ATOM     61  C7  3HF d   1      81.710  59.521  83.661  0.00  0.00    -0.070 A 
ATOM     62  H2  3HF d   1      83.520  58.365  83.528  0.00  0.00     0.083 H 
ATOM     63  H7  3HF d   1      81.550  59.298  84.710  0.00  0.00     0.084 H 
ATOM     64  N40 3HF d   1      79.413  63.067  79.675  0.00  0.00    -0.334 N 
ATOM     65  O42 3HF d   1      79.734  60.873  79.170  0.00  0.00    -0.246 OA
BRANCH  64  66
ATOM     66  C32 3HF d   1      79.827  64.302  80.364  0.00  0.00    -0.001 C 
ATOM     67  H36 3HF d   1      78.985  65.010  80.345  0.00  0.00     0.064 H 
ATOM     68  H37 3HF d   1      80.073  64.053  81.407  0.00  0.00     0.064 H 
BRANCH  66  69
ATOM     69  C30 3HF d   1      81.049  64.982  79.726  0.00  0.00    -0.050 C 
ATOM     70  H32 3HF d   1      80.813  65.219  78.678  0.00  0.00     0.035 H 
ATOM     71  H33 3HF d   1      81.260  65.912  80.274  0.00  0.00     0.035 H 
BRANCH  69  72
ATOM     72  C28 3HF d   1      82.299  64.100  79.759  0.00  0.00    -0.067 C 
ATOM     73  H28 3HF d   1      82.604  63.945  80.805  0.00  0.00     0.032 H 
ATOM     74  H29 3HF d   1      82.068  63.129  79.296  0.00  0.00     0.032 H 
BRANCH  72  75
ATOM     75  C23 3HF d   1      83.448  64.760  78.994  0.00  0.00    -0.076 C 
ATOM     76  H15 3HF d   1      84.334  64.110  79.031  0.00  0.00     0.027 H 
ATOM     77  H16 3HF d   1      83.686  65.730  79.455  0.00  0.00     0.027 H 
ATOM     78  H17 3HF d   1      83.150  64.915  77.947  0.00  0.00     0.027 H 
ENDBRANCH  72  75
ENDBRANCH  69  72
ENDBRANCH  66  69
ENDBRANCH  64  66
BRANCH  64  79
ATOM     79  C33 3HF d   1      78.677  63.260  78.427  0.00  0.00    -0.001 C 
ATOM     80  H38 3HF d   1      79.157  64.068  77.856  0.00  0.00     0.064 H 
ATOM     81  H39 3HF d   1      78.717  62.327  77.846  0.00  0.00     0.064 H 
BRANCH  79  82
ATOM     82  C31 3HF d   1      77.211  63.629  78.662  0.00  0.00    -0.050 C 
ATOM     83  H34 3HF d   1      77.130  64.144  79.630  0.00  0.00     0.035 H 
ATOM     84  H35 3HF d   1      76.887  64.306  77.858  0.00  0.00     0.035 H 
BRANCH  82  85
ATOM     85  C29 3HF d   1      76.287  62.417  78.678  0.00  0.00    -0.067 C 
ATOM     86  H30 3HF d   1      76.107  62.081  77.646  0.00  0.00     0.032 H 
ATOM     87  H31 3HF d   1      76.758  61.605  79.251  0.00  0.00     0.032 H 
BRANCH  85  88
ATOM     88  C24 3HF d   1      74.959  62.792  79.328  0.00  0.00    -0.076 C 
ATOM     89  H18 3HF d   1      74.295  61.915  79.338  0.00  0.00     0.027 H 
ATOM     90  H19 3HF d   1      74.486  63.603  78.755  0.00  0.00     0.027 H 
ATOM     91  H20 3HF d   1      75.138  63.128  80.360  0.00  0.00     0.027 H 
ENDBRANCH  85  88
ENDBRANCH  82  85
ENDBRANCH  79  82
ENDBRANCH  64  79
ENDBRANCH   1  49
TORSDOF 20
