REMARK  17 active torsions:
REMARK  status: ('A' for Active; 'I' for Inactive)
REMARK       I    between atoms: N1_3  and  C11_15 
REMARK    1  A    between atoms: C34_22  and  C3_7 
REMARK    2  A    between atoms: C18_20  and  C8_12 
REMARK       I    between atoms: C11_15  and  N12_16 
REMARK    3  A    between atoms: N12_16  and  C13_17 
REMARK    4  A    between atoms: N12_16  and  C14_18 
REMARK    5  A    between atoms: C14_18  and  C15_19 
REMARK    6  A    between atoms: C15_19  and  C18_20 
REMARK    7  A    between atoms: C36_24  and  N35_23 
REMARK    8  A    between atoms: C36_24  and  C37_25 
REMARK    9  A    between atoms: C48_31  and  C36_24 
REMARK   10  A    between atoms: C37_25  and  C38_26 
REMARK   11  A    between atoms: C37_25  and  O63_38 
REMARK   12  A    between atoms: C38_26  and  N39_27 
REMARK   13  A    between atoms: N39_27  and  C42_28 
REMARK   14  A    between atoms: C42_28  and  C43_29 
REMARK   15  A    between atoms: C50_32  and  C48_31 
REMARK   16  A    between atoms: C68_40  and  O76_44 
REMARK   17  A    between atoms: O76_44  and  C77_45 
ROOT
ATOM      1  C1  3HH d   1      43.459  58.104  52.097  0.00  0.00    -0.050 A 
ATOM      2  N1  3HH d   1      44.880  55.588  54.073  0.00  0.00    -0.273 N 
ATOM      3  C2  3HH d   1      45.693  56.583  54.453  0.00  0.00     0.005 A 
ATOM      4  N2  3HH d   1      41.160  58.824  49.662  0.00  0.00    -0.191 NA
ATOM      5  C3  3HH d   1      45.323  57.738  53.797  0.00  0.00     0.046 A 
ATOM      6  C4  3HH d   1      44.248  57.372  52.990  0.00  0.00     0.009 A 
ATOM      7  C5  3HH d   1      42.926  55.368  52.470  0.00  0.00    -0.054 A 
ATOM      8  C6  3HH d   1      43.960  56.007  53.163  0.00  0.00     0.054 A 
ATOM      9  C7  3HH d   1      41.656  58.258  50.523  0.00  0.00     0.099 C 
ATOM     10  C9  3HH d   1      42.144  56.104  51.587  0.00  0.00    -0.061 A 
ATOM     11  C10 3HH d   1      42.423  57.458  51.421  0.00  0.00     0.045 A 
ATOM     12  C11 3HH d   1      45.022  54.324  54.534  0.00  0.00     0.328 C 
ATOM     13  N12 3HH d   1      45.165  53.910  55.811  0.00  0.00    -0.338 N 
ATOM     14  O33 3HH d   1      45.053  53.501  53.619  0.00  0.00    -0.246 OA
ATOM     15  H   3HH d   1      43.651  59.164  51.931  0.00  0.00     0.087 H 
ATOM     16  H   3HH d   1      46.514  56.494  55.165  0.00  0.00     0.114 H 
ATOM     17  H   3HH d   1      42.736  54.305  52.621  0.00  0.00     0.087 H 
ATOM     18  H   3HH d   1      41.330  55.631  51.037  0.00  0.00     0.085 H 
ENDROOT
BRANCH   5  19
ATOM     19  C34 3HH d   1      46.009  59.045  53.981  0.00  0.00     0.187 C 
ATOM     20  N35 3HH d   1      47.231  58.945  54.373  0.00  0.00    -0.360 N 
ATOM     21  H   3HH d   1      47.654  58.018  54.339  0.00  0.00     0.162 HD
ATOM     22  O46 3HH d   1      45.374  60.191  53.733  0.00  0.00    -0.172 OA
BRANCH  20  23
ATOM     23  C36 3HH d   1      48.069  60.042  54.863  0.00  0.00     0.041 C 
ATOM     24  H   3HH d   1      47.433  60.904  55.065  0.00  0.00     0.077 H 
BRANCH  23  25
ATOM     25  C37 3HH d   1      49.074  60.493  53.792  0.00  0.00     0.078 C 
ATOM     26  H   3HH d   1      49.678  59.657  53.440  0.00  0.00     0.088 H 
BRANCH  25  27
ATOM     27  C38 3HH d   1      48.319  61.072  52.587  0.00  0.00     0.107 C 
ATOM     28  H   3HH d   1      47.613  61.813  52.962  0.00  0.00     0.079 H 
ATOM     29  H   3HH d   1      47.833  60.245  52.070  0.00  0.00     0.079 H 
BRANCH  27  30
ATOM     30  N39 3HH d   1      49.216  61.752  51.612  0.00  0.00    -0.069 N 
ATOM     31  H   3HH d   1      49.540  61.032  50.966  0.00  0.00     0.277 HD
ATOM     32  H   3HH d   1      49.943  62.212  52.160  0.00  0.00     0.277 HD
BRANCH  30  33
ATOM     33  C42 3HH d   1      48.576  62.814  50.778  0.00  0.00     0.105 C 
ATOM     34  H   3HH d   1      47.771  62.347  50.211  0.00  0.00     0.083 H 
ATOM     35  H   3HH d   1      49.352  63.249  50.148  0.00  0.00     0.083 H 
BRANCH  33  36
ATOM     36  C43 3HH d   1      47.970  63.932  51.594  0.00  0.00    -0.030 A 
ATOM     37  C67 3HH d   1      48.807  64.669  52.420  0.00  0.00    -0.043 A 
ATOM     38  C68 3HH d   1      48.250  65.692  53.180  0.00  0.00     0.068 A 
ATOM     39  H   3HH d   1      49.874  64.452  52.472  0.00  0.00     0.088 H 
ATOM     40  C69 3HH d   1      46.878  65.955  53.105  0.00  0.00    -0.051 A 
ATOM     41  C70 3HH d   1      46.017  65.220  52.287  0.00  0.00    -0.080 A 
ATOM     42  H   3HH d   1      46.465  66.764  53.708  0.00  0.00     0.087 H 
ATOM     43  C71 3HH d   1      46.601  64.201  51.530  0.00  0.00    -0.075 A 
ATOM     44  H   3HH d   1      44.948  65.430  52.242  0.00  0.00     0.083 H 
ATOM     45  H   3HH d   1      45.972  63.601  50.873  0.00  0.00     0.084 H 
BRANCH  38  46
ATOM     46  O76 3HH d   1      49.187  66.298  53.906  0.00  0.00    -0.356 OA
BRANCH  46  47
ATOM     47  C77 3HH d   1      48.880  66.648  55.281  0.00  0.00     0.010 C 
ATOM     48  H   3HH d   1      48.029  67.329  55.300  0.00  0.00     0.066 H 
ATOM     49  H   3HH d   1      48.636  65.744  55.839  0.00  0.00     0.066 H 
ATOM     50  H   3HH d   1      49.745  67.133  55.733  0.00  0.00     0.066 H 
ENDBRANCH  46  47
ENDBRANCH  38  46
ENDBRANCH  33  36
ENDBRANCH  30  33
ENDBRANCH  27  30
ENDBRANCH  25  27
BRANCH  25  51
ATOM     51  O63 3HH d   1      49.905  61.492  54.388  0.00  0.00    -0.392 OA
ATOM     52  H   3HH d   1      50.369  61.114  55.139  0.00  0.00     0.210 HD
ENDBRANCH  25  51
ENDBRANCH  23  25
BRANCH  23  53
ATOM     53  C48 3HH d   1      48.736  59.669  56.201  0.00  0.00    -0.020 C 
ATOM     54  H   3HH d   1      49.107  60.580  56.670  0.00  0.00     0.043 H 
ATOM     55  H   3HH d   1      49.547  58.969  56.001  0.00  0.00     0.043 H 
BRANCH  53  56
ATOM     56  C50 3HH d   1      47.752  59.011  57.139  0.00  0.00    -0.050 A 
ATOM     57  C53 3HH d   1      48.043  57.718  57.569  0.00  0.00    -0.039 A 
ATOM     58  C54 3HH d   1      47.165  57.061  58.432  0.00  0.00     0.119 A 
ATOM     59  H   3HH d   1      48.953  57.221  57.233  0.00  0.00     0.089 H 
ATOM     60  F2  3HH d   1      47.429  55.825  58.868  0.00  0.00    -0.206 F 
ATOM     61  C55 3HH d   1      45.984  57.664  58.868  0.00  0.00    -0.009 A 
ATOM     62  C56 3HH d   1      45.696  58.952  58.423  0.00  0.00     0.119 A 
ATOM     63  H   3HH d   1      45.304  57.140  59.540  0.00  0.00     0.092 H 
ATOM     64  F1  3HH d   1      44.569  59.543  58.829  0.00  0.00    -0.206 F 
ATOM     65  C57 3HH d   1      46.569  59.615  57.570  0.00  0.00    -0.039 A 
ATOM     66  H   3HH d   1      46.327  60.623  57.232  0.00  0.00     0.089 H 
ENDBRANCH  53  56
ENDBRANCH  23  53
ENDBRANCH  20  23
ENDBRANCH   5  19
BRANCH  13  67
ATOM     67  C13 3HH d   1      44.655  54.693  56.947  0.00  0.00    -0.015 C 
ATOM     68  H   3HH d   1      45.131  55.673  56.954  0.00  0.00     0.056 H 
ATOM     69  H   3HH d   1      43.576  54.813  56.849  0.00  0.00     0.056 H 
ATOM     70  H   3HH d   1      44.881  54.171  57.877  0.00  0.00     0.056 H 
ENDBRANCH  13  67
BRANCH  13  71
ATOM     71  C14 3HH d   1      45.796  52.640  56.188  0.00  0.00    -0.001 C 
ATOM     72  H   3HH d   1      45.941  52.090  55.258  0.00  0.00     0.064 H 
ATOM     73  H   3HH d   1      45.137  52.187  56.929  0.00  0.00     0.064 H 
BRANCH  71  74
ATOM     74  C15 3HH d   1      47.178  52.723  56.848  0.00  0.00    -0.050 C 
ATOM     75  H   3HH d   1      47.586  51.713  56.886  0.00  0.00     0.035 H 
ATOM     76  H   3HH d   1      47.047  53.172  57.833  0.00  0.00     0.035 H 
BRANCH  74  77
ATOM     77  C18 3HH d   1      48.169  53.594  56.070  0.00  0.00    -0.067 C 
ATOM     78  H   3HH d   1      47.614  54.089  55.273  0.00  0.00     0.032 H 
ATOM     79  H   3HH d   1      48.623  54.286  56.779  0.00  0.00     0.032 H 
BRANCH  77  80
ATOM     80  C8  3HH d   1      49.298  52.799  55.417  0.00  0.00    -0.076 C 
ATOM     81  H   3HH d   1      49.861  52.271  56.187  0.00  0.00     0.027 H 
ATOM     82  H   3HH d   1      48.876  52.079  54.716  0.00  0.00     0.027 H 
ATOM     83  H   3HH d   1      49.960  53.481  54.884  0.00  0.00     0.027 H 
ENDBRANCH  77  80
ENDBRANCH  74  77
ENDBRANCH  71  74
ENDBRANCH  13  71
TORSDOF 17
