REMARK  9 active torsions:
REMARK  status: ('A' for Active; 'I' for Inactive)
REMARK    1  A    between atoms: SBD_2  and  NAD_4 
REMARK    2  A    between atoms: SBD_2  and  OAS_5 
REMARK    3  A    between atoms: OAS_5  and  CAX_6 
REMARK    4  A    between atoms: CBB_9  and  CAB_11 
REMARK    5  A    between atoms: CAT_22  and  CAK_23 
REMARK    6  A    between atoms: CAK_23  and  CAA_24 
REMARK    7  A    between atoms: CAV_25  and  OAR_26 
REMARK    8  A    between atoms: OAR_26  and  SBC_27 
REMARK    9  A    between atoms: SBC_27  and  NAC_30 
ROOT
ATOM      1  CAX WZB d   1      -4.622   1.744  14.805  0.00  0.00     0.066 C 
ATOM      2  CAM WZB d   1      -4.230   0.735  13.697  0.00  0.00    -0.038 C 
ATOM      3  CAO WZB d   1      -3.573   1.693  12.623  0.00  0.00    -0.058 C 
ATOM      4  CBB WZB d   1      -4.271   3.123  14.328  0.00  0.00    -0.012 C 
ATOM      5  CBA WZB d   1      -3.173   2.916  13.473  0.00  0.00    -0.041 C 
ATOM      6  CAQ WZB d   1      -4.151   4.250  15.297  0.00  0.00    -0.055 C 
ATOM      7  CAP WZB d   1      -3.750   5.502  14.578  0.00  0.00    -0.057 C 
ATOM      8  CAY WZB d   1      -2.372   5.221  13.881  0.00  0.00    -0.024 C 
ATOM      9  CAZ WZB d   1      -2.520   4.136  12.791  0.00  0.00    -0.042 C 
ATOM     10  CAN WZB d   1      -1.208   3.862  12.089  0.00  0.00    -0.057 C 
ATOM     11  CAL WZB d   1      -0.926   5.131  11.224  0.00  0.00    -0.040 C 
ATOM     12  CAU WZB d   1      -0.842   6.355  12.163  0.00  0.00    -0.049 A 
ATOM     13  CAI WZB d   1      -0.079   7.463  11.764  0.00  0.00    -0.042 A 
ATOM     14  CAW WZB d   1      -1.517   6.414  13.386  0.00  0.00    -0.047 A 
ATOM     15  CAJ WZB d   1      -1.421   7.527  14.201  0.00  0.00    -0.067 A 
ATOM     16  CAT WZB d   1      -0.642   8.619  13.800  0.00  0.00    -0.023 A 
ATOM     17  CAV WZB d   1       0.030   8.590  12.572  0.00  0.00     0.098 A 
ATOM     18  H   WZB d   1      -4.020   1.528  15.687  0.00  0.00     0.086 H 
ATOM     19  H   WZB d   1      -5.071   0.158  13.313  0.00  0.00     0.036 H 
ATOM     20  H   WZB d   1      -3.566  -0.058  14.041  0.00  0.00     0.036 H 
ATOM     21  H   WZB d   1      -4.246   1.943  11.803  0.00  0.00     0.033 H 
ATOM     22  H   WZB d   1      -2.730   1.239  12.102  0.00  0.00     0.033 H 
ATOM     23  H   WZB d   1      -2.267   2.703  14.040  0.00  0.00     0.042 H 
ATOM     24  H   WZB d   1      -3.393   4.005  16.041  0.00  0.00     0.034 H 
ATOM     25  H   WZB d   1      -5.113   4.408  15.784  0.00  0.00     0.034 H 
ATOM     26  H   WZB d   1      -3.662   6.333  15.278  0.00  0.00     0.034 H 
ATOM     27  H   WZB d   1      -4.503   5.777  13.839  0.00  0.00     0.034 H 
ATOM     28  H   WZB d   1      -1.766   4.866  14.715  0.00  0.00     0.048 H 
ATOM     29  H   WZB d   1      -3.165   4.458  11.974  0.00  0.00     0.041 H 
ATOM     30  H   WZB d   1      -1.264   2.963  11.474  0.00  0.00     0.034 H 
ATOM     31  H   WZB d   1      -0.404   3.677  12.802  0.00  0.00     0.034 H 
ATOM     32  H   WZB d   1      -1.727   5.273  10.499  0.00  0.00     0.040 H 
ATOM     33  H   WZB d   1       0.013   5.012  10.683  0.00  0.00     0.040 H 
ATOM     34  H   WZB d   1       0.437   7.440  10.804  0.00  0.00     0.088 H 
ATOM     35  H   WZB d   1      -1.951   7.554  15.153  0.00  0.00     0.085 H 
ENDROOT
BRANCH   1  36
ATOM     36  OAS WZB d   1      -5.924   1.558  15.479  0.00  0.00    -0.254 OA
BRANCH  36  37
ATOM     37  SBD WZB d   1      -5.975   0.637  16.713  0.00  0.00     0.356 S 
ATOM     38  OAH WZB d   1      -7.389   0.714  16.997  0.00  0.00    -0.176 OA
ATOM     39  OAG WZB d   1      -5.074   1.128  17.771  0.00  0.00    -0.176 OA
BRANCH  37  40
ATOM     40  NAD WZB d   1      -5.522  -0.853  16.319  0.00  0.00    -0.306 N 
ATOM     41  H   WZB d   1      -6.210  -1.605  16.294  0.00  0.00     0.171 HD
ATOM     42  H   WZB d   1      -4.546  -1.047  16.094  0.00  0.00     0.171 HD
ENDBRANCH  37  40
ENDBRANCH  36  37
ENDBRANCH   1  36
BRANCH   4  43
ATOM     43  CAB WZB d   1      -5.513   3.505  13.433  0.00  0.00    -0.066 C 
ATOM     44  H   WZB d   1      -5.291   4.414  12.874  0.00  0.00     0.028 H 
ATOM     45  H   WZB d   1      -5.722   2.692  12.738  0.00  0.00     0.028 H 
ATOM     46  H   WZB d   1      -6.381   3.672  14.071  0.00  0.00     0.028 H 
ENDBRANCH   4  43
BRANCH  16  47
ATOM     47  CAK WZB d   1      -0.580   9.823  14.748  0.00  0.00    -0.042 C 
ATOM     48  H   WZB d   1       0.405  10.289  14.716  0.00  0.00     0.039 H 
ATOM     49  H   WZB d   1      -0.751   9.512  15.779  0.00  0.00     0.039 H 
BRANCH  47  50
ATOM     50  CAA WZB d   1      -1.658  10.804  14.293  0.00  0.00    -0.073 C 
ATOM     51  H   WZB d   1      -1.459  11.110  13.266  0.00  0.00     0.028 H 
ATOM     52  H   WZB d   1      -2.633  10.320  14.346  0.00  0.00     0.028 H 
ATOM     53  H   WZB d   1      -1.649  11.679  14.943  0.00  0.00     0.028 H 
ENDBRANCH  47  50
ENDBRANCH  16  47
BRANCH  17  54
ATOM     54  OAR WZB d   1       0.784   9.702  12.204  0.00  0.00    -0.216 OA
BRANCH  54  55
ATOM     55  SBC WZB d   1       2.267   9.596  12.290  0.00  0.00     0.360 S 
ATOM     56  OAF WZB d   1       2.757   8.716  11.171  0.00  0.00    -0.176 OA
ATOM     57  OAE WZB d   1       2.767   9.078  13.610  0.00  0.00    -0.176 OA
BRANCH  55  58
ATOM     58  NAC WZB d   1       2.899  11.090  12.062  0.00  0.00    -0.305 N 
ATOM     59  H   WZB d   1       3.506  11.270  11.263  0.00  0.00     0.171 HD
ATOM     60  H   WZB d   1       2.685  11.840  12.719  0.00  0.00     0.171 HD
ENDBRANCH  55  58
ENDBRANCH  54  55
ENDBRANCH  17  54
TORSDOF 9
