REMARK  6 active torsions:
REMARK  status: ('A' for Active; 'I' for Inactive)
REMARK    1  A    between atoms: C13_2  and  C12_1 
REMARK    2  A    between atoms: C13_2  and  O14_3 
REMARK    3  A    between atoms: C15_4  and  C13_2 
REMARK    4  A    between atoms: OAT_23  and  CAV_25 
REMARK    5  A    between atoms: CAW_26  and  OAT_23 
REMARK    6  A    between atoms: CAZ_29  and  CBA_30 
ROOT
ATOM      1  C12 OJ8 d   1      39.860 -39.676   6.220  0.00  0.00    -0.018 C 
ATOM      2  CAK OJ8 d   1      41.856 -44.001   7.496  0.00  0.00    -0.050 A 
ATOM      3  CAL OJ8 d   1      40.802 -43.047   7.701  0.00  0.00    -0.074 A 
ATOM      4  CAN OJ8 d   1      43.154 -42.413   6.114  0.00  0.00    -0.044 A 
ATOM      5  CAO OJ8 d   1      42.300 -40.110   5.635  0.00  0.00    -0.040 C 
ATOM      6  CAP OJ8 d   1      41.307 -39.085   6.200  0.00  0.00    -0.055 C 
ATOM      7  CAQ OJ8 d   1      39.851 -40.749   7.283  0.00  0.00    -0.034 C 
ATOM      8  CAW OJ8 d   1      42.996 -43.697   6.689  0.00  0.00     0.076 A 
ATOM      9  CAX OJ8 d   1      40.951 -41.768   7.097  0.00  0.00    -0.051 A 
ATOM     10  CAY OJ8 d   1      42.120 -41.460   6.294  0.00  0.00    -0.049 A 
ATOM     11  H   OJ8 d   1      39.578 -40.089   5.252  0.00  0.00     0.045 H 
ATOM     12  H   OJ8 d   1      41.785 -44.981   7.968  0.00  0.00     0.087 H 
ATOM     13  H   OJ8 d   1      39.923 -43.294   8.296  0.00  0.00     0.084 H 
ATOM     14  H   OJ8 d   1      44.050 -42.163   5.546  0.00  0.00     0.088 H 
ATOM     15  H   OJ8 d   1      43.313 -39.759   5.829  0.00  0.00     0.040 H 
ATOM     16  H   OJ8 d   1      42.121 -40.217   4.565  0.00  0.00     0.040 H 
ATOM     17  H   OJ8 d   1      41.600 -38.833   7.219  0.00  0.00     0.034 H 
ATOM     18  H   OJ8 d   1      41.318 -38.197   5.568  0.00  0.00     0.034 H 
ATOM     19  H   OJ8 d   1      38.897 -41.273   7.220  0.00  0.00     0.040 H 
ATOM     20  H   OJ8 d   1      40.005 -40.264   8.247  0.00  0.00     0.040 H 
ENDROOT
BRANCH   1  21
ATOM     21  C13 OJ8 d   1      38.862 -38.569   6.567  0.00  0.00     0.103 C 
ATOM     22  H   OJ8 d   1      38.903 -37.932   5.683  0.00  0.00     0.096 H 
BRANCH  21  23
ATOM     23  O14 OJ8 d   1      39.237 -37.922   7.777  0.00  0.00    -0.387 OA
ATOM     24  H   OJ8 d   1      40.110 -37.535   7.675  0.00  0.00     0.210 HD
ENDBRANCH  21  23
BRANCH  21  25
ATOM     25  C15 OJ8 d   1      37.365 -39.008   6.781  0.00  0.00     0.175 A 
ATOM     26  NAS OJ8 d   1      36.295 -38.583   6.188  0.00  0.00    -0.235 NA
ATOM     27  CAM OJ8 d   1      35.199 -39.206   6.710  0.00  0.00     0.040 A 
ATOM     28  CBA OJ8 d   1      35.646 -40.045   7.670  0.00  0.00     0.123 A 
ATOM     29  H   OJ8 d   1      34.162 -39.056   6.410  0.00  0.00     0.119 H 
ATOM     30  OAU OJ8 d   1      36.993 -39.893   7.719  0.00  0.00    -0.289 OA
BRANCH  28  31
ATOM     31  CAZ OJ8 d   1      34.967 -40.923   8.487  0.00  0.00     0.091 A 
ATOM     32  CAJ OJ8 d   1      35.622 -42.008   9.161  0.00  0.00    -0.052 A 
ATOM     33  CAF OJ8 d   1      34.831 -42.842  10.022  0.00  0.00    -0.079 A 
ATOM     34  H   OJ8 d   1      36.687 -42.193   9.024  0.00  0.00     0.087 H 
ATOM     35  CAC OJ8 d   1      33.440 -42.612  10.163  0.00  0.00    -0.066 A 
ATOM     36  H   OJ8 d   1      35.304 -43.657  10.570  0.00  0.00     0.083 H 
ATOM     37  CAG OJ8 d   1      32.835 -41.541   9.454  0.00  0.00     0.003 A 
ATOM     38  H   OJ8 d   1      32.840 -43.252  10.810  0.00  0.00     0.085 H 
ATOM     39  NAR OJ8 d   1      33.612 -40.750   8.644  0.00  0.00    -0.258 NA
ATOM     40  H   OJ8 d   1      31.767 -41.349   9.552  0.00  0.00     0.114 H 
ENDBRANCH  28  31
ENDBRANCH  21  25
ENDBRANCH   1  21
BRANCH   8  41
ATOM     41  OAT OJ8 d   1      44.011 -44.653   6.527  0.00  0.00    -0.311 OA
BRANCH  41  42
ATOM     42  CAV OJ8 d   1      44.464 -45.506   7.487  0.00  0.00     0.076 A 
ATOM     43  CAH OJ8 d   1      44.716 -44.985   8.784  0.00  0.00    -0.050 A 
ATOM     44  CAD OJ8 d   1      45.209 -45.818   9.837  0.00  0.00    -0.080 A 
ATOM     45  H   OJ8 d   1      44.530 -43.929   8.981  0.00  0.00     0.087 H 
ATOM     46  CAB OJ8 d   1      45.394 -47.199   9.519  0.00  0.00    -0.083 A 
ATOM     47  H   OJ8 d   1      45.431 -45.421  10.828  0.00  0.00     0.083 H 
ATOM     48  CAE OJ8 d   1      45.141 -47.748   8.235  0.00  0.00    -0.080 A 
ATOM     49  H   OJ8 d   1      45.748 -47.866  10.305  0.00  0.00     0.083 H 
ATOM     50  CAI OJ8 d   1      44.661 -46.898   7.224  0.00  0.00    -0.050 A 
ATOM     51  H   OJ8 d   1      45.315 -48.806   8.037  0.00  0.00     0.083 H 
ATOM     52  H   OJ8 d   1      44.438 -47.301   6.236  0.00  0.00     0.087 H 
ENDBRANCH  41  42
ENDBRANCH   8  41
TORSDOF 6
