REMARK  9 active torsions:
REMARK  status: ('A' for Active; 'I' for Inactive)
REMARK    1  A    between atoms: N2_1  and  C2_2 
REMARK    2  A    between atoms: N9_11  and  C1'_12 
REMARK    3  A    between atoms: C2'_13  and  O2'_14 
REMARK    4  A    between atoms: C3'_15  and  O3'_16 
REMARK    5  A    between atoms: C4'_17  and  C5'_19 
REMARK    6  A    between atoms: C5'_19  and  O5'_20 
REMARK    7  A    between atoms: O5'_20  and  PA_21 
REMARK    8  A    between atoms: PA_21  and  O3A_24 
REMARK    9  A    between atoms: O3A_24  and  PB_25 
ROOT
ATOM      1  C1' GDD d   1      20.810   8.735  87.686  0.00  0.00     0.139 C 
ATOM      2  C2' GDD d   1      20.495   9.902  88.614  0.00  0.00     0.105 C 
ATOM      3  C3' GDD d   1      20.472   9.271  89.990  0.00  0.00     0.091 C 
ATOM      4  C4' GDD d   1      20.098   7.818  89.743  0.00  0.00     0.089 C 
ATOM      5  O4' GDD d   1      20.349   7.554  88.354  0.00  0.00    -0.353 OA
ATOM      6  H   GDD d   1      21.878   8.668  87.479  0.00  0.00     0.122 H 
ATOM      7  H   GDD d   1      19.555  10.391  88.359  0.00  0.00     0.093 H 
ATOM      8  H   GDD d   1      19.782   9.784  90.660  0.00  0.00     0.091 H 
ATOM      9  H   GDD d   1      20.691   7.141  90.358  0.00  0.00     0.090 H 
ENDROOT
BRANCH   1  10
ATOM     10  N9  GDD d   1      20.142   8.913  86.368  0.00  0.00    -0.295 N 
ATOM     11  C4  GDD d   1      20.774   9.189  85.221  0.00  0.00     0.161 A 
ATOM     12  N3  GDD d   1      22.087   9.373  84.912  0.00  0.00    -0.174 N 
ATOM     13  C5  GDD d   1      19.811   9.284  84.223  0.00  0.00     0.171 A 
ATOM     14  C2  GDD d   1      22.461   9.646  83.637  0.00  0.00     0.680 A 
ATOM     15  H   GDD d   1      22.794   9.305  85.644  0.00  0.00     0.186 HD
ATOM     16  N1  GDD d   1      21.532   9.743  82.650  0.00  0.00    -0.154 N 
ATOM     17  C6  GDD d   1      20.215   9.566  82.920  0.00  0.00     0.292 A 
ATOM     18  H   GDD d   1      21.828   9.951  81.696  0.00  0.00     0.187 HD
ATOM     19  O6  GDD d   1      19.372   9.657  82.004  0.00  0.00    -0.265 OA
ATOM     20  N7  GDD d   1      18.607   9.061  84.798  0.00  0.00    -0.234 NA
ATOM     21  C8  GDD d   1      18.822   8.834  86.116  0.00  0.00     0.071 A 
ATOM     22  H   GDD d   1      18.049   8.621  86.855  0.00  0.00     0.144 H 
BRANCH  14  23
ATOM     23  N2  GDD d   1      23.773   9.825  83.347  0.00  0.00    -0.234 N 
ATOM     24  H   GDD d   1      24.473   9.754  84.086  0.00  0.00     0.174 HD
ATOM     25  H   GDD d   1      24.060  10.030  82.390  0.00  0.00     0.174 HD
ENDBRANCH  14  23
ENDBRANCH   1  10
BRANCH   2  26
ATOM     26  O2' GDD d   1      21.472  10.942  88.524  0.00  0.00    -0.388 OA
ATOM     27  H   GDD d   1      21.236  11.654  89.123  0.00  0.00     0.210 HD
ENDBRANCH   2  26
BRANCH   3  28
ATOM     28  O3' GDD d   1      21.776   9.318  90.578  0.00  0.00    -0.390 OA
ATOM     29  H   GDD d   1      22.058  10.232  90.656  0.00  0.00     0.210 HD
ENDBRANCH   3  28
BRANCH   4  30
ATOM     30  C5' GDD d   1      18.640   7.569  90.127  0.00  0.00     0.058 C 
ATOM     31  H   GDD d   1      18.172   8.528  90.351  0.00  0.00     0.079 H 
ATOM     32  H   GDD d   1      18.618   6.905  90.991  0.00  0.00     0.079 H 
BRANCH  30  33
ATOM     33  O5' GDD d   1      17.917   6.948  89.057  0.00  0.00    -0.287 OA
BRANCH  33  34
ATOM     34  PA  GDD d   1      16.854   6.004  89.322  0.00  0.00     0.418 P 
ATOM     35  O1A GDD d   1      15.797   6.456  88.828  0.00  0.00    -0.624 OA
ATOM     36  O2A GDD d   1      17.156   4.929  88.767  0.00  0.00    -0.624 OA
BRANCH  34  37
ATOM     37  O3A GDD d   1      16.697   5.817  90.764  0.00  0.00    -0.173 OA
BRANCH  37  38
ATOM     38  PB  GDD d   1      16.097   4.670  91.431  0.00  0.00     0.431 P 
ATOM     39  O2B GDD d   1      14.993   4.385  90.920  0.00  0.00    -0.616 OA
ATOM     40  O3B GDD d   1      16.857   3.682  91.354  0.00  0.00    -0.616 OA
ATOM     41  O1B GDD d   1      15.897   4.975  92.826  0.00  0.00    -0.616 OA
ENDBRANCH  37  38
ENDBRANCH  34  37
ENDBRANCH  33  34
ENDBRANCH  30  33
ENDBRANCH   4  30
TORSDOF 9
