REMARK  6 active torsions:
REMARK  status: ('A' for Active; 'I' for Inactive)
REMARK    1  A    between atoms: C2_2  and  C17_17 
REMARK    2  A    between atoms: N7_7  and  C11_11 
REMARK    3  A    between atoms: C8_8  and  C10_10 
REMARK    4  A    between atoms: C11_11  and  C12_12 
REMARK    5  A    between atoms: C11_11  and  C13_13 
REMARK       I    between atoms: C12_12  and  N15_15 
REMARK    6  A    between atoms: N15_15  and  C16_16 
ROOT
ATOM      1  C11 OKH d   1      23.290  64.247  15.610  0.00  0.00     0.099 C 
ATOM      2  H   OKH d   1      23.281  63.852  16.626  0.00  0.00     0.089 H 
ENDROOT
BRANCH   1   3
ATOM      3  N7  OKH d   1      21.903  64.193  15.253  0.00  0.00    -0.315 N 
ATOM      4  C6  OKH d   1      21.353  64.280  13.971  0.00  0.00     0.067 A 
ATOM      5  C3  OKH d   1      21.921  64.482  12.715  0.00  0.00    -0.038 A 
ATOM      6  C5  OKH d   1      19.944  64.012  14.113  0.00  0.00     0.086 A 
ATOM      7  C2  OKH d   1      21.074  64.503  11.613  0.00  0.00     0.043 A 
ATOM      8  H   OKH d   1      22.996  64.619  12.600  0.00  0.00     0.088 H 
ATOM      9  C1  OKH d   1      19.692  64.251  11.734  0.00  0.00    -0.064 A 
ATOM     10  C4  OKH d   1      19.122  64.012  12.975  0.00  0.00    -0.052 A 
ATOM     11  H   OKH d   1      19.065  64.244  10.842  0.00  0.00     0.085 H 
ATOM     12  H   OKH d   1      18.052  63.827  13.066  0.00  0.00     0.087 H 
ATOM     13  N9  OKH d   1      19.674  63.779  15.462  0.00  0.00    -0.228 NA
ATOM     14  C8  OKH d   1      20.829  63.986  16.140  0.00  0.00     0.142 A 
BRANCH   7  15
ATOM     15  C17 OKH d   1      21.689  64.837  10.317  0.00  0.00     0.209 C 
ATOM     16  O18 OKH d   1      21.314  64.088   9.258  0.00  0.00    -0.644 OA
ATOM     17  O19 OKH d   1      22.506  65.739  10.044  0.00  0.00    -0.644 OA
ENDBRANCH   7  15
BRANCH  14  18
ATOM     18  C10 OKH d   1      21.060  63.790  17.588  0.00  0.00     0.010 A 
ATOM     19  C20 OKH d   1      20.676  62.576  18.217  0.00  0.00    -0.068 A 
ATOM     20  C21 OKH d   1      20.935  62.368  19.583  0.00  0.00    -0.061 A 
ATOM     21  H   OKH d   1      20.177  61.800  17.637  0.00  0.00     0.085 H 
ATOM     22  C22 OKH d   1      21.636  63.342  20.324  0.00  0.00     0.034 A 
ATOM     23  H   OKH d   1      20.594  61.454  20.069  0.00  0.00     0.086 H 
ATOM     24  C23 OKH d   1      22.041  64.542  19.693  0.00  0.00    -0.061 A 
ATOM     25 CL35 OKH d   1      21.977  63.045  21.984  0.00  0.00    -0.084 Cl
ATOM     26  C24 OKH d   1      21.768  64.754  18.333  0.00  0.00    -0.068 A 
ATOM     27  H   OKH d   1      22.567  65.305  20.266  0.00  0.00     0.086 H 
ATOM     28  H   OKH d   1      22.106  65.671  17.850  0.00  0.00     0.085 H 
ENDBRANCH  14  18
ENDBRANCH   1   3
BRANCH   1  29
ATOM     29  C12 OKH d   1      23.836  65.692  15.495  0.00  0.00     0.241 C 
ATOM     30  O14 OKH d   1      23.817  66.297  14.398  0.00  0.00    -0.271 OA
ATOM     31  N15 OKH d   1      24.396  66.225  16.623  0.00  0.00    -0.355 N 
ATOM     32  H   OKH d   1      24.304  65.745  17.518  0.00  0.00     0.162 HD
BRANCH  31  33
ATOM     33  C16 OKH d   1      25.119  67.473  16.539  0.00  0.00     0.012 C 
ATOM     34  C30 OKH d   1      26.625  67.330  16.224  0.00  0.00    -0.046 C 
ATOM     35  C31 OKH d   1      27.156  68.700  15.862  0.00  0.00    -0.063 C 
ATOM     36  H   OKH d   1      26.774  66.636  15.396  0.00  0.00     0.035 H 
ATOM     37  H   OKH d   1      27.156  66.936  17.090  0.00  0.00     0.035 H 
ATOM     38  C32 OKH d   1      26.926  69.705  16.985  0.00  0.00    -0.065 C 
ATOM     39  H   OKH d   1      26.630  69.050  14.973  0.00  0.00     0.033 H 
ATOM     40  H   OKH d   1      28.229  68.619  15.687  0.00  0.00     0.033 H 
ATOM     41  C33 OKH d   1      25.470  69.761  17.422  0.00  0.00    -0.063 C 
ATOM     42  H   OKH d   1      27.206  70.692  16.618  0.00  0.00     0.033 H 
ATOM     43  H   OKH d   1      27.524  69.396  17.842  0.00  0.00     0.033 H 
ATOM     44  C34 OKH d   1      24.876  68.401  17.737  0.00  0.00    -0.046 C 
ATOM     45  H   OKH d   1      24.898  70.184  16.596  0.00  0.00     0.033 H 
ATOM     46  H   OKH d   1      25.426  70.356  18.334  0.00  0.00     0.033 H 
ATOM     47  H   OKH d   1      25.346  67.987  18.629  0.00  0.00     0.035 H 
ATOM     48  H   OKH d   1      23.806  68.496  17.922  0.00  0.00     0.035 H 
ATOM     49  H   OKH d   1      24.684  67.957  15.665  0.00  0.00     0.072 H 
ENDBRANCH  31  33
ENDBRANCH   1  29
BRANCH   1  50
ATOM     50  C13 OKH d   1      24.250  63.392  14.762  0.00  0.00    -0.025 C 
ATOM     51  C25 OKH d   1      25.696  63.838  15.063  0.00  0.00    -0.059 C 
ATOM     52  C26 OKH d   1      26.740  62.907  14.501  0.00  0.00    -0.065 C 
ATOM     53  H   OKH d   1      25.817  63.851  16.146  0.00  0.00     0.033 H 
ATOM     54  H   OKH d   1      25.842  64.813  14.599  0.00  0.00     0.033 H 
ATOM     55  C27 OKH d   1      26.456  61.482  14.906  0.00  0.00    -0.065 C 
ATOM     56  H   OKH d   1      27.716  63.196  14.890  0.00  0.00     0.033 H 
ATOM     57  H   OKH d   1      26.724  62.974  13.413  0.00  0.00     0.033 H 
ATOM     58  C28 OKH d   1      25.069  61.065  14.436  0.00  0.00    -0.065 C 
ATOM     59  H   OKH d   1      26.502  61.405  15.992  0.00  0.00     0.033 H 
ATOM     60  H   OKH d   1      27.198  60.828  14.449  0.00  0.00     0.033 H 
ATOM     61  C29 OKH d   1      23.968  61.923  15.045  0.00  0.00    -0.059 C 
ATOM     62  H   OKH d   1      24.904  60.033  14.746  0.00  0.00     0.033 H 
ATOM     63  H   OKH d   1      25.030  61.184  13.353  0.00  0.00     0.033 H 
ATOM     64  H   OKH d   1      23.009  61.647  14.606  0.00  0.00     0.033 H 
ATOM     65  H   OKH d   1      23.937  61.761  16.122  0.00  0.00     0.033 H 
ATOM     66  H   OKH d   1      24.102  63.531  13.691  0.00  0.00     0.043 H 
ENDBRANCH   1  50
TORSDOF 6
