REMARK  5 active torsions:
REMARK  status: ('A' for Active; 'I' for Inactive)
REMARK    1  A    between atoms: C1_1  and  C9_9 
REMARK    2  A    between atoms: N2_2  and  C5_5 
REMARK    3  A    between atoms: C5_5  and  C4_4 
REMARK       I    between atoms: C4_4  and  N8_8 
REMARK    4  A    between atoms: C5_5  and  C11_11 
REMARK    5  A    between atoms: N8_8  and  C15_15 
ROOT
ATOM      1  C5  OKI d   1      13.244  23.333   4.695  0.00  0.00     0.099 C 
ATOM      2  H   OKI d   1      14.320  23.236   4.550  0.00  0.00     0.089 H 
ENDROOT
BRANCH   1   3
ATOM      3  N2  OKI d   1      12.818  24.333   3.760  0.00  0.00    -0.315 N 
ATOM      4  C1  OKI d   1      13.649  24.995   2.813  0.00  0.00     0.142 A 
ATOM      5  N3  OKI d   1      12.982  25.914   2.087  0.00  0.00    -0.228 NA
ATOM      6  C7  OKI d   1      11.657  25.885   2.562  0.00  0.00     0.086 A 
ATOM      7  C6  OKI d   1      11.537  24.889   3.612  0.00  0.00     0.066 A 
ATOM      8  C20 OKI d   1      10.528  26.629   2.183  0.00  0.00    -0.053 A 
ATOM      9  C19 OKI d   1      10.313  24.658   4.258  0.00  0.00    -0.055 A 
ATOM     10  C25 OKI d   1       9.223  25.414   3.855  0.00  0.00    -0.081 A 
ATOM     11  H   OKI d   1      10.223  23.912   5.047  0.00  0.00     0.087 H 
ATOM     12  C26 OKI d   1       9.331  26.379   2.836  0.00  0.00    -0.081 A 
ATOM     13  H   OKI d   1       8.259  25.257   4.339  0.00  0.00     0.083 H 
ATOM     14  H   OKI d   1       8.446  26.948   2.551  0.00  0.00     0.083 H 
ATOM     15  H   OKI d   1      10.591  27.382   1.397  0.00  0.00     0.087 H 
BRANCH   4  16
ATOM     16  C9  OKI d   1      15.068  24.657   2.654  0.00  0.00     0.010 A 
ATOM     17  C12 OKI d   1      15.431  23.583   1.834  0.00  0.00    -0.068 A 
ATOM     18  C16 OKI d   1      16.766  23.232   1.669  0.00  0.00    -0.061 A 
ATOM     19  H   OKI d   1      14.657  23.014   1.318  0.00  0.00     0.085 H 
ATOM     20  C14 OKI d   1      17.751  23.963   2.338  0.00  0.00     0.034 A 
ATOM     21  H   OKI d   1      17.041  22.396   1.025  0.00  0.00     0.086 H 
ATOM     22  C17 OKI d   1      17.402  25.039   3.165  0.00  0.00    -0.061 A 
ATOM     23 CL18 OKI d   1      19.382  23.532   2.134  0.00  0.00    -0.084 Cl
ATOM     24  C13 OKI d   1      16.059  25.385   3.327  0.00  0.00    -0.068 A 
ATOM     25  H   OKI d   1      18.178  25.605   3.681  0.00  0.00     0.086 H 
ATOM     26  H   OKI d   1      15.782  26.218   3.974  0.00  0.00     0.085 H 
ENDBRANCH   4  16
ENDBRANCH   1   3
BRANCH   1  27
ATOM     27  C4  OKI d   1      12.515  21.990   4.388  0.00  0.00     0.241 C 
ATOM     28  N8  OKI d   1      12.540  21.609   3.075  0.00  0.00    -0.355 N 
ATOM     29  H   OKI d   1      13.066  22.191   2.423  0.00  0.00     0.162 HD
ATOM     30  O10 OKI d   1      11.968  21.313   5.275  0.00  0.00    -0.271 OA
BRANCH  28  31
ATOM     31  C15 OKI d   1      11.875  20.442   2.546  0.00  0.00     0.012 C 
ATOM     32  C23 OKI d   1      12.762  19.712   1.520  0.00  0.00    -0.046 C 
ATOM     33  C30 OKI d   1      12.057  18.506   0.942  0.00  0.00    -0.063 C 
ATOM     34  H   OKI d   1      13.668  19.375   2.023  0.00  0.00     0.035 H 
ATOM     35  H   OKI d   1      12.992  20.401   0.708  0.00  0.00     0.035 H 
ATOM     36  C32 OKI d   1      10.742  18.918   0.318  0.00  0.00    -0.065 C 
ATOM     37  H   OKI d   1      11.864  17.789   1.740  0.00  0.00     0.033 H 
ATOM     38  H   OKI d   1      12.689  18.056   0.177  0.00  0.00     0.033 H 
ATOM     39  C29 OKI d   1       9.854  19.615   1.328  0.00  0.00    -0.063 C 
ATOM     40  H   OKI d   1      10.945  19.607  -0.502  0.00  0.00     0.033 H 
ATOM     41  H   OKI d   1      10.230  18.024  -0.039  0.00  0.00     0.033 H 
ATOM     42  C24 OKI d   1      10.554  20.840   1.870  0.00  0.00    -0.046 C 
ATOM     43  H   OKI d   1       8.926  19.917   0.843  0.00  0.00     0.033 H 
ATOM     44  H   OKI d   1       9.638  18.931   2.149  0.00  0.00     0.033 H 
ATOM     45  H   OKI d   1      10.766  21.523   1.047  0.00  0.00     0.035 H 
ATOM     46  H   OKI d   1       9.909  21.323   2.604  0.00  0.00     0.035 H 
ATOM     47  H   OKI d   1      11.675  19.771   3.382  0.00  0.00     0.072 H 
ENDBRANCH  28  31
ENDBRANCH   1  27
BRANCH   1  48
ATOM     48  C11 OKI d   1      13.093  23.708   6.191  0.00  0.00    -0.025 C 
ATOM     49  C21 OKI d   1      13.228  25.209   6.402  0.00  0.00    -0.059 C 
ATOM     50  C28 OKI d   1      13.255  25.599   7.869  0.00  0.00    -0.065 C 
ATOM     51  H   OKI d   1      12.362  25.689   5.946  0.00  0.00     0.033 H 
ATOM     52  H   OKI d   1      14.171  25.524   5.956  0.00  0.00     0.033 H 
ATOM     53  C31 OKI d   1      14.288  24.819   8.653  0.00  0.00    -0.065 C 
ATOM     54  H   OKI d   1      12.275  25.383   8.294  0.00  0.00     0.033 H 
ATOM     55  H   OKI d   1      13.511  26.657   7.933  0.00  0.00     0.033 H 
ATOM     56  C27 OKI d   1      14.058  23.337   8.472  0.00  0.00    -0.065 C 
ATOM     57  H   OKI d   1      15.284  25.076   8.291  0.00  0.00     0.033 H 
ATOM     58  H   OKI d   1      14.202  25.070   9.710  0.00  0.00     0.033 H 
ATOM     59  C22 OKI d   1      14.136  22.956   7.009  0.00  0.00    -0.059 C 
ATOM     60  H   OKI d   1      14.828  22.792   9.019  0.00  0.00     0.033 H 
ATOM     61  H   OKI d   1      13.066  23.087   8.848  0.00  0.00     0.033 H 
ATOM     62  H   OKI d   1      15.126  23.213   6.633  0.00  0.00     0.033 H 
ATOM     63  H   OKI d   1      13.948  21.886   6.916  0.00  0.00     0.033 H 
ATOM     64  H   OKI d   1      12.095  23.421   6.523  0.00  0.00     0.043 H 
ENDBRANCH   1  48
TORSDOF 5
