REMARK  6 active torsions:
REMARK  status: ('A' for Active; 'I' for Inactive)
REMARK    1  A    between atoms: CAI_9  and  CAA_1 
REMARK    2  A    between atoms: CAY_25  and  CAB_2 
REMARK    3  A    between atoms: SAZ_26  and  NAC_3 
REMARK    4  A    between atoms: CAR_18  and  CAI_9 
REMARK    5  A    between atoms: CAT_20  and  OAP_16 
REMARK    6  A    between atoms: OAP_16  and  SAZ_26 
ROOT
ATOM      1  OAD VZ4 d   1      -1.253   5.090   6.931  0.00  0.00    -0.297 OA
ATOM      2  CAG VZ4 d   1      -4.099   1.273  14.215  0.00  0.00    -0.042 A 
ATOM      3  CAH VZ4 d   1      -5.026   3.587  12.993  0.00  0.00    -0.067 A 
ATOM      4  CAJ VZ4 d   1      -0.102   3.134   7.880  0.00  0.00    -0.009 C 
ATOM      5  CAK VZ4 d   1      -3.159   0.317  12.147  0.00  0.00    -0.040 C 
ATOM      6  CAL VZ4 d   1      -0.501   2.354   9.153  0.00  0.00    -0.054 C 
ATOM      7  CAM VZ4 d   1      -2.588   0.756  10.801  0.00  0.00    -0.057 C 
ATOM      8  CAN VZ4 d   1      -4.163   4.282  10.347  0.00  0.00    -0.056 C 
ATOM      9  CAO VZ4 d   1      -3.460   4.620   9.006  0.00  0.00    -0.051 C 
ATOM     10  CAQ VZ4 d   1      -1.143   4.261   7.832  0.00  0.00     0.135 C 
ATOM     11  CAR VZ4 d   1      -5.203   3.402  14.368  0.00  0.00    -0.023 A 
ATOM     12  CAS VZ4 d   1      -3.894   1.460  12.853  0.00  0.00    -0.049 A 
ATOM     13  CAT VZ4 d   1      -4.777   2.217  14.952  0.00  0.00     0.098 A 
ATOM     14  CAU VZ4 d   1      -4.365   2.617  12.239  0.00  0.00    -0.047 A 
ATOM     15  CAV VZ4 d   1      -4.075   2.793  10.749  0.00  0.00    -0.024 C 
ATOM     16  CAW VZ4 d   1      -2.633   2.269  10.610  0.00  0.00    -0.042 C 
ATOM     17  CAX VZ4 d   1      -1.995   2.663   9.279  0.00  0.00    -0.036 C 
ATOM     18  CAY VZ4 d   1      -2.003   4.160   9.097  0.00  0.00     0.021 C 
ATOM     19  H9  VZ4 d   1      -3.723   0.379  14.699  0.00  0.00     0.088 H 
ATOM     20  H10 VZ4 d   1      -5.402   4.484  12.514  0.00  0.00     0.085 H 
ATOM     21  H13 VZ4 d   1      -0.168   2.495   6.987  0.00  0.00     0.044 H 
ATOM     22  H14 VZ4 d   1       0.917   3.539   7.967  0.00  0.00     0.044 H 
ATOM     23  H15 VZ4 d   1      -2.334  -0.026  12.789  0.00  0.00     0.040 H 
ATOM     24  H16 VZ4 d   1      -3.864  -0.511  11.982  0.00  0.00     0.040 H 
ATOM     25  H17 VZ4 d   1       0.055   2.716  10.031  0.00  0.00     0.034 H 
ATOM     26  H18 VZ4 d   1      -0.328   1.275   9.028  0.00  0.00     0.034 H 
ATOM     27  H19 VZ4 d   1      -3.173   0.282   9.999  0.00  0.00     0.034 H 
ATOM     28  H20 VZ4 d   1      -1.541   0.424  10.737  0.00  0.00     0.034 H 
ATOM     29  H21 VZ4 d   1      -5.225   4.553  10.258  0.00  0.00     0.034 H 
ATOM     30  H22 VZ4 d   1      -3.697   4.882  11.142  0.00  0.00     0.034 H 
ATOM     31  H23 VZ4 d   1      -3.497   5.705   8.830  0.00  0.00     0.034 H 
ATOM     32  H24 VZ4 d   1      -3.964   4.097   8.180  0.00  0.00     0.034 H 
ATOM     33  H25 VZ4 d   1      -4.772   2.203  10.136  0.00  0.00     0.048 H 
ATOM     34  H26 VZ4 d   1      -2.036   2.728  11.412  0.00  0.00     0.041 H 
ATOM     35  H27 VZ4 d   1      -2.552   2.166   8.471  0.00  0.00     0.042 H 
ENDROOT
BRANCH  11  36
ATOM     36  CAI VZ4 d   1      -5.950   4.472  15.151  0.00  0.00    -0.042 C 
ATOM     37  H11 VZ4 d   1      -6.964   4.575  14.738  0.00  0.00     0.039 H 
ATOM     38  H12 VZ4 d   1      -6.013   4.165  16.206  0.00  0.00     0.039 H 
BRANCH  36  39
ATOM     39  CAA VZ4 d   1      -5.238   5.826  15.067  0.00  0.00    -0.073 C 
ATOM     40  H1  VZ4 d   1      -5.803   6.574  15.642  0.00  0.00     0.028 H 
ATOM     41  H2  VZ4 d   1      -5.176   6.143  14.015  0.00  0.00     0.028 H 
ATOM     42  H3  VZ4 d   1      -4.224   5.734  15.483  0.00  0.00     0.028 H 
ENDBRANCH  36  39
ENDBRANCH  11  36
BRANCH  13  43
ATOM     43  OAP VZ4 d   1      -4.871   2.037  16.316  0.00  0.00    -0.216 OA
BRANCH  43  44
ATOM     44  SAZ VZ4 d   1      -5.753   1.156  16.926  0.00  0.00     0.360 S 
ATOM     45  OAE VZ4 d   1      -5.468   1.295  18.391  0.00  0.00    -0.176 OA
ATOM     46  OAF VZ4 d   1      -7.113   1.602  16.627  0.00  0.00    -0.176 OA
BRANCH  44  47
ATOM     47  NAC VZ4 d   1      -5.423  -0.335  16.461  0.00  0.00    -0.305 N 
ATOM     48  H7  VZ4 d   1      -5.967  -1.099  16.808  0.00  0.00     0.171 HD
ATOM     49  H8  VZ4 d   1      -4.673  -0.505  15.822  0.00  0.00     0.171 HD
ENDBRANCH  44  47
ENDBRANCH  43  44
ENDBRANCH  13  43
BRANCH  18  50
ATOM     50  CAB VZ4 d   1      -1.265   4.903  10.228  0.00  0.00    -0.062 C 
ATOM     51  H4  VZ4 d   1      -1.304   5.986  10.041  0.00  0.00     0.029 H 
ATOM     52  H5  VZ4 d   1      -0.216   4.574  10.259  0.00  0.00     0.029 H 
ATOM     53  H6  VZ4 d   1      -1.748   4.679  11.190  0.00  0.00     0.029 H 
ENDBRANCH  18  50
TORSDOF 6
