REMARK WARNING: 32 MAX_TORS EXCEEDED!!!
REMARK  40 active torsions:
REMARK  status: ('A' for Active; 'I' for Inactive)
REMARK    1  A    between atoms: N1_8  and  C1_1 
REMARK    2  A    between atoms: C2_2  and  O2_9 
REMARK    3  A    between atoms: C3_3  and  O3_10 
REMARK    4  A    between atoms: C4_4  and  O4_11 
REMARK    5  A    between atoms: C5_5  and  C6_6 
REMARK    6  A    between atoms: C6_6  and  O6_12 
REMARK    7  A    between atoms: C4A_18  and  N1_8 
REMARK    8  A    between atoms: O4_30  and  C1_13 
REMARK    9  A    between atoms: C2_15  and  O2_14 
REMARK   10  A    between atoms: C3A_16  and  O3A_17 
REMARK   11  A    between atoms: C5A_19  and  C6A_21 
REMARK   12  A    between atoms: O4_43  and  C1_22 
REMARK   13  A    between atoms: C2_23  and  O2_28 
REMARK   14  A    between atoms: C3_24  and  O3_29 
REMARK   15  A    between atoms: C4_25  and  O4_30 
REMARK   16  A    between atoms: C5_26  and  C6_27 
REMARK   17  A    between atoms: C6_27  and  O6_32 
REMARK   18  A    between atoms: N1_40  and  C1_33 
REMARK   19  A    between atoms: C2_34  and  O2_41 
REMARK   20  A    between atoms: C3_35  and  O3_42 
REMARK   21  A    between atoms: C4_36  and  O4_43 
REMARK   22  A    between atoms: C5_37  and  C6_38 
REMARK   23  A    between atoms: C6_38  and  O6_44 
REMARK   24  A    between atoms: C4A_50  and  N1_40 
REMARK   25  A    between atoms: O4_62  and  C1_45 
REMARK   26  A    between atoms: C2_47  and  O2_46 
REMARK   27  A    between atoms: C3A_48  and  O3A_49 
REMARK   28  A    between atoms: C5A_51  and  C6A_53 
REMARK   29  A    between atoms: O4_74  and  C1_54 
REMARK   30  A    between atoms: C2_55  and  O2_60 
REMARK   31  A    between atoms: C3_56  and  O3_61 
REMARK   32  A    between atoms: C4_57  and  O4_62 
REMARK   33  A    between atoms: C5_58  and  C6_59 
REMARK   34  A    between atoms: C6_59  and  O6_64 
REMARK   35  A    between atoms: C1_65  and  O1_71 
REMARK   36  A    between atoms: C2_66  and  O2_72 
REMARK   37  A    between atoms: C3_67  and  O3_73 
REMARK   38  A    between atoms: C4_68  and  O4_74 
REMARK   39  A    between atoms: C5_69  and  C6_70 
REMARK   40  A    between atoms: C6_70  and  O6_76 
ROOT
ATOM      1  C1  ACI d   1      10.150 -16.492 -21.424  0.00  0.00     0.146 C 
ATOM      2  C2  ACI d   1      11.044 -15.295 -21.175  0.00  0.00     0.093 C 
ATOM      3  C3  ACI d   1      11.843 -15.260 -22.476  0.00  0.00     0.091 C 
ATOM      4  C4  ACI d   1      12.658 -16.551 -22.628  0.00  0.00     0.092 C 
ATOM      5  C5  ACI d   1      12.167 -17.765 -21.819  0.00  0.00    -0.027 C 
ATOM      6  C7  ACI d   1      10.912 -17.795 -21.229  0.00  0.00    -0.064 C 
ATOM      7  H   ACI d   1       9.745 -16.295 -22.417  0.00  0.00     0.095 H 
ATOM      8  H   ACI d   1      11.743 -15.334 -20.340  0.00  0.00     0.090 H 
ATOM      9  H   ACI d   1      11.129 -15.216 -23.299  0.00  0.00     0.091 H 
ATOM     10  H   ACI d   1      13.654 -16.356 -22.229  0.00  0.00     0.095 H 
ATOM     11  H   ACI d   1      10.516 -18.654 -20.687  0.00  0.00     0.080 H 
ENDROOT
BRANCH   1  12
ATOM     12  N1  ACI d   1       8.682 -16.462 -21.518  0.00  0.00    -0.056 N 
ATOM     13  H   ACI d   1       8.339 -15.576 -21.889  0.00  0.00     0.278 HD
ATOM     14  H   ACI d   1       8.237 -16.542 -20.604  0.00  0.00     0.278 HD
BRANCH  12  15
ATOM     15  C4A G6D d   1       8.355 -17.577 -22.382  0.00  0.00     0.154 C 
ATOM     16  C3A G6D d   1       7.269 -18.317 -21.615  0.00  0.00     0.094 C 
ATOM     17  C2  G6D d   1       6.785 -19.528 -22.406  0.00  0.00     0.110 C 
ATOM     18  H   ACI d   1       6.408 -17.664 -21.474  0.00  0.00     0.090 H 
ATOM     19  C1  G6D d   1       6.442 -19.132 -23.847  0.00  0.00     0.159 C 
ATOM     20  H   ACI d   1       7.559 -20.295 -22.451  0.00  0.00     0.094 H 
ATOM     21  O5  G6D d   1       7.509 -18.395 -24.472  0.00  0.00    -0.351 OA
ATOM     22  H   ACI d   1       6.319 -20.065 -24.397  0.00  0.00     0.133 H 
ATOM     23  C5A G6D d   1       7.831 -17.185 -23.765  0.00  0.00     0.068 C 
ATOM     24  H   ACI d   1       6.968 -16.536 -23.618  0.00  0.00     0.086 H 
ATOM     25  H   ACI d   1       9.251 -18.160 -22.595  0.00  0.00     0.092 H 
BRANCH  16  26
ATOM     26  O3A G6D d   1       7.769 -18.686 -20.327  0.00  0.00    -0.391 OA
ATOM     27  H   ACI d   1       8.063 -17.899 -19.862  0.00  0.00     0.210 HD
ENDBRANCH  16  26
BRANCH  17  28
ATOM     28  O2  G6D d   1       5.609 -19.999 -21.744  0.00  0.00    -0.388 OA
ATOM     29  H   ACI d   1       4.948 -19.303 -21.735  0.00  0.00     0.210 HD
ENDBRANCH  17  28
BRANCH  19  30
ATOM     30  O4  GLC d   1       5.201 -18.422 -23.939  0.00  0.00    -0.348 OA
BRANCH  30  31
ATOM     31  C4  GLC d   1       4.197 -19.171 -24.641  0.00  0.00     0.096 C 
ATOM     32  C3  GLC d   1       2.893 -19.255 -23.836  0.00  0.00     0.092 C 
ATOM     33  C2  GLC d   1       1.824 -20.034 -24.574  0.00  0.00     0.110 C 
ATOM     34  H   ACI d   1       2.520 -18.242 -23.687  0.00  0.00     0.091 H 
ATOM     35  C1  GLC d   1       1.643 -19.478 -26.011  0.00  0.00     0.159 C 
ATOM     36  H   ACI d   1       2.125 -21.080 -24.628  0.00  0.00     0.094 H 
ATOM     37  O5  GLC d   1       2.926 -19.381 -26.712  0.00  0.00    -0.348 OA
ATOM     38  H   ACI d   1       0.986 -20.168 -26.540  0.00  0.00     0.133 H 
ATOM     39  C5  GLC d   1       3.896 -18.563 -26.018  0.00  0.00     0.089 C 
ATOM     40  H   ACI d   1       3.535 -17.550 -25.837  0.00  0.00     0.090 H 
ATOM     41  H   ACI d   1       4.600 -20.175 -24.776  0.00  0.00     0.091 H 
BRANCH  32  42
ATOM     42  O3  GLC d   1       3.159 -19.880 -22.578  0.00  0.00    -0.390 OA
ATOM     43  H   ACI d   1       3.805 -19.360 -22.094  0.00  0.00     0.210 HD
ENDBRANCH  32  42
BRANCH  33  44
ATOM     44  O2  GLC d   1       0.582 -19.899 -23.874  0.00  0.00    -0.388 OA
ATOM     45  H   ACI d   1      -0.100 -20.391 -24.337  0.00  0.00     0.210 HD
ENDBRANCH  33  44
BRANCH  35  46
ATOM     46  O4  GLC d   1       1.100 -18.222 -25.968  0.00  0.00    -0.348 OA
BRANCH  46  47
ATOM     47  C4  GLC d   1      -0.163 -18.105 -26.646  0.00  0.00     0.096 C 
ATOM     48  C3  GLC d   1      -1.223 -17.527 -25.722  0.00  0.00     0.092 C 
ATOM     49  C2  GLC d   1      -2.546 -17.556 -26.482  0.00  0.00     0.110 C 
ATOM     50  H   ACI d   1      -0.959 -16.512 -25.425  0.00  0.00     0.091 H 
ATOM     51  C1  GLC d   1      -2.414 -16.775 -27.802  0.00  0.00     0.156 C 
ATOM     52  H   ACI d   1      -2.800 -18.592 -26.706  0.00  0.00     0.094 H 
ATOM     53  O5  GLC d   1      -1.329 -17.292 -28.603  0.00  0.00    -0.349 OA
ATOM     54  H   ACI d   1      -3.351 -16.876 -28.350  0.00  0.00     0.133 H 
ATOM     55  C5  GLC d   1      -0.061 -17.254 -27.916  0.00  0.00     0.089 C 
ATOM     56  H   ACI d   1       0.214 -16.244 -27.612  0.00  0.00     0.090 H 
ATOM     57  H   ACI d   1      -0.455 -19.113 -26.941  0.00  0.00     0.091 H 
BRANCH  48  58
ATOM     58  O3  GLC d   1      -1.335 -18.320 -24.548  0.00  0.00    -0.390 OA
ATOM     59  H   ACI d   1      -0.491 -18.333 -24.090  0.00  0.00     0.210 HD
ENDBRANCH  48  58
BRANCH  49  60
ATOM     60  O2  GLC d   1      -3.575 -16.989 -25.688  0.00  0.00    -0.388 OA
ATOM     61  H   ACI d   1      -3.351 -16.079 -25.478  0.00  0.00     0.210 HD
ENDBRANCH  49  60
BRANCH  51  62
ATOM     62  O1  GLC d   1      -2.138 -15.448 -27.521  0.00  0.00    -0.369 OA
ATOM     63  H   ACI d   1      -2.066 -14.956 -28.342  0.00  0.00     0.212 HD
ENDBRANCH  51  62
BRANCH  55  64
ATOM     64  C6  GLC d   1       0.992 -17.784 -28.878  0.00  0.00     0.043 C 
ATOM     65  H   ACI d   1       0.692 -17.532 -29.895  0.00  0.00     0.078 H 
ATOM     66  H   ACI d   1       1.072 -18.863 -28.747  0.00  0.00     0.078 H 
BRANCH  64  67
ATOM     67  O6  GLC d   1       2.259 -17.202 -28.622  0.00  0.00    -0.398 OA
ATOM     68  H   ACI d   1       2.530 -17.410 -27.725  0.00  0.00     0.209 HD
ENDBRANCH  64  67
ENDBRANCH  55  64
ENDBRANCH  46  47
ENDBRANCH  35  46
BRANCH  39  69
ATOM     69  C6  GLC d   1       5.133 -18.533 -26.913  0.00  0.00     0.043 C 
ATOM     70  H   ACI d   1       5.954 -18.073 -26.363  0.00  0.00     0.078 H 
ATOM     71  H   ACI d   1       4.902 -17.962 -27.812  0.00  0.00     0.078 H 
BRANCH  69  72
ATOM     72  O6  GLC d   1       5.517 -19.858 -27.293  0.00  0.00    -0.398 OA
ATOM     73  H   ACI d   1       4.797 -20.273 -27.773  0.00  0.00     0.209 HD
ENDBRANCH  69  72
ENDBRANCH  39  69
ENDBRANCH  30  31
ENDBRANCH  19  30
BRANCH  23  74
ATOM     74  C6A G6D d   1       8.854 -16.410 -24.601  0.00  0.00    -0.050 C 
ATOM     75  H   ACI d   1       9.127 -15.492 -24.080  0.00  0.00     0.031 H 
ATOM     76  H   ACI d   1       9.742 -17.025 -24.747  0.00  0.00     0.031 H 
ATOM     77  H   ACI d   1       8.418 -16.163 -25.569  0.00  0.00     0.031 H 
ENDBRANCH  23  74
ENDBRANCH  12  15
ENDBRANCH   1  12
BRANCH   2  78
ATOM     78  O2  ACI d   1      10.351 -14.153 -20.663  0.00  0.00    -0.390 OA
ATOM     79  H   ACI d   1       9.696 -13.864 -21.303  0.00  0.00     0.210 HD
ENDBRANCH   2  78
BRANCH   3  80
ATOM     80  O3  ACI d   1      12.620 -14.075 -22.641  0.00  0.00    -0.390 OA
ATOM     81  H   ACI d   1      12.055 -13.306 -22.535  0.00  0.00     0.210 HD
ENDBRANCH   3  80
BRANCH   5  82
ATOM     82  C6  ACI d   1      13.058 -19.004 -21.697  0.00  0.00     0.039 C 
ATOM     83  H   ACI d   1      13.587 -19.134 -22.641  0.00  0.00     0.081 H 
ATOM     84  H   ACI d   1      12.421 -19.855 -21.457  0.00  0.00     0.081 H 
BRANCH  82  85
ATOM     85  O6  ACI d   1      14.033 -18.874 -20.658  0.00  0.00    -0.397 OA
ATOM     86  H   ACI d   1      14.566 -19.672 -20.619  0.00  0.00     0.209 HD
ENDBRANCH  82  85
ENDBRANCH   5  82
BRANCH   4  87
ATOM     87  O4  ACI d   1      12.625 -16.870 -24.018  0.00  0.00    -0.346 OA
BRANCH  87  88
ATOM     88  C1  GLC d   1      13.596 -16.249 -24.862  0.00  0.00     0.159 C 
ATOM     89  C2  GLC d   1      13.069 -16.071 -26.287  0.00  0.00     0.110 C 
ATOM     90  C3  GLC d   1      13.170 -17.366 -27.098  0.00  0.00     0.092 C 
ATOM     91  H   ACI d   1      13.686 -15.321 -26.782  0.00  0.00     0.094 H 
ATOM     92  C4  GLC d   1      14.577 -17.931 -26.980  0.00  0.00     0.096 C 
ATOM     93  H   ACI d   1      12.453 -18.091 -26.713  0.00  0.00     0.091 H 
ATOM     94  C5  GLC d   1      14.851 -18.186 -25.500  0.00  0.00     0.089 C 
ATOM     95  H   ACI d   1      15.305 -17.224 -27.378  0.00  0.00     0.091 H 
ATOM     96  O5  GLC d   1      14.859 -16.925 -24.796  0.00  0.00    -0.348 OA
ATOM     97  H   ACI d   1      14.064 -18.851 -25.145  0.00  0.00     0.090 H 
ATOM     98  H   ACI d   1      13.779 -15.242 -24.486  0.00  0.00     0.133 H 
BRANCH  89  99
ATOM     99  O2  GLC d   1      11.713 -15.640 -26.240  0.00  0.00    -0.388 OA
ATOM    100  H   ACI d   1      11.397 -15.483 -27.133  0.00  0.00     0.210 HD
ENDBRANCH  89  99
BRANCH  90 101
ATOM    101  O3  GLC d   1      12.884 -17.095 -28.461  0.00  0.00    -0.390 OA
ATOM    102  H   ACI d   1      12.947 -17.908 -28.968  0.00  0.00     0.210 HD
ENDBRANCH  90 101
BRANCH  92 103
ATOM    103  O4  GLC d   1      14.707 -19.130 -27.742  0.00  0.00    -0.348 OA
BRANCH 103 104
ATOM    104  C1  G6D d   1      15.855 -19.060 -28.594  0.00  0.00     0.159 C 
ATOM    105  C2  G6D d   1      15.467 -19.112 -30.075  0.00  0.00     0.110 C 
ATOM    106  C3A G6D d   1      14.915 -20.492 -30.423  0.00  0.00     0.094 C 
ATOM    107  H   ACI d   1      16.357 -18.901 -30.668  0.00  0.00     0.094 H 
ATOM    108  C4A G6D d   1      15.883 -21.594 -30.001  0.00  0.00     0.154 C 
ATOM    109  H   ACI d   1      13.982 -20.606 -29.871  0.00  0.00     0.090 H 
ATOM    110  C5A G6D d   1      16.220 -21.402 -28.519  0.00  0.00     0.068 C 
ATOM    111  H   ACI d   1      16.821 -21.633 -30.555  0.00  0.00     0.092 H 
ATOM    112  O5  G6D d   1      16.787 -20.106 -28.273  0.00  0.00    -0.351 OA
ATOM    113  H   ACI d   1      15.280 -21.484 -27.973  0.00  0.00     0.086 H 
ATOM    114  H   ACI d   1      16.338 -18.099 -28.418  0.00  0.00     0.133 H 
BRANCH 105 115
ATOM    115  O2  G6D d   1      14.449 -18.146 -30.351  0.00  0.00    -0.388 OA
ATOM    116  H   ACI d   1      13.675 -18.336 -29.815  0.00  0.00     0.210 HD
ENDBRANCH 105 115
BRANCH 106 117
ATOM    117  O3A G6D d   1      14.633 -20.613 -31.819  0.00  0.00    -0.391 OA
ATOM    118  H   ACI d   1      13.982 -19.954 -32.071  0.00  0.00     0.210 HD
ENDBRANCH 106 117
BRANCH 108 119
ATOM    119  N1  ACI d   1      15.038 -22.761 -30.147  0.00  0.00    -0.056 N 
ATOM    120  H   ACI d   1      14.973 -23.166 -29.213  0.00  0.00     0.278 HD
ATOM    121  H   ACI d   1      14.181 -22.421 -30.584  0.00  0.00     0.278 HD
BRANCH 119 122
ATOM    122  C1  ACI d   1      15.508 -23.849 -31.009  0.00  0.00     0.146 C 
ATOM    123  C2  ACI d   1      14.464 -24.829 -31.513  0.00  0.00     0.093 C 
ATOM    124  C3  ACI d   1      15.079 -26.207 -31.302  0.00  0.00     0.091 C 
ATOM    125  H   ACI d   1      14.220 -24.774 -32.574  0.00  0.00     0.090 H 
ATOM    126  C4  ACI d   1      16.308 -26.342 -32.208  0.00  0.00     0.086 C 
ATOM    127  H   ACI d   1      15.425 -26.333 -30.276  0.00  0.00     0.091 H 
ATOM    128  C5  ACI d   1      17.106 -25.045 -32.460  0.00  0.00    -0.027 C 
ATOM    129  H   ACI d   1      15.920 -26.604 -33.192  0.00  0.00     0.094 H 
ATOM    130  C7  ACI d   1      16.727 -23.819 -31.936  0.00  0.00    -0.064 C 
ATOM    131  H   ACI d   1      17.260 -22.897 -32.168  0.00  0.00     0.080 H 
ATOM    132  H   ACI d   1      16.053 -24.148 -30.114  0.00  0.00     0.095 H 
BRANCH 123 133
ATOM    133  O2  ACI d   1      13.190 -24.523 -30.939  0.00  0.00    -0.390 OA
ATOM    134  H   ACI d   1      13.240 -24.613 -29.985  0.00  0.00     0.210 HD
ENDBRANCH 123 133
BRANCH 124 135
ATOM    135  O3  ACI d   1      14.091 -27.221 -31.501  0.00  0.00    -0.390 OA
ATOM    136  H   ACI d   1      13.778 -27.188 -32.408  0.00  0.00     0.210 HD
ENDBRANCH 124 135
BRANCH 126 137
ATOM    137  O4  ACI d   1      17.158 -27.368 -31.695  0.00  0.00    -0.388 OA
ATOM    138  H   ACI d   1      17.546 -27.076 -30.866  0.00  0.00     0.210 HD
ENDBRANCH 126 137
BRANCH 128 139
ATOM    139  C6  ACI d   1      18.319 -25.130 -33.395  0.00  0.00     0.039 C 
ATOM    140  H   ACI d   1      17.935 -25.128 -34.415  0.00  0.00     0.081 H 
ATOM    141  H   ACI d   1      18.870 -26.029 -33.120  0.00  0.00     0.081 H 
BRANCH 139 142
ATOM    142  O6  ACI d   1      19.230 -24.033 -33.289  0.00  0.00    -0.397 OA
ATOM    143  H   ACI d   1      19.571 -23.987 -32.393  0.00  0.00     0.209 HD
ENDBRANCH 139 142
ENDBRANCH 128 139
ENDBRANCH 119 122
ENDBRANCH 108 119
BRANCH 110 144
ATOM    144  C6A G6D d   1      17.175 -22.484 -28.012  0.00  0.00    -0.050 C 
ATOM    145  H   ACI d   1      16.712 -23.463 -28.135  0.00  0.00     0.031 H 
ATOM    146  H   ACI d   1      18.102 -22.445 -28.584  0.00  0.00     0.031 H 
ATOM    147  H   ACI d   1      17.389 -22.312 -26.957  0.00  0.00     0.031 H 
ENDBRANCH 110 144
ENDBRANCH 103 104
ENDBRANCH  92 103
BRANCH  94 148
ATOM    148  C6  GLC d   1      16.187 -18.855 -25.253  0.00  0.00     0.043 C 
ATOM    149  H   ACI d   1      16.206 -19.805 -25.788  0.00  0.00     0.078 H 
ATOM    150  H   ACI d   1      16.308 -19.007 -24.180  0.00  0.00     0.078 H 
BRANCH 148 151
ATOM    151  O6  GLC d   1      17.255 -18.048 -25.721  0.00  0.00    -0.398 OA
ATOM    152  H   ACI d   1      17.243 -17.205 -25.262  0.00  0.00     0.209 HD
ENDBRANCH 148 151
ENDBRANCH  94 148
ENDBRANCH  87  88
ENDBRANCH   4  87
TORSDOF 40
