REMARK  7 active torsions:
REMARK  status: ('A' for Active; 'I' for Inactive)
REMARK    1  A    between atoms: C7_7  and  N1_1 
REMARK    2  A    between atoms: C2_2  and  C14_14 
REMARK    3  A    between atoms: C6_6  and  C7_7 
REMARK       I    between atoms: N9_9  and  C6_6 
REMARK    4  A    between atoms: C7_7  and  C23_23 
REMARK    5  A    between atoms: C12_12  and  N9_9 
REMARK    6  A    between atoms: C16_16  and  C13_13 
REMARK    7  A    between atoms: C18_18  and  C33_33 
ROOT
ATOM      1  C7  OLF d   1      13.263  23.167   4.209  0.00  0.00     0.099 C 
ATOM      2  H1  OLF d   1      14.210  22.835   3.757  0.00  0.00     0.089 H 
ENDROOT
BRANCH   1   3
ATOM      3  N1  OLF d   1      12.923  24.367   3.429  0.00  0.00    -0.315 N 
ATOM      4  C2  OLF d   1      13.790  25.059   2.630  0.00  0.00     0.142 A 
ATOM      5  N3  OLF d   1      13.191  26.064   2.056  0.00  0.00    -0.228 NA
ATOM      6  C5  OLF d   1      11.895  26.053   2.433  0.00  0.00     0.089 A 
ATOM      7  C4  OLF d   1      11.705  24.970   3.319  0.00  0.00     0.069 A 
ATOM      8  C10 OLF d   1      10.811  26.877   2.123  0.00  0.00    -0.013 A 
ATOM      9  C8  OLF d   1      10.464  24.698   3.869  0.00  0.00    -0.014 A 
ATOM     10  C11 OLF d   1       9.409  25.534   3.558  0.00  0.00     0.157 A 
ATOM     11  H2  OLF d   1      10.323  23.849   4.528  0.00  0.00     0.092 H 
ATOM     12  C15 OLF d   1       9.588  26.596   2.690  0.00  0.00     0.157 A 
ATOM     13  F26 OLF d   1       8.192  25.339   4.100  0.00  0.00    -0.203 F 
ATOM     14  F27 OLF d   1       8.528  27.352   2.419  0.00  0.00    -0.203 F 
ATOM     15  H4  OLF d   1      10.930  27.719   1.451  0.00  0.00     0.092 H 
BRANCH   4  16
ATOM     16  C14 OLF d   1      15.195  24.685   2.471  0.00  0.00     0.010 A 
ATOM     17  C24 OLF d   1      16.193  25.472   3.054  0.00  0.00    -0.068 A 
ATOM     18  C30 OLF d   1      17.515  25.098   2.919  0.00  0.00    -0.061 A 
ATOM     19  H9  OLF d   1      15.931  26.367   3.607  0.00  0.00     0.085 H 
ATOM     20  C29 OLF d   1      17.853  23.935   2.242  0.00  0.00     0.034 A 
ATOM     21  H11 OLF d   1      18.295  25.718   3.345  0.00  0.00     0.086 H 
ATOM     22  C31 OLF d   1      16.855  23.124   1.698  0.00  0.00    -0.061 A 
ATOM     23 CL32 OLF d   1      19.531  23.481   2.106  0.00  0.00    -0.084 Cl
ATOM     24  C25 OLF d   1      15.526  23.499   1.803  0.00  0.00    -0.068 A 
ATOM     25  H12 OLF d   1      17.120  22.202   1.194  0.00  0.00     0.086 H 
ATOM     26  H10 OLF d   1      14.748  22.880   1.372  0.00  0.00     0.085 H 
ENDBRANCH   4  16
ENDBRANCH   1   3
BRANCH   1  27
ATOM     27  C6  OLF d   1      12.347  22.010   3.891  0.00  0.00     0.245 C 
ATOM     28  N9  OLF d   1      11.995  21.863   2.586  0.00  0.00    -0.325 N 
ATOM     29  H3  OLF d   1      12.355  22.526   1.930  0.00  0.00     0.169 HD
ATOM     30  O19 OLF d   1      11.928  21.255   4.752  0.00  0.00    -0.271 OA
BRANCH  28  31
ATOM     31  C12 OLF d   1      11.163  20.848   2.097  0.00  0.00     0.040 A 
ATOM     32  C18 OLF d   1      11.660  19.559   1.862  0.00  0.00    -0.034 A 
ATOM     33  C17 OLF d   1      10.797  18.569   1.386  0.00  0.00    -0.059 A 
ATOM     34  C16 OLF d   1       9.456  18.869   1.097  0.00  0.00     0.041 A 
ATOM     35  H5  OLF d   1      11.166  17.560   1.238  0.00  0.00     0.086 H 
ATOM     36  C22 OLF d   1       8.980  20.168   1.316  0.00  0.00    -0.064 A 
ATOM     37  C21 OLF d   1       9.823  21.150   1.807  0.00  0.00    -0.056 A 
ATOM     38  H7  OLF d   1       7.945  20.406   1.100  0.00  0.00     0.085 H 
ATOM     39  H6  OLF d   1       9.448  22.154   1.968  0.00  0.00     0.087 H 
BRANCH  32  40
ATOM     40  C33 OLF d   1      13.108  19.206   2.171  0.00  0.00    -0.049 C 
ATOM     41  H13 OLF d   1      13.635  20.102   2.532  0.00  0.00     0.033 H 
ATOM     42  H14 OLF d   1      13.598  18.836   1.258  0.00  0.00     0.033 H 
ATOM     43  H15 OLF d   1      13.138  18.426   2.946  0.00  0.00     0.033 H 
ENDBRANCH  32  40
BRANCH  34  44
ATOM     44  C13 OLF d   1       8.561  17.815   0.556  0.00  0.00     0.209 C 
ATOM     45  O20 OLF d   1       7.449  18.072   0.149  0.00  0.00    -0.644 OA
ATOM     46  O28 OLF d   1       8.982  16.538   0.513  0.00  0.00    -0.644 OA
ENDBRANCH  34  44
ENDBRANCH  28  31
ENDBRANCH   1  27
BRANCH   1  47
ATOM     47  C23 OLF d   1      13.703  23.456   5.657  0.00  0.00    -0.025 C 
ATOM     48  C34 OLF d   1      13.649  24.929   6.068  0.00  0.00    -0.059 C 
ATOM     49  C37 OLF d   1      14.460  25.135   7.362  0.00  0.00    -0.065 C 
ATOM     50  H16 OLF d   1      12.603  25.223   6.241  0.00  0.00     0.033 H 
ATOM     51  H17 OLF d   1      14.076  25.549   5.266  0.00  0.00     0.033 H 
ATOM     52  C38 OLF d   1      13.959  24.216   8.478  0.00  0.00    -0.065 C 
ATOM     53  H22 OLF d   1      14.360  26.181   7.686  0.00  0.00     0.033 H 
ATOM     54  H23 OLF d   1      15.519  24.913   7.162  0.00  0.00     0.033 H 
ATOM     55  C36 OLF d   1      13.919  22.744   8.057  0.00  0.00    -0.065 C 
ATOM     56  H24 OLF d   1      14.629  24.316   9.344  0.00  0.00     0.033 H 
ATOM     57  H25 OLF d   1      12.943  24.529   8.762  0.00  0.00     0.033 H 
ATOM     58  C35 OLF d   1      13.148  22.542   6.745  0.00  0.00    -0.059 C 
ATOM     59  H20 OLF d   1      14.950  22.385   7.922  0.00  0.00     0.033 H 
ATOM     60  H21 OLF d   1      13.429  22.161   8.851  0.00  0.00     0.033 H 
ATOM     61  H18 OLF d   1      13.247  21.495   6.424  0.00  0.00     0.033 H 
ATOM     62  H19 OLF d   1      12.086  22.777   6.909  0.00  0.00     0.033 H 
ATOM     63  H8  OLF d   1      14.777  23.221   5.643  0.00  0.00     0.043 H 
ENDBRANCH   1  47
TORSDOF 7
