REMARK WARNING: 32 MAX_TORS EXCEEDED!!!
REMARK  40 active torsions:
REMARK  status: ('A' for Active; 'I' for Inactive)
REMARK    1  A    between atoms: N1_1  and  C1_2 
REMARK    2  A    between atoms: C4A_18  and  N1_1 
REMARK    3  A    between atoms: C3_4  and  C4_5 
REMARK    4  A    between atoms: C4_5  and  O1_6 
REMARK    5  A    between atoms: C5_7  and  O2_8 
REMARK    6  A    between atoms: C6_9  and  O3_10 
REMARK    7  A    between atoms: C7_11  and  O4_12 
REMARK    8  A    between atoms: O4_30  and  C1_13 
REMARK    9  A    between atoms: C2_15  and  O2_14 
REMARK   10  A    between atoms: C3A_16  and  O3A_17 
REMARK   11  A    between atoms: C5A_19  and  C6A_21 
REMARK   12  A    between atoms: O2_40  and  C1_22 
REMARK   13  A    between atoms: C2_23  and  O2_28 
REMARK   14  A    between atoms: C3_24  and  O3_29 
REMARK   15  A    between atoms: C4_25  and  O4_30 
REMARK   16  A    between atoms: C5_26  and  C6_27 
REMARK   17  A    between atoms: C6_27  and  O6_32 
REMARK   18  A    between atoms: N1_33  and  C1_34 
REMARK   19  A    between atoms: C4A_50  and  N1_33 
REMARK   20  A    between atoms: C3_36  and  C4_37 
REMARK   21  A    between atoms: C4_37  and  O1_38 
REMARK   22  A    between atoms: C5_39  and  O2_40 
REMARK   23  A    between atoms: C6_41  and  O3_42 
REMARK   24  A    between atoms: C7_43  and  O4_44 
REMARK   25  A    between atoms: O4_62  and  C1_45 
REMARK   26  A    between atoms: C2_47  and  O2_46 
REMARK   27  A    between atoms: C3A_48  and  O3A_49 
REMARK   28  A    between atoms: C5A_51  and  C6A_53 
REMARK   29  A    between atoms: O4_74  and  C1_54 
REMARK   30  A    between atoms: C2_55  and  O2_60 
REMARK   31  A    between atoms: C3_56  and  O3_61 
REMARK   32  A    between atoms: C4_57  and  O4_62 
REMARK   33  A    between atoms: C5_58  and  C6_59 
REMARK   34  A    between atoms: C6_59  and  O6_64 
REMARK   35  A    between atoms: C2_65  and  O2_72 
REMARK   36  A    between atoms: C3_66  and  O3_73 
REMARK   37  A    between atoms: C4_67  and  O4_74 
REMARK   38  A    between atoms: C5_68  and  C6_69 
REMARK   39  A    between atoms: C6_69  and  O6_76 
REMARK   40  A    between atoms: C1_70  and  O1_71 
ROOT
ATOM      1  C1  HSD d   1      -7.601  -9.088  19.181  0.00  0.00     0.146 C 
ATOM      2  C2  HSD d   1      -6.968  -7.947  18.390  0.00  0.00    -0.064 C 
ATOM      3  C3  HSD d   1      -5.693  -7.598  18.821  0.00  0.00    -0.027 C 
ATOM      4  C5  HSD d   1      -4.980  -8.295  19.991  0.00  0.00     0.092 C 
ATOM      5  C6  HSD d   1      -5.629  -9.596  20.487  0.00  0.00     0.091 C 
ATOM      6  C7  HSD d   1      -6.573 -10.182  19.439  0.00  0.00     0.093 C 
ATOM      7  H   HSD d   1      -7.895  -8.866  20.207  0.00  0.00     0.095 H 
ATOM      8  H   HSD d   1      -7.471  -7.450  17.561  0.00  0.00     0.080 H 
ATOM      9  H   HSD d   1      -4.000  -8.565  19.597  0.00  0.00     0.095 H 
ATOM     10  H   HSD d   1      -6.220  -9.332  21.364  0.00  0.00     0.091 H 
ATOM     11  H   HSD d   1      -5.962 -10.446  18.576  0.00  0.00     0.090 H 
ENDROOT
BRANCH   1  12
ATOM     12  N1  HSD d   1      -9.061  -9.237  19.206  0.00  0.00    -0.056 N 
ATOM     13  H   HSD d   1      -9.358  -9.895  19.926  0.00  0.00     0.278 HD
ATOM     14  H   HSD d   1      -9.414  -9.619  18.329  0.00  0.00     0.278 HD
BRANCH  12  15
ATOM     15  C4A G6D d   1      -9.579  -7.905  19.454  0.00  0.00     0.154 C 
ATOM     16  C3A G6D d   1     -10.762  -7.569  18.548  0.00  0.00     0.094 C 
ATOM     17  C2  G6D d   1     -11.185  -6.121  18.803  0.00  0.00     0.110 C 
ATOM     18  H   HSD d   1     -11.604  -8.229  18.757  0.00  0.00     0.090 H 
ATOM     19  C1  G6D d   1     -11.367  -5.858  20.300  0.00  0.00     0.159 C 
ATOM     20  H   HSD d   1     -10.402  -5.459  18.432  0.00  0.00     0.094 H 
ATOM     21  O5  G6D d   1     -10.188  -6.218  21.038  0.00  0.00    -0.351 OA
ATOM     22  H   HSD d   1     -11.541  -4.789  20.423  0.00  0.00     0.133 H 
ATOM     23  C5A G6D d   1      -9.891  -7.619  20.925  0.00  0.00     0.068 C 
ATOM     24  H   HSD d   1     -10.726  -8.242  21.247  0.00  0.00     0.086 H 
ATOM     25  H   HSD d   1      -8.762  -7.232  19.195  0.00  0.00     0.092 H 
BRANCH  16  26
ATOM     26  O3A G6D d   1     -10.363  -7.736  17.185  0.00  0.00    -0.391 OA
ATOM     27  H   HSD d   1     -11.099  -7.517  16.608  0.00  0.00     0.210 HD
ENDBRANCH  16  26
BRANCH  17  28
ATOM     28  O2  G6D d   1     -12.413  -5.860  18.117  0.00  0.00    -0.388 OA
ATOM     29  H   HSD d   1     -13.099  -6.436  18.462  0.00  0.00     0.210 HD
ENDBRANCH  17  28
BRANCH  19  30
ATOM     30  O4  GLC d   1     -12.497  -6.569  20.813  0.00  0.00    -0.348 OA
BRANCH  30  31
ATOM     31  C4  GLC d   1     -13.567  -5.676  21.106  0.00  0.00     0.096 C 
ATOM     32  C3  GLC d   1     -14.848  -6.144  20.418  0.00  0.00     0.092 C 
ATOM     33  C2  GLC d   1     -16.050  -5.268  20.819  0.00  0.00     0.110 C 
ATOM     34  H   HSD d   1     -15.052  -7.168  20.731  0.00  0.00     0.091 H 
ATOM     35  C1  GLC d   1     -16.127  -5.013  22.338  0.00  0.00     0.159 C 
ATOM     36  H   HSD d   1     -15.922  -4.302  20.330  0.00  0.00     0.094 H 
ATOM     37  O5  GLC d   1     -14.848  -4.659  22.889  0.00  0.00    -0.348 OA
ATOM     38  H   HSD d   1     -16.814  -4.180  22.487  0.00  0.00     0.133 H 
ATOM     39  C5  GLC d   1     -13.830  -5.635  22.610  0.00  0.00     0.089 C 
ATOM     40  H   HSD d   1     -14.128  -6.649  22.877  0.00  0.00     0.090 H 
ATOM     41  H   HSD d   1     -13.284  -4.686  20.747  0.00  0.00     0.091 H 
BRANCH  32  42
ATOM     42  O3  GLC d   1     -14.671  -6.082  19.013  0.00  0.00    -0.390 OA
ATOM     43  H   HSD d   1     -13.941  -6.651  18.758  0.00  0.00     0.210 HD
ENDBRANCH  32  42
BRANCH  33  44
ATOM     44  O2  GLC d   1     -17.251  -5.908  20.402  0.00  0.00    -0.388 OA
ATOM     45  H   HSD d   1     -18.004  -5.366  20.650  0.00  0.00     0.210 HD
ENDBRANCH  33  44
BRANCH  35  46
ATOM     46  O4  BGC d   1     -16.587  -6.140  22.986  0.00  0.00    -0.348 OA
BRANCH  46  47
ATOM     47  C4  BGC d   1     -17.702  -5.972  23.881  0.00  0.00     0.096 C 
ATOM     48  C3  BGC d   1     -18.798  -6.983  23.463  0.00  0.00     0.092 C 
ATOM     49  C2  BGC d   1     -19.769  -7.268  24.600  0.00  0.00     0.110 C 
ATOM     50  H   HSD d   1     -18.304  -7.920  23.207  0.00  0.00     0.091 H 
ATOM     51  C1  BGC d   1     -18.916  -7.734  25.763  0.00  0.00     0.156 C 
ATOM     52  H   HSD d   1     -20.351  -6.382  24.856  0.00  0.00     0.094 H 
ATOM     53  O5  BGC d   1     -18.198  -6.603  26.255  0.00  0.00    -0.349 OA
ATOM     54  H   HSD d   1     -18.239  -8.519  25.425  0.00  0.00     0.133 H 
ATOM     55  C5  BGC d   1     -17.171  -6.153  25.337  0.00  0.00     0.089 C 
ATOM     56  H   HSD d   1     -16.383  -6.902  25.253  0.00  0.00     0.090 H 
ATOM     57  H   HSD d   1     -18.157  -4.982  23.835  0.00  0.00     0.091 H 
BRANCH  48  58
ATOM     58  O3  BGC d   1     -19.505  -6.492  22.332  0.00  0.00    -0.390 OA
ATOM     59  H   HSD d   1     -18.893  -6.368  21.603  0.00  0.00     0.210 HD
ENDBRANCH  48  58
BRANCH  49  60
ATOM     60  O2  BGC d   1     -20.702  -8.275  24.231  0.00  0.00    -0.388 OA
ATOM     61  H   HSD d   1     -21.273  -8.470  24.978  0.00  0.00     0.210 HD
ENDBRANCH  49  60
BRANCH  51  62
ATOM     62  O1  BGC d   1     -19.700  -8.254  26.781  0.00  0.00    -0.369 OA
ATOM     63  H   HSD d   1     -20.184  -9.015  26.453  0.00  0.00     0.212 HD
ENDBRANCH  51  62
BRANCH  55  64
ATOM     64  C6  BGC d   1     -16.640  -4.851  25.905  0.00  0.00     0.043 C 
ATOM     65  H   HSD d   1     -17.397  -4.424  26.563  0.00  0.00     0.078 H 
ATOM     66  H   HSD d   1     -16.412  -4.178  25.078  0.00  0.00     0.078 H 
BRANCH  64  67
ATOM     67  O6  BGC d   1     -15.455  -5.064  26.656  0.00  0.00    -0.398 OA
ATOM     68  H   HSD d   1     -15.142  -4.225  27.003  0.00  0.00     0.209 HD
ENDBRANCH  64  67
ENDBRANCH  55  64
ENDBRANCH  46  47
ENDBRANCH  35  46
BRANCH  39  69
ATOM     69  C6  GLC d   1     -12.625  -5.279  23.452  0.00  0.00     0.043 C 
ATOM     70  H   HSD d   1     -11.819  -5.976  23.222  0.00  0.00     0.078 H 
ATOM     71  H   HSD d   1     -12.903  -5.339  24.504  0.00  0.00     0.078 H 
BRANCH  69  72
ATOM     72  O6  GLC d   1     -12.183  -3.963  23.172  0.00  0.00    -0.398 OA
ATOM     73  H   HSD d   1     -12.889  -3.342  23.365  0.00  0.00     0.209 HD
ENDBRANCH  69  72
ENDBRANCH  39  69
ENDBRANCH  30  31
ENDBRANCH  19  30
BRANCH  23  74
ATOM     74  C6A G6D d   1      -8.681  -7.925  21.809  0.00  0.00    -0.050 C 
ATOM     75  H   HSD d   1      -8.413  -8.976  21.705  0.00  0.00     0.031 H 
ATOM     76  H   HSD d   1      -7.841  -7.303  21.501  0.00  0.00     0.031 H 
ATOM     77  H   HSD d   1      -8.930  -7.713  22.849  0.00  0.00     0.031 H 
ENDBRANCH  23  74
ENDBRANCH  12  15
ENDBRANCH   1  12
BRANCH   6  78
ATOM     78  O4  HSD d   1      -7.165 -11.468  19.650  0.00  0.00    -0.390 OA
ATOM     79  H   HSD d   1      -7.691 -11.449  20.453  0.00  0.00     0.210 HD
ENDBRANCH   6  78
BRANCH   3  80
ATOM     80  C4  HSD d   1      -4.983  -6.459  18.090  0.00  0.00     0.039 C 
ATOM     81  H   HSD d   1      -4.620  -5.734  18.819  0.00  0.00     0.081 H 
ATOM     82  H   HSD d   1      -5.683  -5.977  17.407  0.00  0.00     0.081 H 
BRANCH  80  83
ATOM     83  O1  HSD d   1      -3.877  -6.976  17.346  0.00  0.00    -0.397 OA
ATOM     84  H   HSD d   1      -3.436  -6.256  16.889  0.00  0.00     0.209 HD
ENDBRANCH  80  83
ENDBRANCH   3  80
BRANCH   5  85
ATOM     85  O3  HSD d   1      -4.669 -10.562  20.920  0.00  0.00    -0.390 OA
ATOM     86  H   HSD d   1      -5.125 -11.352  21.219  0.00  0.00     0.210 HD
ENDBRANCH   5  85
BRANCH   4  87
ATOM     87  O2  HSD d   1      -4.921  -7.399  21.104  0.00  0.00    -0.346 OA
BRANCH  87  88
ATOM     88  C1  GLC d   1      -3.830  -7.469  22.023  0.00  0.00     0.159 C 
ATOM     89  C2  GLC d   1      -4.280  -7.010  23.420  0.00  0.00     0.110 C 
ATOM     90  C3  GLC d   1      -4.312  -5.486  23.547  0.00  0.00     0.092 C 
ATOM     91  H   HSD d   1      -3.557  -7.386  24.144  0.00  0.00     0.094 H 
ATOM     92  C4  GLC d   1      -2.971  -4.943  23.073  0.00  0.00     0.096 C 
ATOM     93  H   HSD d   1      -5.117  -5.063  22.945  0.00  0.00     0.091 H 
ATOM     94  C5  GLC d   1      -2.782  -5.353  21.593  0.00  0.00     0.089 C 
ATOM     95  H   HSD d   1      -2.169  -5.364  23.679  0.00  0.00     0.091 H 
ATOM     96  O5  GLC d   1      -2.666  -6.792  21.528  0.00  0.00    -0.348 OA
ATOM     97  H   HSD d   1      -3.649  -4.954  21.066  0.00  0.00     0.090 H 
ATOM     98  H   HSD d   1      -3.519  -8.509  22.125  0.00  0.00     0.133 H 
BRANCH  89  99
ATOM     99  O2  GLC d   1      -5.574  -7.525  23.678  0.00  0.00    -0.388 OA
ATOM    100  H   HSD d   1      -5.843  -7.280  24.566  0.00  0.00     0.210 HD
ENDBRANCH  89  99
BRANCH  90 101
ATOM    101  O3  GLC d   1      -4.520  -5.141  24.910  0.00  0.00    -0.390 OA
ATOM    102  H   HSD d   1      -4.515  -4.185  25.001  0.00  0.00     0.210 HD
ENDBRANCH  90 101
BRANCH  92 103
ATOM    103  O4  GLC d   1      -2.898  -3.531  23.230  0.00  0.00    -0.348 OA
BRANCH 103 104
ATOM    104  C1  G6D d   1      -1.686  -3.148  23.885  0.00  0.00     0.159 C 
ATOM    105  C2  G6D d   1      -2.052  -2.611  25.269  0.00  0.00     0.110 C 
ATOM    106  C3A G6D d   1      -3.076  -1.479  25.199  0.00  0.00     0.094 C 
ATOM    107  H   HSD d   1      -1.158  -2.204  25.742  0.00  0.00     0.094 H 
ATOM    108  C4A G6D d   1      -2.749  -0.521  24.056  0.00  0.00     0.154 C 
ATOM    109  H   HSD d   1      -4.086  -1.852  25.027  0.00  0.00     0.090 H 
ATOM    110  C5A G6D d   1      -2.057  -1.092  22.802  0.00  0.00     0.068 C 
ATOM    111  H   HSD d   1      -1.938   0.027  24.536  0.00  0.00     0.092 H 
ATOM    112  O5  G6D d   1      -1.071  -2.056  23.190  0.00  0.00    -0.351 OA
ATOM    113  H   HSD d   1      -2.810  -1.522  22.142  0.00  0.00     0.086 H 
ATOM    114  H   HSD d   1      -1.017  -4.008  23.924  0.00  0.00     0.133 H 
BRANCH 105 115
ATOM    115  O2  G6D d   1      -2.606  -3.699  26.007  0.00  0.00    -0.388 OA
ATOM    116  H   HSD d   1      -3.386  -4.028  25.553  0.00  0.00     0.210 HD
ENDBRANCH 105 115
BRANCH 106 117
ATOM    117  O3A G6D d   1      -2.924  -0.793  26.447  0.00  0.00    -0.391 OA
ATOM    118  H   HSD d   1      -3.540  -0.058  26.484  0.00  0.00     0.210 HD
ENDBRANCH 106 117
BRANCH 108 119
ATOM    119  N1  HSD d   1      -3.759   0.470  23.753  0.00  0.00    -0.056 N 
ATOM    120  H   HSD d   1      -4.045   0.404  22.776  0.00  0.00     0.278 HD
ATOM    121  H   HSD d   1      -4.592   0.319  24.322  0.00  0.00     0.278 HD
BRANCH 119 122
ATOM    122  C1  HSD d   1      -3.173   1.789  24.033  0.00  0.00     0.146 C 
ATOM    123  C2  HSD d   1      -2.114   1.956  25.109  0.00  0.00    -0.064 C 
ATOM    124  C3  HSD d   1      -1.426   3.168  25.150  0.00  0.00    -0.027 C 
ATOM    125  H   HSD d   1      -1.900   1.159  25.821  0.00  0.00     0.080 H 
ATOM    126  C5  HSD d   1      -1.784   4.423  24.356  0.00  0.00     0.086 C 
ATOM    127  C6  HSD d   1      -2.892   4.168  23.324  0.00  0.00     0.091 C 
ATOM    128  H   HSD d   1      -2.229   5.208  24.967  0.00  0.00     0.094 H 
ATOM    129  C7  HSD d   1      -3.844   3.148  23.927  0.00  0.00     0.093 C 
ATOM    130  H   HSD d   1      -2.414   3.799  22.416  0.00  0.00     0.091 H 
ATOM    131  H   HSD d   1      -4.010   3.643  24.884  0.00  0.00     0.090 H 
ATOM    132  H   HSD d   1      -2.850   1.547  23.021  0.00  0.00     0.095 H 
BRANCH 124 133
ATOM    133  C4  HSD d   1      -0.366   3.363  26.231  0.00  0.00     0.039 C 
ATOM    134  H   HSD d   1      -0.088   2.361  26.559  0.00  0.00     0.081 H 
ATOM    135  H   HSD d   1      -0.817   4.021  26.974  0.00  0.00     0.081 H 
BRANCH 133 136
ATOM    136  O1  HSD d   1       0.856   3.998  25.837  0.00  0.00    -0.397 OA
ATOM    137  H   HSD d   1       0.665   4.877  25.501  0.00  0.00     0.209 HD
ENDBRANCH 133 136
ENDBRANCH 124 133
BRANCH 126 138
ATOM    138  O2  HSD d   1      -0.538   4.861  23.817  0.00  0.00    -0.388 OA
ATOM    139  H   HSD d   1       0.071   5.049  24.535  0.00  0.00     0.210 HD
ENDBRANCH 126 138
BRANCH 127 140
ATOM    140  O3  HSD d   1      -3.598   5.331  22.873  0.00  0.00    -0.390 OA
ATOM    141  H   HSD d   1      -4.266   5.071  22.234  0.00  0.00     0.210 HD
ENDBRANCH 127 140
BRANCH 129 142
ATOM    142  O4  HSD d   1      -5.236   3.059  23.605  0.00  0.00    -0.390 OA
ATOM    143  H   HSD d   1      -5.634   2.343  24.106  0.00  0.00     0.210 HD
ENDBRANCH 129 142
ENDBRANCH 119 122
ENDBRANCH 108 119
BRANCH 110 144
ATOM    144  C6A G6D d   1      -1.249   0.040  22.176  0.00  0.00    -0.050 C 
ATOM    145  H   HSD d   1      -1.919   0.857  21.906  0.00  0.00     0.031 H 
ATOM    146  H   HSD d   1      -0.510   0.397  22.893  0.00  0.00     0.031 H 
ATOM    147  H   HSD d   1      -0.743  -0.327  21.283  0.00  0.00     0.031 H 
ENDBRANCH 110 144
ENDBRANCH 103 104
ENDBRANCH  92 103
BRANCH  94 148
ATOM    148  C6  GLC d   1      -1.540  -4.782  20.920  0.00  0.00     0.043 C 
ATOM    149  H   HSD d   1      -1.630  -3.696  20.882  0.00  0.00     0.078 H 
ATOM    150  H   HSD d   1      -1.461  -5.202  19.917  0.00  0.00     0.078 H 
BRANCH 148 151
ATOM    151  O6  GLC d   1      -0.368  -5.117  21.649  0.00  0.00    -0.398 OA
ATOM    152  H   HSD d   1      -0.283  -6.072  21.695  0.00  0.00     0.209 HD
ENDBRANCH 148 151
ENDBRANCH  94 148
ENDBRANCH  87  88
ENDBRANCH   4  87
TORSDOF 40
