REMARK WARNING: 32 MAX_TORS EXCEEDED!!!
REMARK  39 active torsions:
REMARK  status: ('A' for Active; 'I' for Inactive)
REMARK    1  A    between atoms: N1_1  and  C1_2 
REMARK    2  A    between atoms: C4A_18  and  N1_1 
REMARK    3  A    between atoms: C3_4  and  C4_5 
REMARK    4  A    between atoms: C4_5  and  O1_6 
REMARK    5  A    between atoms: C5_7  and  O2_8 
REMARK    6  A    between atoms: C6_9  and  O3_10 
REMARK    7  A    between atoms: C7_11  and  O4_12 
REMARK    8  A    between atoms: O4_30  and  C1_13 
REMARK    9  A    between atoms: C2_15  and  O2_14 
REMARK   10  A    between atoms: C3A_16  and  O3A_17 
REMARK   11  A    between atoms: C5A_19  and  C6A_21 
REMARK   12  A    between atoms: O2_40  and  C1_22 
REMARK   13  A    between atoms: C2_23  and  O2_28 
REMARK   14  A    between atoms: C3_24  and  O3_29 
REMARK   15  A    between atoms: C4_25  and  O4_30 
REMARK   16  A    between atoms: C5_26  and  C6_27 
REMARK   17  A    between atoms: C6_27  and  O6_32 
REMARK   18  A    between atoms: N1_33  and  C1_34 
REMARK   19  A    between atoms: C4A_50  and  N1_33 
REMARK   20  A    between atoms: C3_36  and  C4_37 
REMARK   21  A    between atoms: C4_37  and  O1_38 
REMARK   22  A    between atoms: C5_39  and  O2_40 
REMARK   23  A    between atoms: C6_41  and  O3_42 
REMARK   24  A    between atoms: C7_43  and  O4_44 
REMARK   25  A    between atoms: O4_62  and  C1_45 
REMARK   26  A    between atoms: C2_47  and  O2_46 
REMARK   27  A    between atoms: C3A_48  and  O3A_49 
REMARK   28  A    between atoms: C5A_51  and  C6A_53 
REMARK   29  A    between atoms: O4_74  and  C1_54 
REMARK   30  A    between atoms: C2_55  and  O2_60 
REMARK   31  A    between atoms: C3_56  and  O3_61 
REMARK   32  A    between atoms: C4_57  and  O4_62 
REMARK   33  A    between atoms: C5_58  and  C6_59 
REMARK   34  A    between atoms: C6_59  and  O6_64 
REMARK   35  A    between atoms: C2_66  and  O2_72 
REMARK   36  A    between atoms: C3_67  and  O3_73 
REMARK   37  A    between atoms: C4_68  and  O4_74 
REMARK   38  A    between atoms: C5_69  and  C6_70 
REMARK   39  A    between atoms: C6_70  and  O6_76 
ROOT
ATOM      1  C1  NON d   1      -7.775  -9.170  19.187  0.00  0.00     0.146 C 
ATOM      2  C2  NON d   1      -7.152  -8.027  18.385  0.00  0.00    -0.064 C 
ATOM      3  C3  NON d   1      -5.853  -7.768  18.796  0.00  0.00    -0.027 C 
ATOM      4  C5  NON d   1      -5.191  -8.465  20.003  0.00  0.00     0.092 C 
ATOM      5  C6  NON d   1      -5.912  -9.727  20.494  0.00  0.00     0.091 C 
ATOM      6  C7  NON d   1      -6.759 -10.298  19.365  0.00  0.00     0.093 C 
ATOM      7  H   NON d   1      -8.097  -8.977  20.210  0.00  0.00     0.095 H 
ATOM      8  H   NON d   1      -7.664  -7.484  17.590  0.00  0.00     0.080 H 
ATOM      9  H   NON d   1      -4.205  -8.786  19.666  0.00  0.00     0.095 H 
ATOM     10  H   NON d   1      -6.578  -9.456  21.313  0.00  0.00     0.091 H 
ATOM     11  H   NON d   1      -6.113 -10.557  18.526  0.00  0.00     0.090 H 
ENDROOT
BRANCH   4  12
ATOM     12  O2  NON d   1      -5.140  -7.536  21.081  0.00  0.00    -0.346 OA
BRANCH  12  13
ATOM     13  C1  NON d   1      -4.057  -7.655  22.006  0.00  0.00     0.159 C 
ATOM     14  C2  NON d   1      -4.507  -7.253  23.429  0.00  0.00     0.110 C 
ATOM     15  C3  NON d   1      -4.535  -5.735  23.571  0.00  0.00     0.092 C 
ATOM     16  H   NON d   1      -3.799  -7.668  24.146  0.00  0.00     0.094 H 
ATOM     17  C4  NON d   1      -3.182  -5.172  23.135  0.00  0.00     0.096 C 
ATOM     18  H   NON d   1      -5.327  -5.330  22.940  0.00  0.00     0.091 H 
ATOM     19  C5  NON d   1      -3.005  -5.554  21.676  0.00  0.00     0.089 C 
ATOM     20  H   NON d   1      -2.398  -5.592  23.765  0.00  0.00     0.091 H 
ATOM     21  O5  NON d   1      -2.888  -6.972  21.542  0.00  0.00    -0.348 OA
ATOM     22  H   NON d   1      -3.889  -5.183  21.157  0.00  0.00     0.090 H 
ATOM     23  H   NON d   1      -3.761  -8.702  22.071  0.00  0.00     0.133 H 
BRANCH  14  24
ATOM     24  O2  NON d   1      -5.809  -7.761  23.678  0.00  0.00    -0.388 OA
ATOM     25  H   NON d   1      -6.080  -7.522  24.568  0.00  0.00     0.210 HD
ENDBRANCH  14  24
BRANCH  15  26
ATOM     26  O3  NON d   1      -4.806  -5.362  24.910  0.00  0.00    -0.390 OA
ATOM     27  H   NON d   1      -5.657  -5.720  25.175  0.00  0.00     0.210 HD
ENDBRANCH  15  26
BRANCH  17  28
ATOM     28  O4  NON d   1      -3.070  -3.758  23.309  0.00  0.00    -0.348 OA
BRANCH  28  29
ATOM     29  C1  NON d   1      -1.846  -3.412  23.963  0.00  0.00     0.159 C 
ATOM     30  C2  NON d   1      -2.159  -2.893  25.367  0.00  0.00     0.110 C 
ATOM     31  C3A NON d   1      -2.945  -1.590  25.249  0.00  0.00     0.094 C 
ATOM     32  H   NON d   1      -1.220  -2.717  25.892  0.00  0.00     0.094 H 
ATOM     33  C4A NON d   1      -2.256  -0.579  24.329  0.00  0.00     0.154 C 
ATOM     34  H   NON d   1      -3.912  -1.827  24.806  0.00  0.00     0.090 H 
ATOM     35  C5A NON d   1      -1.952  -1.277  23.004  0.00  0.00     0.068 C 
ATOM     36  H   NON d   1      -1.342  -0.152  24.743  0.00  0.00     0.092 H 
ATOM     37  O5  NON d   1      -1.133  -2.445  23.170  0.00  0.00    -0.351 OA
ATOM     38  H   NON d   1      -2.909  -1.604  22.596  0.00  0.00     0.086 H 
ATOM     39  H   NON d   1      -1.204  -4.287  24.065  0.00  0.00     0.133 H 
BRANCH  30  40
ATOM     40  O2  NON d   1      -2.905  -3.856  26.132  0.00  0.00    -0.388 OA
ATOM     41  H   NON d   1      -3.734  -4.045  25.686  0.00  0.00     0.210 HD
ENDBRANCH  30  40
BRANCH  31  42
ATOM     42  O3A NON d   1      -3.123  -1.019  26.547  0.00  0.00    -0.391 OA
ATOM     43  H   NON d   1      -3.606  -1.635  27.103  0.00  0.00     0.210 HD
ENDBRANCH  31  42
BRANCH  33  44
ATOM     44  N1  NON d   1      -3.314   0.375  24.070  0.00  0.00    -0.056 N 
ATOM     45  H   NON d   1      -3.385   0.434  23.054  0.00  0.00     0.278 HD
ATOM     46  H   NON d   1      -4.124   0.029  24.584  0.00  0.00     0.278 HD
BRANCH  44  47
ATOM     47  C1  NON d   1      -3.120   1.753  24.528  0.00  0.00     0.146 C 
ATOM     48  C2  NON d   1      -1.751   2.336  24.897  0.00  0.00    -0.064 C 
ATOM     49  C3  NON d   1      -1.703   3.718  24.892  0.00  0.00    -0.027 C 
ATOM     50  H   NON d   1      -0.890   1.715  25.142  0.00  0.00     0.080 H 
ATOM     51  C5  NON d   1      -2.943   4.589  24.613  0.00  0.00     0.086 C 
ATOM     52  C6  NON d   1      -4.272   3.847  24.441  0.00  0.00     0.091 C 
ATOM     53  H   NON d   1      -3.047   5.176  25.526  0.00  0.00     0.094 H 
ATOM     54  C7  NON d   1      -4.261   2.517  25.187  0.00  0.00     0.093 C 
ATOM     55  H   NON d   1      -4.385   3.633  23.378  0.00  0.00     0.091 H 
ATOM     56  H   NON d   1      -4.155   2.720  26.253  0.00  0.00     0.090 H 
ATOM     57  H   NON d   1      -3.154   1.928  23.453  0.00  0.00     0.095 H 
BRANCH  49  58
ATOM     58  C4  NON d   1      -0.381   4.425  25.219  0.00  0.00     0.039 C 
ATOM     59  H   NON d   1      -0.401   4.739  26.263  0.00  0.00     0.081 H 
ATOM     60  H   NON d   1      -0.270   5.283  24.556  0.00  0.00     0.081 H 
BRANCH  58  61
ATOM     61  O1  NON d   1       0.731   3.546  25.024  0.00  0.00    -0.397 OA
ATOM     62  H   NON d   1       0.753   3.258  24.108  0.00  0.00     0.209 HD
ENDBRANCH  58  61
ENDBRANCH  49  58
BRANCH  51  63
ATOM     63  O2  NON d   1      -2.734   5.413  23.465  0.00  0.00    -0.388 OA
ATOM     64  H   NON d   1      -2.566   4.858  22.700  0.00  0.00     0.210 HD
ENDBRANCH  51  63
BRANCH  52  65
ATOM     65  O3  NON d   1      -5.391   4.651  24.823  0.00  0.00    -0.390 OA
ATOM     66  H   NON d   1      -6.200   4.150  24.700  0.00  0.00     0.210 HD
ENDBRANCH  52  65
BRANCH  54  67
ATOM     67  O4  NON d   1      -5.457   1.730  25.159  0.00  0.00    -0.390 OA
ATOM     68  H   NON d   1      -5.320   0.924  25.662  0.00  0.00     0.210 HD
ENDBRANCH  54  67
ENDBRANCH  44  47
ENDBRANCH  33  44
BRANCH  35  69
ATOM     69  C6A NON d   1      -1.280  -0.308  22.029  0.00  0.00    -0.050 C 
ATOM     70  H   NON d   1      -1.944   0.535  21.841  0.00  0.00     0.031 H 
ATOM     71  H   NON d   1      -0.347   0.052  22.462  0.00  0.00     0.031 H 
ATOM     72  H   NON d   1      -1.072  -0.824  21.092  0.00  0.00     0.031 H 
ENDBRANCH  35  69
ENDBRANCH  28  29
ENDBRANCH  17  28
BRANCH  19  73
ATOM     73  C6  NON d   1      -1.776  -4.929  21.057  0.00  0.00     0.043 C 
ATOM     74  H   NON d   1      -1.835  -3.850  21.202  0.00  0.00     0.078 H 
ATOM     75  H   NON d   1      -1.752  -5.203  20.002  0.00  0.00     0.078 H 
BRANCH  73  76
ATOM     76  O6  NON d   1      -0.573  -5.391  21.662  0.00  0.00    -0.398 OA
ATOM     77  H   NON d   1      -0.508  -6.343  21.557  0.00  0.00     0.209 HD
ENDBRANCH  73  76
ENDBRANCH  19  73
ENDBRANCH  12  13
ENDBRANCH   4  12
BRANCH   3  78
ATOM     78  C4  NON d   1      -5.083  -6.655  18.075  0.00  0.00     0.039 C 
ATOM     79  H   NON d   1      -4.478  -6.138  18.820  0.00  0.00     0.081 H 
ATOM     80  H   NON d   1      -5.815  -6.010  17.590  0.00  0.00     0.081 H 
BRANCH  78  81
ATOM     81  O1  NON d   1      -4.196  -7.142  17.060  0.00  0.00    -0.397 OA
ATOM     82  H   NON d   1      -3.746  -6.401  16.648  0.00  0.00     0.209 HD
ENDBRANCH  78  81
ENDBRANCH   3  78
BRANCH   5  83
ATOM     83  O3  NON d   1      -5.007 -10.686  21.053  0.00  0.00    -0.390 OA
ATOM     84  H   NON d   1      -5.500 -11.456  21.346  0.00  0.00     0.210 HD
ENDBRANCH   5  83
BRANCH   6  85
ATOM     85  O4  NON d   1      -7.395 -11.575  19.496  0.00  0.00    -0.390 OA
ATOM     86  H   NON d   1      -7.999 -11.556  20.242  0.00  0.00     0.210 HD
ENDBRANCH   6  85
BRANCH   1  87
ATOM     87  N1  NON d   1      -9.225  -9.258  19.394  0.00  0.00    -0.056 N 
ATOM     88  H   NON d   1      -9.447  -9.893  20.160  0.00  0.00     0.278 HD
ATOM     89  H   NON d   1      -9.691  -9.630  18.566  0.00  0.00     0.278 HD
BRANCH  87  90
ATOM     90  C4A NON d   1      -9.681  -7.912  19.686  0.00  0.00     0.154 C 
ATOM     91  C3A NON d   1     -10.875  -7.681  18.760  0.00  0.00     0.094 C 
ATOM     92  C2  NON d   1     -11.484  -6.295  18.980  0.00  0.00     0.110 C 
ATOM     93  H   NON d   1     -11.652  -8.409  18.995  0.00  0.00     0.090 H 
ATOM     94  C1  NON d   1     -11.690  -6.028  20.476  0.00  0.00     0.159 C 
ATOM     95  H   NON d   1     -10.821  -5.523  18.590  0.00  0.00     0.094 H 
ATOM     96  O5  NON d   1     -10.515  -6.287  21.269  0.00  0.00    -0.351 OA
ATOM     97  H   NON d   1     -11.901  -4.961  20.544  0.00  0.00     0.133 H 
ATOM     98  C5A NON d   1     -10.077  -7.653  21.148  0.00  0.00     0.068 C 
ATOM     99  H   NON d   1     -10.860  -8.367  21.404  0.00  0.00     0.086 H 
ATOM    100  H   NON d   1      -8.856  -7.219  19.522  0.00  0.00     0.092 H 
BRANCH  91 101
ATOM    101  O3A NON d   1     -10.474  -7.872  17.399  0.00  0.00    -0.391 OA
ATOM    102  H   NON d   1     -10.098  -8.749  17.298  0.00  0.00     0.210 HD
ENDBRANCH  91 101
BRANCH  92 103
ATOM    103  O2  NON d   1     -12.750  -6.281  18.311  0.00  0.00    -0.388 OA
ATOM    104  H   NON d   1     -13.315  -6.963  18.683  0.00  0.00     0.210 HD
ENDBRANCH  92 103
BRANCH  94 105
ATOM    105  O4  NON d   1     -12.808  -6.750  21.007  0.00  0.00    -0.348 OA
BRANCH 105 106
ATOM    106  C4  NON d   1     -13.829  -5.834  21.368  0.00  0.00     0.096 C 
ATOM    107  C3  NON d   1     -15.143  -6.221  20.709  0.00  0.00     0.092 C 
ATOM    108  C2  NON d   1     -16.271  -5.275  21.169  0.00  0.00     0.110 C 
ATOM    109  H   NON d   1     -15.388  -7.245  20.991  0.00  0.00     0.091 H 
ATOM    110  C1  NON d   1     -16.307  -5.179  22.727  0.00  0.00     0.159 C 
ATOM    111  H   NON d   1     -16.096  -4.280  20.761  0.00  0.00     0.094 H 
ATOM    112  O5  NON d   1     -14.986  -4.759  23.217  0.00  0.00    -0.348 OA
ATOM    113  H   NON d   1     -17.031  -4.420  23.024  0.00  0.00     0.133 H 
ATOM    114  C5  NON d   1     -13.989  -5.750  22.899  0.00  0.00     0.089 C 
ATOM    115  H   NON d   1     -14.272  -6.740  23.257  0.00  0.00     0.090 H 
ATOM    116  H   NON d   1     -13.539  -4.846  21.012  0.00  0.00     0.091 H 
BRANCH 107 117
ATOM    117  O3  NON d   1     -15.010  -6.108  19.305  0.00  0.00    -0.390 OA
ATOM    118  H   NON d   1     -14.312  -6.694  19.003  0.00  0.00     0.210 HD
ENDBRANCH 107 117
BRANCH 108 119
ATOM    119  O2  NON d   1     -17.510  -5.807  20.714  0.00  0.00    -0.388 OA
ATOM    120  H   NON d   1     -18.226  -5.230  20.991  0.00  0.00     0.210 HD
ENDBRANCH 108 119
BRANCH 110 121
ATOM    121  O4  NON d   1     -16.754  -6.327  23.299  0.00  0.00    -0.348 OA
BRANCH 121 122
ATOM    122  C4  NON d   1     -17.924  -6.210  24.115  0.00  0.00     0.096 C 
ATOM    123  C3  NON d   1     -18.874  -7.306  23.607  0.00  0.00     0.093 C 
ATOM    124  C2  NON d   1     -20.136  -7.120  24.429  0.00  0.00     0.125 C 
ATOM    125  H   NON d   1     -18.454  -8.308  23.694  0.00  0.00     0.091 H 
ATOM    126  C1  NON d   1     -19.758  -7.410  25.888  0.00  0.00     0.289 C 
ATOM    127  H   NON d   1     -20.479  -6.103  24.237  0.00  0.00     0.096 H 
ATOM    128  O1  NON d   1     -20.003  -8.682  26.406  0.00  0.00    -0.188 OA
ATOM    129  O5  NON d   1     -18.643  -6.662  26.437  0.00  0.00    -0.336 OA
ATOM    130  C5  NON d   1     -17.535  -6.492  25.514  0.00  0.00     0.090 C 
ATOM    131  H   NON d   1     -17.015  -7.427  25.308  0.00  0.00     0.090 H 
ATOM    132  H   NON d   1     -18.387  -5.224  24.070  0.00  0.00     0.091 H 
BRANCH 123 133
ATOM    133  O3  NON d   1     -19.173  -7.053  22.256  0.00  0.00    -0.390 OA
ATOM    134  H   NON d   1     -18.362  -7.061  21.743  0.00  0.00     0.210 HD
ENDBRANCH 123 133
BRANCH 124 135
ATOM    135  O2  NON d   1     -21.228  -7.943  24.091  0.00  0.00    -0.387 OA
ATOM    136  H   NON d   1     -20.978  -8.864  24.195  0.00  0.00     0.210 HD
ENDBRANCH 124 135
BRANCH 130 137
ATOM    137  C6  NON d   1     -16.528  -5.545  26.231  0.00  0.00     0.043 C 
ATOM    138  H   NON d   1     -16.633  -5.694  27.306  0.00  0.00     0.078 H 
ATOM    139  H   NON d   1     -16.753  -4.523  25.927  0.00  0.00     0.078 H 
BRANCH 137 140
ATOM    140  O6  NON d   1     -15.180  -5.819  25.881  0.00  0.00    -0.398 OA
ATOM    141  H   NON d   1     -15.068  -5.708  24.934  0.00  0.00     0.209 HD
ENDBRANCH 137 140
ENDBRANCH 130 137
ENDBRANCH 121 122
ENDBRANCH 110 121
BRANCH 114 142
ATOM    142  C6  NON d   1     -12.710  -5.318  23.559  0.00  0.00     0.043 C 
ATOM    143  H   NON d   1     -11.881  -5.876  23.124  0.00  0.00     0.078 H 
ATOM    144  H   NON d   1     -12.781  -5.512  24.629  0.00  0.00     0.078 H 
BRANCH 142 145
ATOM    145  O6  NON d   1     -12.489  -3.926  23.354  0.00  0.00    -0.398 OA
ATOM    146  H   NON d   1     -11.669  -3.667  23.781  0.00  0.00     0.209 HD
ENDBRANCH 142 145
ENDBRANCH 114 142
ENDBRANCH 105 106
ENDBRANCH  94 105
BRANCH  98 147
ATOM    147  C6A NON d   1      -8.907  -7.846  22.117  0.00  0.00    -0.050 C 
ATOM    148  H   NON d   1      -8.542  -8.870  22.044  0.00  0.00     0.031 H 
ATOM    149  H   NON d   1      -8.105  -7.154  21.859  0.00  0.00     0.031 H 
ATOM    150  H   NON d   1      -9.244  -7.650  23.135  0.00  0.00     0.031 H 
ENDBRANCH  98 147
ENDBRANCH  87  90
ENDBRANCH   1  87
TORSDOF 39
