REMARK  31 active torsions:
REMARK  status: ('A' for Active; 'I' for Inactive)
REMARK    1  A    between atoms: N_1  and  CA_2 
REMARK    2  A    between atoms: CA_2  and  C_3 
REMARK       I    between atoms: C_3  and  N_5 
REMARK    3  A    between atoms: N_5  and  CA_6 
REMARK    4  A    between atoms: CA_6  and  CB_7 
REMARK    5  A    between atoms: CA_6  and  C_16 
REMARK    6  A    between atoms: CB_7  and  CG_8 
REMARK    7  A    between atoms: CG_8  and  CD_9 
REMARK    8  A    between atoms: CD_9  and  NE_10 
REMARK       I    between atoms: NE_10  and  CZ_11 
REMARK       I    between atoms: CZ_11  and  NH1_12 
REMARK       I    between atoms: CZ_11  and  NH2_14 
REMARK    9  A    between atoms: NH1_12  and  CQ1_13 
REMARK   10  A    between atoms: NH2_14  and  CQ2_15 
REMARK       I    between atoms: C_16  and  N_18 
REMARK   11  A    between atoms: N_18  and  CA_19 
REMARK   12  A    between atoms: CA_19  and  C_20 
REMARK   13  A    between atoms: CA_19  and  CB_22 
REMARK       I    between atoms: C_20  and  N_23 
REMARK   14  A    between atoms: N_23  and  CA_24 
REMARK   15  A    between atoms: CA_24  and  C_25 
REMARK   16  A    between atoms: CA_24  and  CB_27 
REMARK       I    between atoms: C_25  and  N_34 
REMARK   17  A    between atoms: CB_27  and  CG_28 
REMARK   18  A    between atoms: CG_28  and  CD_29 
REMARK   19  A    between atoms: CD_29  and  NE_30 
REMARK       I    between atoms: NE_30  and  CZ_31 
REMARK       I    between atoms: CZ_31  and  NH1_32 
REMARK       I    between atoms: CZ_31  and  NH2_33 
REMARK   20  A    between atoms: N_34  and  CA_35 
REMARK   21  A    between atoms: CA_35  and  C_36 
REMARK   22  A    between atoms: CA_35  and  CB_38 
REMARK       I    between atoms: C_36  and  N_39 
REMARK   23  A    between atoms: N_39  and  CA_40 
REMARK   24  A    between atoms: CA_40  and  C_41 
REMARK   25  A    between atoms: CA_40  and  CB_43 
REMARK       I    between atoms: C_41  and  N_50 
REMARK   26  A    between atoms: CB_43  and  CG_44 
REMARK   27  A    between atoms: CG_44  and  CD_45 
REMARK   28  A    between atoms: CD_45  and  NE_46 
REMARK       I    between atoms: NE_46  and  CZ_47 
REMARK       I    between atoms: CZ_47  and  NH1_48 
REMARK   29  A    between atoms: N_50  and  CA_51 
REMARK   30  A    between atoms: CA_51  and  C_52 
REMARK   31  A    between atoms: CA_51  and  CB_54 
ROOT
ATOM      1  CA  ARG d   1      15.038  -4.117   8.128  0.00  0.00     0.089 C 
ATOM      2  H29 ARG d   1      14.026  -3.706   8.260  0.00  0.00     0.087 H 
ENDROOT
BRANCH   1   3
ATOM      3  N   ARG d   1      15.013  -5.116   7.066  0.00  0.00    -0.346 N 
ATOM      4  C   ALA d   1      14.095  -6.071   7.031  0.00  0.00     0.240 C 
ATOM      5  O   ALA d   1      13.144  -6.136   7.823  0.00  0.00    -0.271 OA
ATOM      6  H28 ARG d   1      15.706  -5.080   6.346  0.00  0.00     0.163 HD
BRANCH   4   7
ATOM      7  CA  ALA d   1      14.295  -7.113   5.943  0.00  0.00     0.086 C 
ATOM      8  H24 ALA d   1      15.298  -6.981   5.512  0.00  0.00     0.086 H 
BRANCH   7   9
ATOM      9  N   ALA d   1      14.206  -8.468   6.506  0.00  0.00    -0.346 N 
ATOM     10  C   2MR d   1      15.030  -8.889   7.470  0.00  0.00     0.241 C 
ATOM     11  O   2MR d   1      15.959  -8.198   7.916  0.00  0.00    -0.271 OA
ATOM     12  H23 ALA d   1      13.508  -9.093   6.157  0.00  0.00     0.163 HD
BRANCH  10  13
ATOM     13  CA  2MR d   1      14.770 -10.277   8.013  0.00  0.00     0.089 C 
ATOM     14  H7  2MR d   1      14.119 -10.812   7.306  0.00  0.00     0.087 H 
BRANCH  13  15
ATOM     15  N   2MR d   1      16.012 -11.045   8.192  0.00  0.00    -0.346 N 
ATOM     16  C   GLY d   1      16.849 -11.294   7.185  0.00  0.00     0.243 C 
ATOM     17  O   GLY d   1      16.664 -10.884   6.030  0.00  0.00    -0.272 OA
ATOM     18  H6  2MR d   1      16.236 -11.393   9.102  0.00  0.00     0.163 HD
BRANCH  16  19
ATOM     19  CA  GLY d   1      18.071 -12.127   7.521  0.00  0.00     0.152 C 
ATOM     20  H4  GLY d   1      18.537 -11.727   8.433  0.00  0.00     0.090 H 
ATOM     21  H5  GLY d   1      17.759 -13.167   7.695  0.00  0.00     0.090 H 
BRANCH  19  22
ATOM     22  N   GLY d   1      19.070 -12.098   6.411  0.00  0.00    -0.071 N 
ATOM     23  H1  GLY d   1      19.869 -12.659   6.663  0.00  0.00     0.274 HD
ATOM     24  H2  GLY d   1      19.365 -11.148   6.249  0.00  0.00     0.274 HD
ATOM     25  H3  GLY d   1      18.651 -12.468   5.572  0.00  0.00     0.274 HD
ENDBRANCH  19  22
ENDBRANCH  16  19
ENDBRANCH  13  15
BRANCH  13  26
ATOM     26  CB  2MR d   1      14.072 -10.183   9.373  0.00  0.00    -0.036 C 
ATOM     27  H8  2MR d   1      14.695  -9.587  10.056  0.00  0.00     0.036 H 
ATOM     28  H9  2MR d   1      13.944 -11.196   9.783  0.00  0.00     0.036 H 
BRANCH  26  29
ATOM     29  CG  2MR d   1      12.697  -9.519   9.240  0.00  0.00    -0.048 C 
ATOM     30  H10 2MR d   1      12.047 -10.168   8.635  0.00  0.00     0.035 H 
ATOM     31  H11 2MR d   1      12.819  -8.549   8.735  0.00  0.00     0.035 H 
BRANCH  29  32
ATOM     32  CD  2MR d   1      12.042  -9.290  10.583  0.00  0.00     0.009 C 
ATOM     33  H12 2MR d   1      12.581  -8.493  11.117  0.00  0.00     0.064 H 
ATOM     34  H13 2MR d   1      12.087 -10.219  11.170  0.00  0.00     0.064 H 
BRANCH  32  35
ATOM     35  NE  2MR d   1      10.640  -8.894  10.414  0.00  0.00    -0.227 N 
ATOM     36  CZ  2MR d   1       9.738  -8.909  11.404  0.00  0.00     0.668 C 
ATOM     37  NH1 2MR d   1      10.048  -9.296  12.582  0.00  0.00    -0.231 N 
ATOM     38  NH2 2MR d   1       8.469  -8.523  11.132  0.00  0.00    -0.231 N 
ATOM     39  H15 2MR d   1      11.027  -9.576  12.740  0.00  0.00     0.177 HD
ATOM     40  H19 2MR d   1       7.770  -8.525  11.889  0.00  0.00     0.177 HD
ATOM     41  H14 2MR d   1      10.331  -8.587   9.481  0.00  0.00     0.177 HD
BRANCH  37  42
ATOM     42  CQ1 2MR d   1       9.145  -9.378  13.722  0.00  0.00    -0.005 C 
ATOM     43  H16 2MR d   1       9.696  -9.744  14.601  0.00  0.00     0.057 H 
ATOM     44  H17 2MR d   1       8.323 -10.071  13.490  0.00  0.00     0.057 H 
ATOM     45  H18 2MR d   1       8.734  -8.380  13.937  0.00  0.00     0.057 H 
ENDBRANCH  37  42
BRANCH  38  46
ATOM     46  CQ2 2MR d   1       8.065  -8.102   9.784  0.00  0.00    -0.005 C 
ATOM     47  H20 2MR d   1       6.998  -7.833   9.788  0.00  0.00     0.057 H 
ATOM     48  H21 2MR d   1       8.232  -8.928   9.077  0.00  0.00     0.057 H 
ATOM     49  H22 2MR d   1       8.662  -7.230   9.478  0.00  0.00     0.057 H 
ENDBRANCH  38  46
ENDBRANCH  32  35
ENDBRANCH  29  32
ENDBRANCH  26  29
ENDBRANCH  13  26
ENDBRANCH  10  13
ENDBRANCH   7   9
BRANCH   7  50
ATOM     50  CB  ALA d   1      13.279  -6.923   4.853  0.00  0.00    -0.049 C 
ATOM     51  H25 ALA d   1      13.363  -5.904   4.447  0.00  0.00     0.030 H 
ATOM     52  H26 ALA d   1      12.269  -7.072   5.263  0.00  0.00     0.030 H 
ATOM     53  H27 ALA d   1      13.461  -7.654   4.051  0.00  0.00     0.030 H 
ENDBRANCH   7  50
ENDBRANCH   4   7
ENDBRANCH   1   3
BRANCH   1  54
ATOM     54  C   ARG d   1      15.982  -3.002   7.714  0.00  0.00     0.241 C 
ATOM     55  O   ARG d   1      16.767  -3.163   6.775  0.00  0.00    -0.271 OA
ATOM     56  N   ALA d   1      15.925  -1.884   8.430  0.00  0.00    -0.346 N 
ATOM     57  H41 ALA d   1      15.266  -1.815   9.179  0.00  0.00     0.163 HD
BRANCH  56  58
ATOM     58  CA  ALA d   1      16.802  -0.759   8.147  0.00  0.00     0.086 C 
ATOM     59  H42 ALA d   1      16.575  -0.400   7.132  0.00  0.00     0.086 H 
BRANCH  58  60
ATOM     60  C   ALA d   1      18.266  -1.176   8.182  0.00  0.00     0.240 C 
ATOM     61  O   ALA d   1      18.671  -2.008   9.003  0.00  0.00    -0.271 OA
ATOM     62  N   ARG d   1      19.036  -0.599   7.263  0.00  0.00    -0.346 N 
ATOM     63  H46 ARG d   1      18.605  -0.029   6.564  0.00  0.00     0.163 HD
BRANCH  62  64
ATOM     64  CA  ARG d   1      20.484  -0.765   7.236  0.00  0.00     0.089 C 
ATOM     65  H47 ARG d   1      20.779  -1.468   8.029  0.00  0.00     0.087 H 
BRANCH  64  66
ATOM     66  C   ARG d   1      21.116   0.594   7.520  0.00  0.00     0.241 C 
ATOM     67  O   ARG d   1      21.384   1.378   6.606  0.00  0.00    -0.271 OA
ATOM     68  N   ALA d   1      21.340   0.863   8.803  0.00  0.00    -0.345 N 
ATOM     69  H59 ALA d   1      21.284   0.120   9.470  0.00  0.00     0.163 HD
BRANCH  68  70
ATOM     70  CA  ALA d   1      21.666   2.209   9.270  0.00  0.00     0.093 C 
ATOM     71  H60 ALA d   1      20.943   2.894   8.803  0.00  0.00     0.089 H 
BRANCH  70  72
ATOM     72  C   ALA d   1      23.056   2.697   8.878  0.00  0.00     0.196 C 
ATOM     73  O   ALA d   1      23.306   3.904   8.912  0.00  0.00    -0.646 OA
ATOM     74  OXT ALA d   1      23.947   1.919   8.526  0.00  0.00    -0.646 OA
ENDBRANCH  70  72
BRANCH  70  75
ATOM     75  CB  ALA d   1      21.485   2.294  10.755  0.00  0.00    -0.048 C 
ATOM     76  H61 ALA d   1      21.733   3.310  11.097  0.00  0.00     0.030 H 
ATOM     77  H62 ALA d   1      22.150   1.569  11.248  0.00  0.00     0.030 H 
ATOM     78  H63 ALA d   1      20.440   2.066  11.011  0.00  0.00     0.030 H 
ENDBRANCH  70  75
ENDBRANCH  68  70
ENDBRANCH  64  66
BRANCH  64  79
ATOM     79  CB  ARG d   1      20.950  -1.332   5.894  0.00  0.00    -0.036 C 
ATOM     80  H48 ARG d   1      20.682  -0.621   5.098  0.00  0.00     0.036 H 
ATOM     81  H49 ARG d   1      20.437  -2.289   5.718  0.00  0.00     0.036 H 
BRANCH  79  82
ATOM     82  CG  ARG d   1      22.444  -1.567   5.852  0.00  0.00    -0.048 C 
ATOM     83  H50 ARG d   1      22.776  -1.910   6.843  0.00  0.00     0.035 H 
ATOM     84  H51 ARG d   1      22.945  -0.619   5.605  0.00  0.00     0.035 H 
BRANCH  82  85
ATOM     85  CD  ARG d   1      22.829  -2.596   4.831  0.00  0.00     0.009 C 
ATOM     86  H52 ARG d   1      22.520  -2.251   3.833  0.00  0.00     0.064 H 
ATOM     87  H53 ARG d   1      22.324  -3.545   5.063  0.00  0.00     0.064 H 
BRANCH  85  88
ATOM     88  NE  ARG d   1      24.277  -2.802   4.845  0.00  0.00    -0.227 N 
ATOM     89  CZ  ARG d   1      24.884  -3.900   5.289  0.00  0.00     0.665 C 
ATOM     90  NH1 ARG d   1      24.176  -4.922   5.755  0.00  0.00    -0.235 N 
ATOM     91  NH2 ARG d   1      26.208  -3.979   5.258  0.00  0.00    -0.235 N 
ATOM     92  H55 ARG d   1      24.655  -5.767   6.096  0.00  0.00     0.174 HD
ATOM     93  H56 ARG d   1      23.148  -4.869   5.775  0.00  0.00     0.174 HD
ATOM     94  H57 ARG d   1      26.763  -3.189   4.898  0.00  0.00     0.174 HD
ATOM     95  H58 ARG d   1      26.681  -4.830   5.594  0.00  0.00     0.174 HD
ATOM     96  H54 ARG d   1      24.871  -2.041   4.485  0.00  0.00     0.177 HD
ENDBRANCH  85  88
ENDBRANCH  82  85
ENDBRANCH  79  82
ENDBRANCH  64  79
ENDBRANCH  62  64
ENDBRANCH  58  60
BRANCH  58  97
ATOM     97  CB  ALA d   1      16.548   0.392   9.125  0.00  0.00    -0.049 C 
ATOM     98  H43 ALA d   1      17.223   1.228   8.890  0.00  0.00     0.030 H 
ATOM     99  H44 ALA d   1      16.735   0.048  10.153  0.00  0.00     0.030 H 
ATOM    100  H45 ALA d   1      15.504   0.726   9.035  0.00  0.00     0.030 H 
ENDBRANCH  58  97
ENDBRANCH  56  58
ENDBRANCH   1  54
BRANCH   1 101
ATOM    101  CB  ARG d   1      15.496  -4.740   9.458  0.00  0.00    -0.036 C 
ATOM    102  H30 ARG d   1      14.823  -5.577   9.696  0.00  0.00     0.036 H 
ATOM    103  H31 ARG d   1      15.419  -3.973  10.242  0.00  0.00     0.036 H 
BRANCH 101 104
ATOM    104  CG  ARG d   1      16.923  -5.266   9.445  0.00  0.00    -0.048 C 
ATOM    105  H32 ARG d   1      17.618  -4.420   9.338  0.00  0.00     0.035 H 
ATOM    106  H33 ARG d   1      17.046  -5.952   8.594  0.00  0.00     0.035 H 
BRANCH 104 107
ATOM    107  CD  ARG d   1      17.238  -6.005  10.725  0.00  0.00     0.009 C 
ATOM    108  H34 ARG d   1      16.492  -6.798  10.880  0.00  0.00     0.064 H 
ATOM    109  H35 ARG d   1      17.205  -5.301  11.569  0.00  0.00     0.064 H 
BRANCH 107 110
ATOM    110  NE  ARG d   1      18.568  -6.602  10.646  0.00  0.00    -0.227 N 
ATOM    111  CZ  ARG d   1      19.708  -5.931  10.820  0.00  0.00     0.665 C 
ATOM    112  NH1 ARG d   1      19.701  -4.626  11.105  0.00  0.00    -0.235 N 
ATOM    113  NH2 ARG d   1      20.865  -6.567  10.714  0.00  0.00    -0.235 N 
ATOM    114  H37 ARG d   1      20.590  -4.123  11.236  0.00  0.00     0.174 HD
ATOM    115  H38 ARG d   1      18.806  -4.123  11.193  0.00  0.00     0.174 HD
ATOM    116  H39 ARG d   1      20.881  -7.573  10.495  0.00  0.00     0.174 HD
ATOM    117  H40 ARG d   1      21.748  -6.055  10.851  0.00  0.00     0.174 HD
ATOM    118  H36 ARG d   1      18.631  -7.610  10.442  0.00  0.00     0.177 HD
ENDBRANCH 107 110
ENDBRANCH 104 107
ENDBRANCH 101 104
ENDBRANCH   1 101
TORSDOF 31
