REMARK  6 active torsions:
REMARK  status: ('A' for Active; 'I' for Inactive)
REMARK    1  A    between atoms: C7_7  and  N1_1 
REMARK    2  A    between atoms: C2_2  and  C14_14 
REMARK    3  A    between atoms: C6_6  and  C7_7 
REMARK       I    between atoms: N9_9  and  C6_6 
REMARK    4  A    between atoms: C7_7  and  C23_23 
REMARK    5  A    between atoms: C12_12  and  N9_9 
REMARK    6  A    between atoms: C16_16  and  C13_13 
ROOT
ATOM      1  C7  OMM d   1      13.296  22.891   4.345  0.00  0.00     0.099 C 
ATOM      2  H1  OMM d   1      14.328  22.577   4.130  0.00  0.00     0.089 H 
ENDROOT
BRANCH   1   3
ATOM      3  N1  OMM d   1      12.981  24.063   3.510  0.00  0.00    -0.315 N 
ATOM      4  C2  OMM d   1      13.857  24.757   2.710  0.00  0.00     0.142 A 
ATOM      5  N3  OMM d   1      13.247  25.764   2.155  0.00  0.00    -0.228 NA
ATOM      6  C5  OMM d   1      11.963  25.776   2.542  0.00  0.00     0.089 A 
ATOM      7  C4  OMM d   1      11.775  24.689   3.413  0.00  0.00     0.069 A 
ATOM      8  C10 OMM d   1      10.881  26.617   2.272  0.00  0.00    -0.013 A 
ATOM      9  C8  OMM d   1      10.550  24.440   4.008  0.00  0.00    -0.014 A 
ATOM     10  C11 OMM d   1       9.503  25.275   3.739  0.00  0.00     0.157 A 
ATOM     11  H2  OMM d   1      10.424  23.596   4.676  0.00  0.00     0.092 H 
ATOM     12  C15 OMM d   1       9.669  26.336   2.860  0.00  0.00     0.157 A 
ATOM     13  F26 OMM d   1       8.317  25.034   4.340  0.00  0.00    -0.203 F 
ATOM     14  F27 OMM d   1       8.621  27.127   2.608  0.00  0.00    -0.203 F 
ATOM     15  H4  OMM d   1      10.993  27.471   1.614  0.00  0.00     0.092 H 
BRANCH   4  16
ATOM     16  C14 OMM d   1      15.267  24.362   2.513  0.00  0.00     0.010 A 
ATOM     17  C24 OMM d   1      16.278  25.120   3.088  0.00  0.00    -0.068 A 
ATOM     18  C32 OMM d   1      17.581  24.717   2.949  0.00  0.00    -0.061 A 
ATOM     19  H9  OMM d   1      16.040  26.021   3.641  0.00  0.00     0.085 H 
ATOM     20  C30 OMM d   1      17.908  23.555   2.266  0.00  0.00     0.034 A 
ATOM     21  H12 OMM d   1      18.372  25.319   3.382  0.00  0.00     0.086 H 
ATOM     22  C31 OMM d   1      16.898  22.747   1.770  0.00  0.00    -0.061 A 
ATOM     23 CL33 OMM d   1      19.589  23.100   2.128  0.00  0.00    -0.084 Cl
ATOM     24  C25 OMM d   1      15.581  23.156   1.870  0.00  0.00    -0.068 A 
ATOM     25  H11 OMM d   1      17.139  21.798   1.305  0.00  0.00     0.086 H 
ATOM     26  H10 OMM d   1      14.790  22.544   1.451  0.00  0.00     0.085 H 
ENDBRANCH   4  16
ENDBRANCH   1   3
BRANCH   1  27
ATOM     27  C6  OMM d   1      12.387  21.751   3.980  0.00  0.00     0.246 C 
ATOM     28  N9  OMM d   1      12.058  21.612   2.666  0.00  0.00    -0.323 N 
ATOM     29  H3  OMM d   1      12.481  22.242   2.015  0.00  0.00     0.169 HD
ATOM     30  O19 OMM d   1      11.964  21.001   4.851  0.00  0.00    -0.271 OA
BRANCH  28  31
ATOM     31  C12 OMM d   1      11.175  20.657   2.158  0.00  0.00     0.073 A 
ATOM     32  C17 OMM d   1      11.560  19.333   2.034  0.00  0.00     0.144 A 
ATOM     33  C18 OMM d   1      10.666  18.376   1.571  0.00  0.00    -0.027 A 
ATOM     34  F28 OMM d   1      12.793  18.969   2.442  0.00  0.00    -0.204 F 
ATOM     35  C16 OMM d   1       9.363  18.737   1.215  0.00  0.00     0.043 A 
ATOM     36  H5  OMM d   1      10.981  17.342   1.485  0.00  0.00     0.089 H 
ATOM     37  C22 OMM d   1       8.989  20.082   1.321  0.00  0.00    -0.064 A 
ATOM     38  C21 OMM d   1       9.865  21.034   1.822  0.00  0.00    -0.053 A 
ATOM     39  H7  OMM d   1       7.997  20.385   1.006  0.00  0.00     0.085 H 
ATOM     40  H6  OMM d   1       9.541  22.060   1.953  0.00  0.00     0.087 H 
BRANCH  35  41
ATOM     41  C13 OMM d   1       8.424  17.702   0.700  0.00  0.00     0.209 C 
ATOM     42  O20 OMM d   1       8.808  16.574   0.615  0.00  0.00    -0.644 OA
ATOM     43  O29 OMM d   1       7.166  17.977   0.290  0.00  0.00    -0.644 OA
ENDBRANCH  35  41
ENDBRANCH  28  31
ENDBRANCH   1  27
BRANCH   1  44
ATOM     44  C23 OMM d   1      13.227  23.286   5.841  0.00  0.00    -0.025 C 
ATOM     45  C34 OMM d   1      13.881  22.202   6.714  0.00  0.00    -0.059 C 
ATOM     46  C37 OMM d   1      13.905  22.601   8.199  0.00  0.00    -0.065 C 
ATOM     47  H13 OMM d   1      14.914  22.044   6.371  0.00  0.00     0.033 H 
ATOM     48  H14 OMM d   1      13.312  21.267   6.606  0.00  0.00     0.033 H 
ATOM     49  C38 OMM d   1      14.633  23.946   8.353  0.00  0.00    -0.065 C 
ATOM     50  H19 OMM d   1      14.433  21.829   8.778  0.00  0.00     0.033 H 
ATOM     51  H20 OMM d   1      12.874  22.697   8.570  0.00  0.00     0.033 H 
ATOM     52  C36 OMM d   1      13.901  25.024   7.533  0.00  0.00    -0.065 C 
ATOM     53  H21 OMM d   1      14.644  24.237   9.414  0.00  0.00     0.033 H 
ATOM     54  H22 OMM d   1      15.666  23.847   7.989  0.00  0.00     0.033 H 
ATOM     55  C35 OMM d   1      13.993  24.600   6.052  0.00  0.00    -0.059 C 
ATOM     56  H17 OMM d   1      12.848  25.086   7.844  0.00  0.00     0.033 H 
ATOM     57  H18 OMM d   1      14.384  26.002   7.677  0.00  0.00     0.033 H 
ATOM     58  H15 OMM d   1      13.554  25.385   5.419  0.00  0.00     0.033 H 
ATOM     59  H16 OMM d   1      15.049  24.456   5.778  0.00  0.00     0.033 H 
ATOM     60  H8  OMM d   1      12.175  23.414   6.138  0.00  0.00     0.043 H 
ENDBRANCH   1  44
TORSDOF 6
