REMARK  12 active torsions:
REMARK  status: ('A' for Active; 'I' for Inactive)
REMARK    1  A    between atoms: C3_2  and  O1_1 
REMARK    2  A    between atoms: C6_3  and  O7_4 
REMARK    3  A    between atoms: C9_5  and  O10_6 
REMARK    4  A    between atoms: C15_9  and  C14_8 
REMARK    5  A    between atoms: C24_12  and  O02_23 
REMARK    6  A    between atoms: C29_14  and  O03_24 
REMARK    7  A    between atoms: O35_26  and  C33_16 
REMARK    8  A    between atoms: C36_17  and  C38_18 
REMARK    9  A    between atoms: C36_17  and  O35_26 
REMARK   10  A    between atoms: C43_28  and  O44_29 
REMARK   11  A    between atoms: C46_30  and  O47_31 
REMARK   12  A    between atoms: C49_32  and  O50_33 
ROOT
ATOM      1  C15 NON d   1      28.139  33.950  17.074  0.00  0.00     0.096 C 
ATOM      2  C20 NON d   1      28.466  32.635  15.030  0.00  0.00     0.081 A 
ATOM      3  C21 NON d   1      29.308  32.215  14.000  0.00  0.00    -0.018 A 
ATOM      4  C24 NON d   1      28.789  31.479  12.933  0.00  0.00     0.071 A 
ATOM      5  C26 NON d   1      27.433  31.166  12.896  0.00  0.00    -0.018 A 
ATOM      6  C29 NON d   1      26.590  31.583  13.925  0.00  0.00     0.077 A 
ATOM      7  C31 NON d   1      27.109  32.312  14.991  0.00  0.00     0.011 A 
ATOM      8  C33 NON d   1      26.982  33.006  17.374  0.00  0.00     0.081 C 
ATOM      9  C01 NON d   1      26.183  32.751  16.099  0.00  0.00    -0.008 C 
ATOM     10  O01 NON d   1      28.991  33.361  16.078  0.00  0.00    -0.338 OA
ATOM     11  H   NON d   1      27.762  34.897  16.686  0.00  0.00     0.096 H 
ATOM     12  H   NON d   1      30.369  32.461  14.028  0.00  0.00     0.092 H 
ATOM     13  H   NON d   1      27.030  30.594  12.061  0.00  0.00     0.092 H 
ATOM     14  H   NON d   1      26.316  33.435  18.123  0.00  0.00     0.089 H 
ATOM     15  H   NON d   1      25.449  31.967  16.286  0.00  0.00     0.044 H 
ATOM     16  H   NON d   1      25.677  33.670  15.802  0.00  0.00     0.044 H 
ENDROOT
BRANCH   8  17
ATOM     17  O35 NON d   1      27.548  31.777  17.834  0.00  0.00    -0.309 OA
BRANCH  17  18
ATOM     18  C36 NON d   1      26.720  30.914  18.663  0.00  0.00     0.294 C 
ATOM     19  O37 NON d   1      25.512  31.049  18.750  0.00  0.00    -0.259 OA
BRANCH  18  20
ATOM     20  C38 NON d   1      27.454  29.839  19.402  0.00  0.00     0.045 A 
ATOM     21  C39 NON d   1      26.807  28.817  20.101  0.00  0.00    -0.032 A 
ATOM     22  C49 NON d   1      27.588  27.854  20.763  0.00  0.00     0.102 A 
ATOM     23  H   NON d   1      25.719  28.767  20.132  0.00  0.00     0.089 H 
ATOM     24  C46 NON d   1      28.975  27.931  20.720  0.00  0.00     0.132 A 
ATOM     25  C43 NON d   1      29.598  28.954  20.015  0.00  0.00     0.102 A 
ATOM     26  C41 NON d   1      28.837  29.900  19.361  0.00  0.00    -0.032 A 
ATOM     27  H   NON d   1      29.327  30.701  18.808  0.00  0.00     0.089 H 
BRANCH  22  28
ATOM     28  O50 NON d   1      26.988  26.842  21.435  0.00  0.00    -0.358 OA
ATOM     29  H   NON d   1      27.257  26.003  21.054  0.00  0.00     0.217 HD
ENDBRANCH  22  28
BRANCH  24  30
ATOM     30  O47 NON d   1      29.744  26.997  21.353  0.00  0.00    -0.356 OA
ATOM     31  H   NON d   1      29.175  26.361  21.793  0.00  0.00     0.218 HD
ENDBRANCH  24  30
BRANCH  25  32
ATOM     32  O44 NON d   1      30.955  29.029  19.960  0.00  0.00    -0.358 OA
ATOM     33  H   NON d   1      31.335  28.304  20.462  0.00  0.00     0.217 HD
ENDBRANCH  25  32
ENDBRANCH  18  20
ENDBRANCH  17  18
ENDBRANCH   8  17
BRANCH   1  34
ATOM     34  C14 NON d   1      28.889  34.216  18.328  0.00  0.00    -0.021 A 
ATOM     35  C12 NON d   1      30.048  33.502  18.644  0.00  0.00    -0.039 A 
ATOM     36  C9  NON d   1      30.730  33.771  19.829  0.00  0.00     0.102 A 
ATOM     37  H   NON d   1      30.418  32.735  17.964  0.00  0.00     0.088 H 
ATOM     38  C6  NON d   1      30.260  34.752  20.697  0.00  0.00     0.132 A 
ATOM     39  C3  NON d   1      29.104  35.469  20.388  0.00  0.00     0.102 A 
ATOM     40  C4  NON d   1      28.422  35.199  19.203  0.00  0.00    -0.039 A 
ATOM     41  H   NON d   1      27.519  35.758  18.958  0.00  0.00     0.088 H 
BRANCH  36  42
ATOM     42  O10 NON d   1      31.862  33.074  20.124  0.00  0.00    -0.358 OA
ATOM     43  H   NON d   1      32.040  32.443  19.423  0.00  0.00     0.217 HD
ENDBRANCH  36  42
BRANCH  38  44
ATOM     44  O7  NON d   1      30.939  35.001  21.851  0.00  0.00    -0.356 OA
ATOM     45  H   NON d   1      31.703  34.422  21.903  0.00  0.00     0.218 HD
ENDBRANCH  38  44
BRANCH  39  46
ATOM     46  O1  NON d   1      28.620  36.438  21.227  0.00  0.00    -0.358 OA
ATOM     47  H   NON d   1      27.823  36.818  20.849  0.00  0.00     0.217 HD
ENDBRANCH  39  46
ENDBRANCH   1  34
BRANCH   6  48
ATOM     48  O03 NON d   1      25.262  31.268  13.886  0.00  0.00    -0.360 OA
ATOM     49  H   NON d   1      25.076  30.767  13.088  0.00  0.00     0.217 HD
ENDBRANCH   6  48
BRANCH   4  50
ATOM     50  O02 NON d   1      29.604  31.063  11.925  0.00  0.00    -0.361 OA
ATOM     51  H   NON d   1      30.501  31.357  12.098  0.00  0.00     0.217 HD
ENDBRANCH   4  50
TORSDOF 12
