REMARK  6 active torsions:
REMARK  status: ('A' for Active; 'I' for Inactive)
REMARK    1  A    between atoms: C7_7  and  N1_1 
REMARK    2  A    between atoms: C2_2  and  C12_12 
REMARK    3  A    between atoms: C6_6  and  C7_7 
REMARK       I    between atoms: N10_10  and  C6_6 
REMARK    4  A    between atoms: C7_7  and  C18_18 
REMARK    5  A    between atoms: C21_21  and  N10_10 
REMARK    6  A    between atoms: C16_16  and  C14_14 
ROOT
ATOM      1  C7  OOF d   1      21.973  11.576  51.106  0.00  0.00     0.099 C 
ATOM      2  H1  OOF d   1      21.711  12.629  51.286  0.00  0.00     0.089 H 
ENDROOT
BRANCH   1   3
ATOM      3  N1  OOF d   1      22.709  11.099  52.250  0.00  0.00    -0.315 N 
ATOM      4  C2  OOF d   1      23.235  11.872  53.332  0.00  0.00     0.142 A 
ATOM      5  N3  OOF d   1      23.998  11.155  54.143  0.00  0.00    -0.228 NA
ATOM      6  C5  OOF d   1      23.912   9.826  53.659  0.00  0.00     0.089 A 
ATOM      7  C4  OOF d   1      23.119   9.790  52.453  0.00  0.00     0.069 A 
ATOM      8  C9  OOF d   1      24.439   8.632  54.180  0.00  0.00    -0.013 A 
ATOM      9  C8  OOF d   1      22.897   8.618  51.731  0.00  0.00    -0.014 A 
ATOM     10  C11 OOF d   1      23.479   7.449  52.233  0.00  0.00     0.157 A 
ATOM     11  H2  OOF d   1      22.302   8.613  50.825  0.00  0.00     0.092 H 
ATOM     12  C13 OOF d   1      24.195   7.460  53.464  0.00  0.00     0.157 A 
ATOM     13  F24 OOF d   1      23.328   6.252  51.616  0.00  0.00    -0.203 F 
ATOM     14  F25 OOF d   1      24.746   6.290  53.832  0.00  0.00    -0.203 F 
ATOM     15  H3  OOF d   1      25.012   8.622  55.100  0.00  0.00     0.092 H 
BRANCH   4  16
ATOM     16  C12 OOF d   1      23.021  13.310  53.427  0.00  0.00     0.010 A 
ATOM     17  C19 OOF d   1      24.117  14.190  53.366  0.00  0.00    -0.068 A 
ATOM     18  C30 OOF d   1      23.894  15.573  53.419  0.00  0.00    -0.061 A 
ATOM     19  H6  OOF d   1      25.125  13.802  53.279  0.00  0.00     0.085 H 
ATOM     20  C27 OOF d   1      22.581  16.055  53.515  0.00  0.00     0.034 A 
ATOM     21  H12 OOF d   1      24.729  16.263  53.386  0.00  0.00     0.086 H 
ATOM     22  C31 OOF d   1      21.495  15.179  53.593  0.00  0.00    -0.061 A 
ATOM     23 CL32 OOF d   1      22.281  17.716  53.520  0.00  0.00    -0.084 Cl
ATOM     24  C20 OOF d   1      21.734  13.812  53.566  0.00  0.00    -0.068 A 
ATOM     25  H13 OOF d   1      20.483  15.560  53.673  0.00  0.00     0.086 H 
ATOM     26  H7  OOF d   1      20.901  13.124  53.655  0.00  0.00     0.085 H 
ENDBRANCH   4  16
ENDBRANCH   1   3
BRANCH   1  27
ATOM     27  C6  OOF d   1      20.649  10.752  50.951  0.00  0.00     0.245 C 
ATOM     28  N10 OOF d   1      19.925  10.546  52.121  0.00  0.00    -0.325 N 
ATOM     29  H4  OOF d   1      20.333  10.914  52.956  0.00  0.00     0.169 HD
ATOM     30  O15 OOF d   1      20.303  10.303  49.847  0.00  0.00    -0.271 OA
BRANCH  28  31
ATOM     31  C21 OOF d   1      18.690   9.885  52.281  0.00  0.00     0.034 A 
ATOM     32  C28 OOF d   1      17.932   9.928  53.474  0.00  0.00    -0.056 A 
ATOM     33  C22 OOF d   1      16.708   9.273  53.572  0.00  0.00    -0.064 A 
ATOM     34  H10 OOF d   1      18.311  10.480  54.326  0.00  0.00     0.086 H 
ATOM     35  C16 OOF d   1      16.217   8.539  52.488  0.00  0.00     0.041 A 
ATOM     36  H8  OOF d   1      16.134   9.332  54.490  0.00  0.00     0.085 H 
ATOM     37  C23 OOF d   1      16.954   8.498  51.299  0.00  0.00    -0.064 A 
ATOM     38  C29 OOF d   1      18.171   9.140  51.195  0.00  0.00    -0.056 A 
ATOM     39  H9  OOF d   1      16.563   7.954  50.447  0.00  0.00     0.085 H 
ATOM     40  H11 OOF d   1      18.735   9.073  50.272  0.00  0.00     0.086 H 
BRANCH  35  41
ATOM     41  C14 OOF d   1      14.952   7.789  52.518  0.00  0.00     0.209 C 
ATOM     42  O17 OOF d   1      14.130   7.638  51.614  0.00  0.00    -0.644 OA
ATOM     43  O26 OOF d   1      14.654   7.119  53.664  0.00  0.00    -0.644 OA
ENDBRANCH  35  41
ENDBRANCH  28  31
ENDBRANCH   1  27
BRANCH   1  44
ATOM     44  C18 OOF d   1      22.798  11.507  49.786  0.00  0.00    -0.025 C 
ATOM     45  C33 OOF d   1      22.172  12.418  48.731  0.00  0.00    -0.059 C 
ATOM     46  C36 OOF d   1      22.962  12.355  47.435  0.00  0.00    -0.065 C 
ATOM     47  H14 OOF d   1      22.169  13.453  49.103  0.00  0.00     0.033 H 
ATOM     48  H15 OOF d   1      21.138  12.094  48.541  0.00  0.00     0.033 H 
ATOM     49  C37 OOF d   1      24.416  12.731  47.648  0.00  0.00    -0.065 C 
ATOM     50  H20 OOF d   1      22.516  13.052  46.711  0.00  0.00     0.033 H 
ATOM     51  H21 OOF d   1      22.913  11.331  47.036  0.00  0.00     0.033 H 
ATOM     52  C35 OOF d   1      25.063  11.822  48.683  0.00  0.00    -0.065 C 
ATOM     53  H22 OOF d   1      24.957  12.635  46.695  0.00  0.00     0.033 H 
ATOM     54  H23 OOF d   1      24.472  13.773  47.998  0.00  0.00     0.033 H 
ATOM     55  C34 OOF d   1      24.283  11.853  49.986  0.00  0.00    -0.059 C 
ATOM     56  H18 OOF d   1      25.082  10.792  48.298  0.00  0.00     0.033 H 
ATOM     57  H19 OOF d   1      26.092  12.162  48.870  0.00  0.00     0.033 H 
ATOM     58  H16 OOF d   1      24.726  11.124  50.681  0.00  0.00     0.033 H 
ATOM     59  H17 OOF d   1      24.356  12.862  50.418  0.00  0.00     0.033 H 
ATOM     60  H5  OOF d   1      22.747  10.472  49.416  0.00  0.00     0.043 H 
ENDBRANCH   1  44
TORSDOF 6
