REMARK  6 active torsions:
REMARK  status: ('A' for Active; 'I' for Inactive)
REMARK    1  A    between atoms: C9_9  and  N1_1 
REMARK    2  A    between atoms: C2_2  and  C17_17 
REMARK       I    between atoms: N7_7  and  C6_6 
REMARK    3  A    between atoms: C6_6  and  C9_9 
REMARK    4  A    between atoms: C8_8  and  N7_7 
REMARK    5  A    between atoms: C9_9  and  C23_23 
REMARK    6  A    between atoms: C13_13  and  C15_15 
ROOT
ATOM      1  C9  OOK d   1      23.097  18.915   4.311  0.00  0.00     0.099 C 
ATOM      2  H2  OOK d   1      22.057  19.212   4.111  0.00  0.00     0.089 H 
ENDROOT
BRANCH   1   3
ATOM      3  N1  OOK d   1      23.438  17.778   3.449  0.00  0.00    -0.315 N 
ATOM      4  C2  OOK d   1      22.591  17.086   2.623  0.00  0.00     0.142 A 
ATOM      5  N3  OOK d   1      23.221  16.101   2.048  0.00  0.00    -0.228 NA
ATOM      6  C5  OOK d   1      24.508  16.104   2.450  0.00  0.00     0.089 A 
ATOM      7  C4  OOK d   1      24.666  17.181   3.345  0.00  0.00     0.069 A 
ATOM      8  C14 OOK d   1      25.613  15.321   2.105  0.00  0.00    -0.013 A 
ATOM      9  C10 OOK d   1      25.896  17.437   3.933  0.00  0.00    -0.014 A 
ATOM     10  C16 OOK d   1      26.964  16.633   3.625  0.00  0.00     0.157 A 
ATOM     11  H3  OOK d   1      26.012  18.262   4.627  0.00  0.00     0.092 H 
ATOM     12  C18 OOK d   1      26.821  15.601   2.695  0.00  0.00     0.157 A 
ATOM     13  F28 OOK d   1      28.159  16.871   4.196  0.00  0.00    -0.203 F 
ATOM     14  F29 OOK d   1      27.862  14.794   2.467  0.00  0.00    -0.203 F 
ATOM     15  H4  OOK d   1      25.519  14.512   1.389  0.00  0.00     0.092 H 
BRANCH   4  16
ATOM     16  C17 OOK d   1      21.156  17.388   2.465  0.00  0.00     0.010 A 
ATOM     17  C24 OOK d   1      20.786  18.644   1.985  0.00  0.00    -0.068 A 
ATOM     18  C33 OOK d   1      19.459  18.939   1.848  0.00  0.00    -0.061 A 
ATOM     19  H8  OOK d   1      21.541  19.377   1.724  0.00  0.00     0.085 H 
ATOM     20  C31 OOK d   1      18.494  18.024   2.236  0.00  0.00     0.034 A 
ATOM     21  H11 OOK d   1      19.160  19.895   1.433  0.00  0.00     0.086 H 
ATOM     22  C32 OOK d   1      18.856  16.785   2.754  0.00  0.00    -0.061 A 
ATOM     23 CL34 OOK d   1      16.829  18.471   2.070  0.00  0.00    -0.084 Cl
ATOM     24  C25 OOK d   1      20.193  16.470   2.904  0.00  0.00    -0.068 A 
ATOM     25  H10 OOK d   1      18.093  16.070   3.039  0.00  0.00     0.086 H 
ATOM     26  H9  OOK d   1      20.491  15.530   3.353  0.00  0.00     0.085 H 
ENDBRANCH   4  16
ENDBRANCH   1   3
BRANCH   1  27
ATOM     27  C6  OOK d   1      23.984  20.080   3.925  0.00  0.00     0.246 C 
ATOM     28  N7  OOK d   1      24.220  20.279   2.605  0.00  0.00    -0.320 N 
ATOM     29  H1  OOK d   1      23.791  19.661   1.946  0.00  0.00     0.169 HD
ATOM     30  O21 OOK d   1      24.448  20.822   4.758  0.00  0.00    -0.271 OA
BRANCH  28  31
ATOM     31  C8  OOK d   1      25.032  21.303   2.123  0.00  0.00     0.113 A 
ATOM     32  C11 OOK d   1      24.529  22.600   1.961  0.00  0.00     0.147 A 
ATOM     33  C20 OOK d   1      25.379  23.603   1.520  0.00  0.00    -0.027 A 
ATOM     34  F27 OOK d   1      23.229  22.874   2.228  0.00  0.00    -0.204 F 
ATOM     35  C13 OOK d   1      26.732  23.313   1.233  0.00  0.00     0.046 A 
ATOM     36  H6  OOK d   1      25.005  24.613   1.395  0.00  0.00     0.089 H 
ATOM     37  C19 OOK d   1      27.222  22.019   1.408  0.00  0.00    -0.027 A 
ATOM     38  C12 OOK d   1      26.387  21.022   1.861  0.00  0.00     0.147 A 
ATOM     39  H5  OOK d   1      28.260  21.798   1.187  0.00  0.00     0.089 H 
ATOM     40  F26 OOK d   1      26.903  19.793   2.070  0.00  0.00    -0.204 F 
BRANCH  35  41
ATOM     41  C15 OOK d   1      27.660  24.383   0.789  0.00  0.00     0.209 C 
ATOM     42  O22 OOK d   1      28.804  24.143   0.456  0.00  0.00    -0.644 OA
ATOM     43  O30 OOK d   1      27.247  25.651   0.802  0.00  0.00    -0.644 OA
ENDBRANCH  35  41
ENDBRANCH  28  31
ENDBRANCH   1  27
BRANCH   1  44
ATOM     44  C23 OOK d   1      23.171  18.473   5.791  0.00  0.00    -0.025 C 
ATOM     45  C35 OOK d   1      22.462  19.506   6.680  0.00  0.00    -0.059 C 
ATOM     46  C37 OOK d   1      22.429  19.051   8.147  0.00  0.00    -0.065 C 
ATOM     47  H12 OOK d   1      21.430  19.638   6.323  0.00  0.00     0.033 H 
ATOM     48  H13 OOK d   1      22.999  20.464   6.614  0.00  0.00     0.033 H 
ATOM     49  C39 OOK d   1      21.813  17.635   8.292  0.00  0.00    -0.065 C 
ATOM     50  H16 OOK d   1      21.826  19.764   8.728  0.00  0.00     0.033 H 
ATOM     51  H17 OOK d   1      23.457  19.035   8.539  0.00  0.00     0.033 H 
ATOM     52  C38 OOK d   1      22.579  16.615   7.431  0.00  0.00    -0.065 C 
ATOM     53  H20 OOK d   1      20.762  17.664   7.968  0.00  0.00     0.033 H 
ATOM     54  H21 OOK d   1      21.863  17.326   9.347  0.00  0.00     0.033 H 
ATOM     55  C36 OOK d   1      22.510  17.084   5.965  0.00  0.00    -0.059 C 
ATOM     56  H18 OOK d   1      23.628  16.564   7.758  0.00  0.00     0.033 H 
ATOM     57  H19 OOK d   1      22.116  15.622   7.528  0.00  0.00     0.033 H 
ATOM     58  H14 OOK d   1      23.034  16.355   5.330  0.00  0.00     0.033 H 
ATOM     59  H15 OOK d   1      21.456  17.147   5.658  0.00  0.00     0.033 H 
ATOM     60  H7  OOK d   1      24.227  18.406   6.092  0.00  0.00     0.043 H 
ENDBRANCH   1  44
TORSDOF 6
