REMARK  7 active torsions:
REMARK  status: ('A' for Active; 'I' for Inactive)
REMARK    1  A    between atoms: C5_5  and  C12_10 
REMARK    2  A    between atoms: C6_6  and  O16_11 
REMARK    3  A    between atoms: N9_7  and  C35_20 
REMARK    4  A    between atoms: C10_8  and  C46_26 
REMARK    5  A    between atoms: C11_9  and  C17_12 
REMARK       I    between atoms: C17_12  and  N18_13 
REMARK    6  A    between atoms: C46_26  and  C47_27 
REMARK    7  A    between atoms: C50_28  and  C58_33 
ROOT
ATOM      1  C1  SSR d   1     -10.215 -26.560  -4.273  0.00  0.00    -0.048 A 
ATOM      2  C2  SSR d   1     -10.868 -25.381  -3.875  0.00  0.00    -0.053 A 
ATOM      3  C3  SSR d   1     -10.367 -24.614  -2.816  0.00  0.00     0.051 A 
ATOM      4  C4  SSR d   1      -9.196 -25.038  -2.149  0.00  0.00     0.018 A 
ATOM      5  C5  SSR d   1      -8.534 -26.234  -2.547  0.00  0.00    -0.015 A 
ATOM      6  C6  SSR d   1      -9.043 -26.972  -3.632  0.00  0.00     0.072 A 
ATOM      7  N9  SSR d   1     -10.864 -23.579  -2.097  0.00  0.00    -0.313 N 
ATOM      8  C10 SSR d   1     -10.037 -23.066  -1.140  0.00  0.00     0.038 C 
ATOM      9  C11 SSR d   1      -9.064 -24.043  -1.030  0.00  0.00     0.068 C 
ATOM     10  H   SSR d   1     -10.625 -27.157  -5.087  0.00  0.00     0.087 H 
ATOM     11  H   SSR d   1     -11.771 -25.061  -4.394  0.00  0.00     0.087 H 
ENDROOT
BRANCH   9  12
ATOM     12  C17 SSR d   1      -7.850 -24.057  -0.156  0.00  0.00     0.256 C 
ATOM     13  N18 SSR d   1      -7.734 -24.996   0.799  0.00  0.00    -0.345 N 
ATOM     14  C19 SSR d   1      -8.784 -26.025   1.000  0.00  0.00     0.020 C 
ATOM     15  C23 SSR d   1      -6.503 -25.060   1.610  0.00  0.00     0.020 C 
ATOM     16  C20 SSR d   1      -9.073 -26.133   2.486  0.00  0.00     0.096 C 
ATOM     17  H   SSR d   1      -8.442 -26.986   0.616  0.00  0.00     0.066 H 
ATOM     18  H   SSR d   1      -9.690 -25.742   0.464  0.00  0.00     0.066 H 
ATOM     19  N21 SSR d   1      -7.836 -26.314   3.219  0.00  0.00    -0.072 N 
ATOM     20  H   SSR d   1      -9.724 -26.989   2.664  0.00  0.00     0.078 H 
ATOM     21  H   SSR d   1      -9.560 -25.218   2.824  0.00  0.00     0.078 H 
ATOM     22  C22 SSR d   1      -6.815 -25.297   3.079  0.00  0.00     0.096 C 
ATOM     23  H   SSR d   1      -7.422 -27.169   2.848  0.00  0.00     0.277 HD
ATOM     24  H   SSR d   1      -8.099 -26.303   4.205  0.00  0.00     0.277 HD
ATOM     25  H   SSR d   1      -5.909 -25.630   3.586  0.00  0.00     0.078 H 
ATOM     26  H   SSR d   1      -7.176 -24.368   3.520  0.00  0.00     0.078 H 
ATOM     27  H   SSR d   1      -5.979 -24.109   1.518  0.00  0.00     0.066 H 
ATOM     28  H   SSR d   1      -5.894 -25.889   1.248  0.00  0.00     0.066 H 
ATOM     29  O32 SSR d   1      -6.997 -23.191  -0.332  0.00  0.00    -0.267 OA
ENDBRANCH   9  12
BRANCH   8  30
ATOM     30  C46 SSR d   1     -10.224 -21.830  -0.271  0.00  0.00    -0.001 C 
ATOM     31  H   SSR d   1     -11.227 -21.442  -0.446  0.00  0.00     0.049 H 
ATOM     32  H   SSR d   1      -9.450 -21.110  -0.536  0.00  0.00     0.049 H 
BRANCH  30  33
ATOM     33  C47 SSR d   1     -10.092 -22.138   1.198  0.00  0.00    -0.044 A 
ATOM     34  C50 SSR d   1     -10.998 -22.968   1.906  0.00  0.00    -0.017 A 
ATOM     35  C51 SSR d   1     -10.817 -23.156   3.272  0.00  0.00     0.122 A 
ATOM     36  C52 SSR d   1      -9.718 -22.581   3.932  0.00  0.00    -0.045 A 
ATOM     37  F62 SSR d   1     -11.692 -23.926   3.942  0.00  0.00    -0.206 F 
ATOM     38  C53 SSR d   1      -8.833 -21.749   3.228  0.00  0.00    -0.080 A 
ATOM     39  H   SSR d   1      -9.553 -22.781   4.991  0.00  0.00     0.088 H 
ATOM     40  C54 SSR d   1      -9.039 -21.506   1.866  0.00  0.00    -0.076 A 
ATOM     41  H   SSR d   1      -7.987 -21.293   3.742  0.00  0.00     0.083 H 
ATOM     42  H   SSR d   1      -8.380 -20.826   1.327  0.00  0.00     0.084 H 
BRANCH  34  43
ATOM     43  C58 SSR d   1     -12.196 -23.656   1.282  0.00  0.00    -0.048 C 
ATOM     44  H   SSR d   1     -12.867 -22.906   0.863  0.00  0.00     0.033 H 
ATOM     45  H   SSR d   1     -11.858 -24.325   0.491  0.00  0.00     0.033 H 
ATOM     46  H   SSR d   1     -12.722 -24.230   2.045  0.00  0.00     0.033 H 
ENDBRANCH  34  43
ENDBRANCH  30  33
ENDBRANCH   8  30
BRANCH   5  47
ATOM     47  C12 SSR d   1      -7.204 -26.640  -1.955  0.00  0.00    -0.048 C 
ATOM     48  H   SSR d   1      -6.464 -25.867  -2.163  0.00  0.00     0.033 H 
ATOM     49  H   SSR d   1      -7.310 -26.763  -0.877  0.00  0.00     0.033 H 
ATOM     50  H   SSR d   1      -6.882 -27.582  -2.400  0.00  0.00     0.033 H 
ENDBRANCH   5  47
BRANCH   7  51
ATOM     51  C35 SSR d   1     -11.921 -22.869  -2.576  0.00  0.00     0.039 A 
ATOM     52  C36 SSR d   1     -11.813 -21.540  -3.056  0.00  0.00    -0.057 A 
ATOM     53  C37 SSR d   1     -12.913 -20.812  -3.504  0.00  0.00    -0.081 A 
ATOM     54  H   SSR d   1     -10.830 -21.069  -3.075  0.00  0.00     0.086 H 
ATOM     55  C38 SSR d   1     -14.177 -21.397  -3.543  0.00  0.00    -0.083 A 
ATOM     56  H   SSR d   1     -12.784 -19.779  -3.826  0.00  0.00     0.083 H 
ATOM     57  C39 SSR d   1     -14.338 -22.712  -3.104  0.00  0.00    -0.081 A 
ATOM     58  H   SSR d   1     -15.033 -20.832  -3.913  0.00  0.00     0.083 H 
ATOM     59  C40 SSR d   1     -13.230 -23.411  -2.619  0.00  0.00    -0.057 A 
ATOM     60  H   SSR d   1     -15.318 -23.189  -3.139  0.00  0.00     0.083 H 
ATOM     61  H   SSR d   1     -13.380 -24.427  -2.254  0.00  0.00     0.086 H 
ENDBRANCH   7  51
BRANCH   6  62
ATOM     62  O16 SSR d   1      -8.427 -28.110  -4.071  0.00  0.00    -0.360 OA
ATOM     63  H   SSR d   1      -8.916 -28.471  -4.814  0.00  0.00     0.217 HD
ENDBRANCH   6  62
TORSDOF 7
