REMARK  10 active torsions:
REMARK  status: ('A' for Active; 'I' for Inactive)
REMARK    1  A    between atoms: N1_3  and  C1_1 
REMARK    2  A    between atoms: C8_17  and  O2_8 
REMARK    3  A    between atoms: O2_8  and  C11_20 
REMARK    4  A    between atoms: C3_9  and  C5_14 
REMARK    5  A    between atoms: C12_21  and  C3_9 
REMARK    6  A    between atoms: C4_12  and  N3_11 
REMARK    7  A    between atoms: C18_27  and  C16_25 
REMARK    8  A    between atoms: C20_29  and  C19_28 
REMARK    9  A    between atoms: C21_30  and  C20_29 
REMARK   10  A    between atoms: C21_30  and  C22_31 
ROOT
ATOM      1  N1  ZOO d   1      15.413  -5.358  17.141  0.00  0.00    -0.153 N 
ATOM      2  O1  ZOO d   1      14.467  -6.471  18.960  0.00  0.00    -0.269 OA
ATOM      3  C2  ZOO d   1      14.754  -6.385  17.770  0.00  0.00     0.276 A 
ATOM      4  N2  ZOO d   1      14.945  -6.754  15.455  0.00  0.00    -0.199 N 
ATOM      5  C3  ZOO d   1      14.369  -7.397  16.673  0.00  0.00     0.184 A 
ATOM      6  C4  ZOO d   1      15.501  -5.637  15.810  0.00  0.00     0.677 A 
ATOM      7  H4  ZOO d   1      14.907  -7.132  14.498  0.00  0.00     0.179 HD
ENDROOT
BRANCH   5   8
ATOM      8  C5  ZOO d   1      14.933  -8.819  16.893  0.00  0.00    -0.015 A 
ATOM      9  C6  ZOO d   1      15.370  -9.320  18.134  0.00  0.00    -0.071 A 
ATOM     10  C7  ZOO d   1      15.853 -10.631  18.242  0.00  0.00    -0.050 A 
ATOM     11  H7  ZOO d   1      15.333  -8.687  19.013  0.00  0.00     0.084 H 
ATOM     12  C8  ZOO d   1      15.911 -11.468  17.128  0.00  0.00     0.074 A 
ATOM     13  H8  ZOO d   1      16.186 -11.000  19.205  0.00  0.00     0.087 H 
ATOM     14  C9  ZOO d   1      15.482 -10.980  15.889  0.00  0.00    -0.050 A 
ATOM     15  C10 ZOO d   1      15.004  -9.667  15.776  0.00  0.00    -0.071 A 
ATOM     16  H9  ZOO d   1      15.519 -11.619  15.014  0.00  0.00     0.087 H 
ATOM     17  H10 ZOO d   1      14.683  -9.299  14.808  0.00  0.00     0.084 H 
BRANCH  12  18
ATOM     18  O2  ZOO d   1      16.402 -12.732  17.367  0.00  0.00    -0.290 OA
BRANCH  18  19
ATOM     19  C11 ZOO d   1      17.059 -13.364  16.282  0.00  0.00     0.310 C 
ATOM     20  F1  ZOO d   1      17.922 -14.274  16.770  0.00  0.00    -0.184 F 
ATOM     21  F2  ZOO d   1      16.105 -14.033  15.584  0.00  0.00    -0.184 F 
ATOM     22  H11 ZOO d   1      17.578 -12.629  15.649  0.00  0.00     0.195 H 
ENDBRANCH  18  19
ENDBRANCH  12  18
ENDBRANCH   5   8
BRANCH   5  23
ATOM     23  C12 ZOO d   1      12.839  -7.446  16.641  0.00  0.00    -0.014 A 
ATOM     24  C13 ZOO d   1      12.112  -8.473  17.290  0.00  0.00    -0.071 A 
ATOM     25  C14 ZOO d   1      10.714  -8.486  17.290  0.00  0.00    -0.044 A 
ATOM     26  H12 ZOO d   1      12.650  -9.265  17.797  0.00  0.00     0.084 H 
ATOM     27  C15 ZOO d   1      10.032  -7.460  16.644  0.00  0.00     0.135 A 
ATOM     28  H13 ZOO d   1      10.170  -9.283  17.785  0.00  0.00     0.088 H 
ATOM     29  F4  ZOO d   1       8.690  -7.476  16.650  0.00  0.00    -0.205 F 
ATOM     30  C16 ZOO d   1      10.727  -6.420  16.003  0.00  0.00     0.057 A 
ATOM     31  C17 ZOO d   1      12.120  -6.408  16.001  0.00  0.00    -0.052 A 
ATOM     32  H14 ZOO d   1      12.654  -5.603  15.509  0.00  0.00     0.086 H 
BRANCH  30  33
ATOM     33  C18 ZOO d   1      10.013  -5.380  15.346  0.00  0.00    -0.064 C 
ATOM     34  C19 ZOO d   1       9.392  -4.517  14.796  0.00  0.00    -0.101 C 
BRANCH  34  35
ATOM     35  C20 ZOO d   1       8.640  -3.448  14.132  0.00  0.00    -0.007 C 
ATOM     36  H15 ZOO d   1       7.565  -3.605  14.304  0.00  0.00     0.052 H 
ATOM     37  H16 ZOO d   1       8.847  -3.480  13.052  0.00  0.00     0.052 H 
BRANCH  35  38
ATOM     38  C21 ZOO d   1       9.038  -2.071  14.677  0.00  0.00    -0.031 C 
ATOM     39  H17 ZOO d   1       9.154  -2.134  15.769  0.00  0.00     0.037 H 
ATOM     40  H18 ZOO d   1       8.250  -1.343  14.433  0.00  0.00     0.037 H 
BRANCH  38  41
ATOM     41  C22 ZOO d   1      10.351  -1.613  14.059  0.00  0.00     0.059 C 
ATOM     42  F3  ZOO d   1      10.487  -2.267  12.862  0.00  0.00    -0.255 F 
ATOM     43  H19 ZOO d   1      10.330  -0.526  13.894  0.00  0.00     0.082 H 
ATOM     44  H20 ZOO d   1      11.189  -1.867  14.724  0.00  0.00     0.082 H 
ENDBRANCH  38  41
ENDBRANCH  35  38
ENDBRANCH  34  35
ENDBRANCH  30  33
ENDBRANCH   5  23
BRANCH   1  45
ATOM     45  C1  ZOO d   1      15.929  -4.189  17.856  0.00  0.00     0.005 C 
ATOM     46  H1  ZOO d   1      15.686  -4.277  18.925  0.00  0.00     0.058 H 
ATOM     47  H2  ZOO d   1      15.468  -3.277  17.449  0.00  0.00     0.058 H 
ATOM     48  H3  ZOO d   1      17.021  -4.135  17.731  0.00  0.00     0.058 H 
ENDBRANCH   1  45
BRANCH   6  49
ATOM     49  N3  ZOO d   1      16.129  -4.828  14.907  0.00  0.00    -0.234 N 
ATOM     50  H5  ZOO d   1      16.561  -3.947  15.219  0.00  0.00     0.174 HD
ATOM     51  H6  ZOO d   1      16.170  -5.099  13.914  0.00  0.00     0.174 HD
ENDBRANCH   6  49
TORSDOF 10
