REMARK  14 active torsions:
REMARK  status: ('A' for Active; 'I' for Inactive)
REMARK    1  A    between atoms: C20_2  and  C19_4 
REMARK    2  A    between atoms: C19_4  and  C18_5 
REMARK    3  A    between atoms: C18_5  and  C17_6 
REMARK    4  A    between atoms: C17_6  and  C16_7 
REMARK    5  A    between atoms: C16_7  and  O15_9 
REMARK    6  A    between atoms: O15_9  and  C14_10 
REMARK    7  A    between atoms: C14_10  and  C2_11 
REMARK    8  A    between atoms: C2_11  and  S1_12 
REMARK    9  A    between atoms: C2_11  and  C21_15 
REMARK   10  A    between atoms: C2_11  and  C3_16 
REMARK   11  A    between atoms: C3_16  and  C9_17 
REMARK   12  A    between atoms: C3_16  and  N4_20 
REMARK   13  A    between atoms: C5_21  and  C6_22 
REMARK   14  A    between atoms: C6_22  and  C7_23 
ROOT
ATOM      1  C2  SA2 d   1      31.805  66.000   2.269  0.00  0.00     0.112 C 
ENDROOT
BRANCH   1   2
ATOM      2  C14 SA2 d   1      33.058  65.568   1.532  0.00  0.00     0.051 C 
ATOM      3  H   SA2 d   1      33.128  66.133   0.603  0.00  0.00     0.078 H 
ATOM      4  H   SA2 d   1      33.920  65.755   2.172  0.00  0.00     0.078 H 
BRANCH   2   5
ATOM      5  O15 SA2 d   1      33.016  64.174   1.217  0.00  0.00    -0.320 OA
BRANCH   5   6
ATOM      6  C16 SA2 d   1      34.072  63.558   0.439  0.00  0.00     0.258 C 
ATOM      7  O24 SA2 d   1      34.995  64.229  -0.004  0.00  0.00    -0.265 OA
BRANCH   6   8
ATOM      8  C17 SA2 d   1      34.035  62.068   0.197  0.00  0.00     0.016 C 
ATOM      9  H   SA2 d   1      33.047  61.677   0.438  0.00  0.00     0.048 H 
ATOM     10  H   SA2 d   1      34.245  61.856  -0.851  0.00  0.00     0.048 H 
BRANCH   8  11
ATOM     11  C18 SA2 d   1      35.086  61.407   1.082  0.00  0.00    -0.048 C 
ATOM     12  H   SA2 d   1      35.060  60.333   0.895  0.00  0.00     0.034 H 
ATOM     13  H   SA2 d   1      36.055  61.844   0.841  0.00  0.00     0.034 H 
BRANCH  11  14
ATOM     14  C19 SA2 d   1      34.818  61.637   2.566  0.00  0.00     0.016 C 
ATOM     15  H   SA2 d   1      35.178  62.626   2.851  0.00  0.00     0.049 H 
ATOM     16  H   SA2 d   1      33.747  61.571   2.756  0.00  0.00     0.049 H 
BRANCH  14  17
ATOM     17  C20 SA2 d   1      35.541  60.583   3.380  0.00  0.00     0.172 C 
ATOM     18  O23 SA2 d   1      34.867  59.641   3.850  0.00  0.00    -0.648 OA
ATOM     19  O22 SA2 d   1      36.768  60.707   3.558  0.00  0.00    -0.648 OA
ENDBRANCH  14  17
ENDBRANCH  11  14
ENDBRANCH   8  11
ENDBRANCH   6   8
ENDBRANCH   5   6
ENDBRANCH   2   5
ENDBRANCH   1   2
BRANCH   1  20
ATOM     20  S1  SA2 d   1      31.982  67.595   2.788  0.00  0.00     0.150 S 
ATOM     21  O13 SA2 d   1      33.058  67.648   3.750  0.00  0.00    -0.230 OA
ATOM     22  O12 SA2 d   1      32.438  68.383   1.681  0.00  0.00    -0.230 OA
ATOM     23  H   SA2 d   1      30.828  68.028   3.287  0.00  0.00     0.172 HD
ENDBRANCH   1  20
BRANCH   1  24
ATOM     24  C21 SA2 d   1      30.639  65.909   1.289  0.00  0.00    -0.052 C 
ATOM     25  H   SA2 d   1      29.724  66.234   1.784  0.00  0.00     0.029 H 
ATOM     26  H   SA2 d   1      30.837  66.551   0.430  0.00  0.00     0.029 H 
ATOM     27  H   SA2 d   1      30.526  64.878   0.955  0.00  0.00     0.029 H 
ENDBRANCH   1  24
BRANCH   1  28
ATOM     28  C3  SA2 d   1      31.614  65.032   3.461  0.00  0.00     0.137 C 
ATOM     29  H   SA2 d   1      31.377  64.064   3.020  0.00  0.00     0.095 H 
BRANCH  28  30
ATOM     30  C9  SA2 d   1      30.429  65.338   4.347  0.00  0.00     0.200 C 
ATOM     31  O10 SA2 d   1      30.526  66.163   5.280  0.00  0.00    -0.646 OA
ATOM     32  O11 SA2 d   1      29.374  64.716   4.157  0.00  0.00    -0.646 OA
ENDBRANCH  28  30
BRANCH  28  33
ATOM     33  N4  SA2 d   1      32.853  64.927   4.235  0.00  0.00    -0.287 NA
ATOM     34  C5  SA2 d   1      33.209  63.840   4.926  0.00  0.00    -0.016 C 
ATOM     35  H   SA2 d   1      34.216  63.809   5.343  0.00  0.00     0.107 H 
BRANCH  34  36
ATOM     36  C6  SA2 d   1      32.411  62.787   5.140  0.00  0.00     0.013 C 
ATOM     37  H   SA2 d   1      32.212  62.380   4.149  0.00  0.00     0.051 H 
ATOM     38  H   SA2 d   1      31.580  63.179   5.727  0.00  0.00     0.051 H 
BRANCH  36  39
ATOM     39  C7  SA2 d   1      32.919  61.662   5.913  0.00  0.00     0.092 C 
ATOM     40  O8  SA2 d   1      33.914  61.816   6.610  0.00  0.00    -0.307 OA
ATOM     41  H   SA2 d   1      32.419  60.694   5.872  0.00  0.00     0.143 H 
ENDBRANCH  36  39
ENDBRANCH  34  36
ENDBRANCH  28  33
ENDBRANCH   1  28
TORSDOF 14
