REMARK  14 active torsions:
REMARK  status: ('A' for Active; 'I' for Inactive)
REMARK    1  A    between atoms: C20_2  and  C19_4 
REMARK    2  A    between atoms: C19_4  and  C18_5 
REMARK    3  A    between atoms: C18_5  and  C17_6 
REMARK    4  A    between atoms: C17_6  and  C16_7 
REMARK    5  A    between atoms: C16_7  and  O15_9 
REMARK    6  A    between atoms: O15_9  and  C14_10 
REMARK    7  A    between atoms: C14_10  and  C2_11 
REMARK    8  A    between atoms: C2_11  and  S1_12 
REMARK    9  A    between atoms: C2_11  and  C21_15 
REMARK   10  A    between atoms: C2_11  and  C3_16 
REMARK   11  A    between atoms: C3_16  and  C9_17 
REMARK   12  A    between atoms: C3_16  and  N4_20 
REMARK   13  A    between atoms: C5_21  and  C6_22 
REMARK   14  A    between atoms: C6_22  and  C7_23 
ROOT
ATOM      1  C2  SA2 d   1      31.752  66.267   2.149  0.00  0.00     0.112 C 
ENDROOT
BRANCH   1   2
ATOM      2  C14 SA2 d   1      32.983  65.837   1.366  0.00  0.00     0.051 C 
ATOM      3  H   SA2 d   1      33.033  66.409   0.440  0.00  0.00     0.078 H 
ATOM      4  H   SA2 d   1      33.871  66.018   1.971  0.00  0.00     0.078 H 
BRANCH   2   5
ATOM      5  O15 SA2 d   1      32.909  64.445   1.051  0.00  0.00    -0.320 OA
BRANCH   5   6
ATOM      6  C16 SA2 d   1      33.992  63.784   0.368  0.00  0.00     0.258 C 
ATOM      7  O24 SA2 d   1      34.931  64.443  -0.059  0.00  0.00    -0.265 OA
BRANCH   6   8
ATOM      8  C17 SA2 d   1      33.944  62.284   0.213  0.00  0.00     0.016 C 
ATOM      9  H   SA2 d   1      32.961  61.916   0.509  0.00  0.00     0.048 H 
ATOM     10  H   SA2 d   1      34.127  62.017  -0.828  0.00  0.00     0.048 H 
BRANCH   8  11
ATOM     11  C18 SA2 d   1      35.011  61.657   1.096  0.00  0.00    -0.048 C 
ATOM     12  H   SA2 d   1      34.995  60.579   0.937  0.00  0.00     0.034 H 
ATOM     13  H   SA2 d   1      35.973  62.095   0.831  0.00  0.00     0.034 H 
BRANCH  11  14
ATOM     14  C19 SA2 d   1      34.756  61.925   2.580  0.00  0.00     0.016 C 
ATOM     15  H   SA2 d   1      35.091  62.921   2.870  0.00  0.00     0.049 H 
ATOM     16  H   SA2 d   1      33.692  61.898   2.814  0.00  0.00     0.049 H 
BRANCH  14  17
ATOM     17  C20 SA2 d   1      35.513  60.850   3.317  0.00  0.00     0.172 C 
ATOM     18  O23 SA2 d   1      34.860  59.877   3.749  0.00  0.00    -0.648 OA
ATOM     19  O22 SA2 d   1      36.747  60.990   3.447  0.00  0.00    -0.648 OA
ENDBRANCH  14  17
ENDBRANCH  11  14
ENDBRANCH   8  11
ENDBRANCH   6   8
ENDBRANCH   5   6
ENDBRANCH   2   5
ENDBRANCH   1   2
BRANCH   1  20
ATOM     20  S1  SA2 d   1      31.986  67.857   2.658  0.00  0.00     0.150 S 
ATOM     21  O13 SA2 d   1      33.078  67.904   3.604  0.00  0.00    -0.230 OA
ATOM     22  O12 SA2 d   1      32.346  68.655   1.519  0.00  0.00    -0.230 OA
ATOM     23  H   SA2 d   1      30.872  68.313   3.224  0.00  0.00     0.172 HD
ENDBRANCH   1  20
BRANCH   1  24
ATOM     24  C21 SA2 d   1      30.553  66.182   1.208  0.00  0.00    -0.052 C 
ATOM     25  H   SA2 d   1      29.659  66.524   1.729  0.00  0.00     0.029 H 
ATOM     26  H   SA2 d   1      30.731  66.812   0.337  0.00  0.00     0.029 H 
ATOM     27  H   SA2 d   1      30.416  65.149   0.889  0.00  0.00     0.029 H 
ENDBRANCH   1  24
BRANCH   1  28
ATOM     28  C3  SA2 d   1      31.534  65.300   3.335  0.00  0.00     0.137 C 
ATOM     29  H   SA2 d   1      31.293  64.346   2.865  0.00  0.00     0.095 H 
BRANCH  28  30
ATOM     30  C9  SA2 d   1      30.372  65.663   4.221  0.00  0.00     0.200 C 
ATOM     31  O10 SA2 d   1      30.533  66.491   5.138  0.00  0.00    -0.646 OA
ATOM     32  O11 SA2 d   1      29.277  65.107   4.025  0.00  0.00    -0.646 OA
ENDBRANCH  28  30
BRANCH  28  33
ATOM     33  N4  SA2 d   1      32.738  65.156   4.148  0.00  0.00    -0.287 NA
ATOM     34  C5  SA2 d   1      33.054  64.067   4.839  0.00  0.00    -0.016 C 
ATOM     35  H   SA2 d   1      34.055  64.025   5.268  0.00  0.00     0.107 H 
BRANCH  34  36
ATOM     36  C6  SA2 d   1      32.256  63.019   5.056  0.00  0.00     0.013 C 
ATOM     37  H   SA2 d   1      32.040  62.606   4.070  0.00  0.00     0.051 H 
ATOM     38  H   SA2 d   1      31.418  63.405   5.636  0.00  0.00     0.051 H 
BRANCH  36  39
ATOM     39  C7  SA2 d   1      32.794  61.911   5.835  0.00  0.00     0.092 C 
ATOM     40  O8  SA2 d   1      33.838  62.058   6.450  0.00  0.00    -0.307 OA
ATOM     41  H   SA2 d   1      32.267  60.957   5.868  0.00  0.00     0.143 H 
ENDBRANCH  36  39
ENDBRANCH  34  36
ENDBRANCH  28  33
ENDBRANCH   1  28
TORSDOF 14
