REMARK  8 active torsions:
REMARK  status: ('A' for Active; 'I' for Inactive)
REMARK    1  A    between atoms: N_1  and  CA_2 
REMARK    2  A    between atoms: CA_2  and  CB_3 
REMARK    3  A    between atoms: CA_2  and  C_9 
REMARK    4  A    between atoms: CB_3  and  CG_4 
REMARK    5  A    between atoms: CG_4  and  CD_5 
REMARK    6  A    between atoms: CD_5  and  CE_6 
REMARK    7  A    between atoms: CE_6  and  NZ_7 
REMARK    8  A    between atoms: NZ_7  and  CM_8 
ROOT
ATOM      1  CG  MLZ d   1      28.068   9.369  26.386  0.00  0.00    -0.061 C 
ATOM      2  H   MLZ d   1      27.930   9.641  25.340  0.00  0.00     0.033 H 
ATOM      3  H   MLZ d   1      27.200   9.663  26.976  0.00  0.00     0.033 H 
ENDROOT
BRANCH   1   4
ATOM      4  CB  MLZ d   1      29.298  10.088  26.925  0.00  0.00    -0.029 C 
ATOM      5  H   MLZ d   1      29.403   9.873  27.988  0.00  0.00     0.036 H 
ATOM      6  H   MLZ d   1      30.181   9.742  26.388  0.00  0.00     0.036 H 
BRANCH   4   7
ATOM      7  CA  MLZ d   1      29.147  11.592  26.728  0.00  0.00     0.182 C 
ATOM      8  H   MLZ d   1      29.142  12.076  27.705  0.00  0.00     0.101 H 
BRANCH   7   9
ATOM      9  N   MLZ d   1      27.852  11.881  26.045  0.00  0.00    -0.065 N 
ATOM     10  H   MLZ d   1      27.086  11.483  26.588  0.00  0.00     0.275 HD
ATOM     11  H   MLZ d   1      27.727  12.890  25.969  0.00  0.00     0.275 HD
ATOM     12  H   MLZ d   1      27.861  11.467  25.113  0.00  0.00     0.275 HD
ENDBRANCH   7   9
BRANCH   7  13
ATOM     13  C   MLZ d   1      30.310  12.161  25.963  0.00  0.00     0.204 C 
ATOM     14  O   MLZ d   1      31.409  11.609  25.936  0.00  0.00    -0.646 OA
ATOM     15  O   MLZ d   1      30.154  13.239  25.329  0.00  0.00    -0.646 OA
ENDBRANCH   7  13
ENDBRANCH   4   7
ENDBRANCH   1   4
BRANCH   1  16
ATOM     16  CD  MLZ d   1      28.245   7.857  26.485  0.00  0.00    -0.043 C 
ATOM     17  H   MLZ d   1      28.771   7.631  27.412  0.00  0.00     0.035 H 
ATOM     18  H   MLZ d   1      28.806   7.518  25.614  0.00  0.00     0.035 H 
BRANCH  16  19
ATOM     19  CE  MLZ d   1      26.902   7.137  26.505  0.00  0.00     0.081 C 
ATOM     20  H   MLZ d   1      26.376   7.379  25.581  0.00  0.00     0.075 H 
ATOM     21  H   MLZ d   1      26.358   7.464  27.391  0.00  0.00     0.075 H 
BRANCH  19  22
ATOM     22  NZ  MLZ d   1      27.047   5.697  26.574  0.00  0.00    -0.079 N 
ATOM     23  H   MLZ d   1      27.657   5.535  27.375  0.00  0.00     0.276 HD
ATOM     24  H   MLZ d   1      27.362   5.422  25.644  0.00  0.00     0.276 HD
BRANCH  22  25
ATOM     25  CM  MLZ d   1      25.877   4.878  26.826  0.00  0.00     0.065 C 
ATOM     26  H   MLZ d   1      25.442   5.154  27.787  0.00  0.00     0.067 H 
ATOM     27  H   MLZ d   1      25.145   5.040  26.035  0.00  0.00     0.067 H 
ATOM     28  H   MLZ d   1      26.168   3.828  26.845  0.00  0.00     0.067 H 
ENDBRANCH  22  25
ENDBRANCH  19  22
ENDBRANCH  16  19
ENDBRANCH   1  16
TORSDOF 8
