REMARK  4 active torsions:
REMARK  status: ('A' for Active; 'I' for Inactive)
REMARK    1  A    between atoms: N12_7  and  C4_4 
REMARK    2  A    between atoms: C15_10  and  C39_22 
REMARK    3  A    between atoms: C60_30  and  C16_11 
REMARK    4  A    between atoms: C26_16  and  C60_30 
REMARK       I    between atoms: C39_22  and  N40_23 
ROOT
ATOM      1  N12 S51 d   1     -10.988 -23.519  -1.863  0.00  0.00    -0.313 N 
ATOM      2  C13 S51 d   1     -10.586 -24.616  -2.546  0.00  0.00     0.051 A 
ATOM      3  C14 S51 d   1      -9.388 -25.021  -1.944  0.00  0.00     0.009 A 
ATOM      4  C15 S51 d   1      -9.146 -24.129  -0.898  0.00  0.00     0.068 C 
ATOM      5  C16 S51 d   1     -10.056 -23.062  -0.988  0.00  0.00     0.038 C 
ATOM      6  C17 S51 d   1     -11.154 -25.434  -3.538  0.00  0.00    -0.056 A 
ATOM      7  C18 S51 d   1     -10.496 -26.600  -3.952  0.00  0.00    -0.081 A 
ATOM      8  C19 S51 d   1      -9.287 -26.979  -3.358  0.00  0.00    -0.082 A 
ATOM      9  C20 S51 d   1      -8.725 -26.191  -2.346  0.00  0.00    -0.070 A 
ATOM     10  H   S51 d   1     -12.109 -25.161  -3.987  0.00  0.00     0.087 H 
ATOM     11  H   S51 d   1     -10.928 -27.215  -4.741  0.00  0.00     0.083 H 
ATOM     12  H   S51 d   1      -8.782 -27.889  -3.683  0.00  0.00     0.083 H 
ATOM     13  H   S51 d   1      -7.785 -26.482  -1.877  0.00  0.00     0.084 H 
ENDROOT
BRANCH   4  14
ATOM     14  C39 S51 d   1      -7.820 -24.177  -0.165  0.00  0.00     0.256 C 
ATOM     15  N40 S51 d   1      -7.456 -25.175   0.678  0.00  0.00    -0.345 N 
ATOM     16  C42 S51 d   1      -8.268 -26.360   0.965  0.00  0.00     0.020 C 
ATOM     17  C46 S51 d   1      -6.131 -25.166   1.333  0.00  0.00     0.020 C 
ATOM     18  C43 S51 d   1      -8.454 -26.430   2.480  0.00  0.00     0.096 C 
ATOM     19  H   S51 d   1      -7.774 -27.260   0.599  0.00  0.00     0.066 H 
ATOM     20  H   S51 d   1      -9.234 -26.292   0.464  0.00  0.00     0.066 H 
ATOM     21  N44 S51 d   1      -7.195 -26.365   3.196  0.00  0.00    -0.072 N 
ATOM     22  H   S51 d   1      -8.928 -27.382   2.718  0.00  0.00     0.078 H 
ATOM     23  H   S51 d   1      -9.059 -25.576   2.785  0.00  0.00     0.078 H 
ATOM     24  C45 S51 d   1      -6.300 -25.277   2.850  0.00  0.00     0.096 C 
ATOM     25  H   S51 d   1      -6.696 -27.223   2.962  0.00  0.00     0.277 HD
ATOM     26  H   S51 d   1      -7.438 -26.226   4.177  0.00  0.00     0.277 HD
ATOM     27  H   S51 d   1      -5.325 -25.471   3.297  0.00  0.00     0.078 H 
ATOM     28  H   S51 d   1      -6.723 -24.344   3.224  0.00  0.00     0.078 H 
ATOM     29  H   S51 d   1      -5.619 -24.234   1.095  0.00  0.00     0.066 H 
ATOM     30  H   S51 d   1      -5.546 -26.012   0.973  0.00  0.00     0.066 H 
ATOM     31  O41 S51 d   1      -7.063 -23.228  -0.340  0.00  0.00    -0.267 OA
ENDBRANCH   4  14
BRANCH   5  32
ATOM     32  C60 S51 d   1     -10.163 -21.832  -0.083  0.00  0.00    -0.001 C 
ATOM     33  H   S51 d   1     -11.098 -21.312  -0.292  0.00  0.00     0.049 H 
ATOM     34  H   S51 d   1      -9.319 -21.169  -0.275  0.00  0.00     0.049 H 
BRANCH  32  35
ATOM     35  C26 S51 d   1     -10.143 -22.254   1.354  0.00  0.00    -0.052 A 
ATOM     36  C29 S51 d   1      -9.128 -21.768   2.172  0.00  0.00    -0.076 A 
ATOM     37  C30 S51 d   1      -9.079 -22.200   3.499  0.00  0.00    -0.082 A 
ATOM     38  H   S51 d   1      -8.388 -21.067   1.786  0.00  0.00     0.084 H 
ATOM     39  C31 S51 d   1     -10.030 -23.109   3.979  0.00  0.00    -0.083 A 
ATOM     40  H   S51 d   1      -8.298 -21.829   4.163  0.00  0.00     0.083 H 
ATOM     41  C32 S51 d   1     -11.041 -23.605   3.148  0.00  0.00    -0.082 A 
ATOM     42  H   S51 d   1      -9.982 -23.436   5.018  0.00  0.00     0.083 H 
ATOM     43  C33 S51 d   1     -11.095 -23.171   1.826  0.00  0.00    -0.076 A 
ATOM     44  H   S51 d   1     -11.773 -24.318   3.529  0.00  0.00     0.083 H 
ATOM     45  H   S51 d   1     -11.874 -23.542   1.160  0.00  0.00     0.084 H 
ENDBRANCH  32  35
ENDBRANCH   5  32
BRANCH   1  46
ATOM     46  C4  S51 d   1     -11.946 -22.693  -2.378  0.00  0.00     0.039 A 
ATOM     47  C3  S51 d   1     -13.308 -23.062  -2.393  0.00  0.00    -0.057 A 
ATOM     48  C2  S51 d   1     -14.323 -22.256  -2.918  0.00  0.00    -0.081 A 
ATOM     49  H   S51 d   1     -13.584 -24.029  -1.972  0.00  0.00     0.086 H 
ATOM     50  C1  S51 d   1     -14.010 -20.997  -3.429  0.00  0.00    -0.083 A 
ATOM     51  H   S51 d   1     -15.354 -22.610  -2.928  0.00  0.00     0.083 H 
ATOM     52  C6  S51 d   1     -12.682 -20.573  -3.428  0.00  0.00    -0.081 A 
ATOM     53  H   S51 d   1     -14.794 -20.352  -3.825  0.00  0.00     0.083 H 
ATOM     54  C5  S51 d   1     -11.687 -21.416  -2.925  0.00  0.00    -0.057 A 
ATOM     55  H   S51 d   1     -12.421 -19.589  -3.817  0.00  0.00     0.083 H 
ATOM     56  H   S51 d   1     -10.654 -21.069  -2.956  0.00  0.00     0.086 H 
ENDBRANCH   1  46
TORSDOF 4
