REMARK  4 active torsions:
REMARK  status: ('A' for Active; 'I' for Inactive)
REMARK    1  A    between atoms: C16_12  and  O1_2 
REMARK    2  A    between atoms: O1_2  and  C26_17 
REMARK    3  A    between atoms: N12_8  and  C4_5 
REMARK    4  A    between atoms: C15_11  and  C39_23 
REMARK       I    between atoms: C39_23  and  N40_24 
ROOT
ATOM      1  N12 S52 d   1     -10.343 -23.309  -1.635  0.00  0.00    -0.290 N 
ATOM      2  C13 S52 d   1      -9.882 -24.372  -2.346  0.00  0.00     0.053 A 
ATOM      3  C14 S52 d   1      -8.655 -24.756  -1.731  0.00  0.00     0.011 A 
ATOM      4  C15 S52 d   1      -8.426 -23.870  -0.678  0.00  0.00     0.096 C 
ATOM      5  C16 S52 d   1      -9.451 -22.957  -0.719  0.00  0.00     0.172 C 
ATOM      6  C17 S52 d   1     -10.390 -25.119  -3.418  0.00  0.00    -0.056 A 
ATOM      7  C18 S52 d   1      -9.665 -26.229  -3.868  0.00  0.00    -0.081 A 
ATOM      8  C19 S52 d   1      -8.458 -26.601  -3.247  0.00  0.00    -0.082 A 
ATOM      9  C20 S52 d   1      -7.939 -25.864  -2.178  0.00  0.00    -0.070 A 
ATOM     10  H   S52 d   1     -11.331 -24.841  -3.892  0.00  0.00     0.087 H 
ATOM     11  H   S52 d   1     -10.040 -26.812  -4.709  0.00  0.00     0.083 H 
ATOM     12  H   S52 d   1      -7.919 -27.478  -3.605  0.00  0.00     0.083 H 
ATOM     13  H   S52 d   1      -6.998 -26.149  -1.707  0.00  0.00     0.084 H 
ENDROOT
BRANCH   4  14
ATOM     14  C39 S52 d   1      -7.189 -23.815   0.181  0.00  0.00     0.259 C 
ATOM     15  N40 S52 d   1      -6.702 -24.817   0.952  0.00  0.00    -0.345 N 
ATOM     16  C42 S52 d   1      -7.286 -26.154   1.100  0.00  0.00     0.020 C 
ATOM     17  C46 S52 d   1      -5.477 -24.580   1.722  0.00  0.00     0.020 C 
ATOM     18  C43 S52 d   1      -7.597 -26.381   2.576  0.00  0.00     0.096 C 
ATOM     19  H   S52 d   1      -6.585 -26.909   0.746  0.00  0.00     0.066 H 
ATOM     20  H   S52 d   1      -8.199 -26.230   0.510  0.00  0.00     0.066 H 
ATOM     21  N44 S52 d   1      -6.555 -25.906   3.456  0.00  0.00    -0.072 N 
ATOM     22  H   S52 d   1      -7.697 -27.455   2.731  0.00  0.00     0.078 H 
ATOM     23  H   S52 d   1      -8.506 -25.827   2.811  0.00  0.00     0.078 H 
ATOM     24  C45 S52 d   1      -5.919 -24.628   3.180  0.00  0.00     0.096 C 
ATOM     25  H   S52 d   1      -5.807 -26.594   3.369  0.00  0.00     0.277 HD
ATOM     26  H   S52 d   1      -7.013 -25.779   4.358  0.00  0.00     0.277 HD
ATOM     27  H   S52 d   1      -5.049 -24.510   3.826  0.00  0.00     0.078 H 
ATOM     28  H   S52 d   1      -6.628 -23.822   3.370  0.00  0.00     0.078 H 
ATOM     29  H   S52 d   1      -5.016 -23.625   1.469  0.00  0.00     0.066 H 
ATOM     30  H   S52 d   1      -4.711 -25.324   1.505  0.00  0.00     0.066 H 
ATOM     31  O41 S52 d   1      -6.603 -22.702   0.116  0.00  0.00    -0.267 OA
ENDBRANCH   4  14
BRANCH   5  32
ATOM     32  O1  S52 d   1      -9.615 -21.918   0.133  0.00  0.00    -0.292 OA
BRANCH  32  33
ATOM     33  C26 S52 d   1      -9.358 -22.038   1.467  0.00  0.00     0.077 A 
ATOM     34  C29 S52 d   1      -8.524 -21.075   2.065  0.00  0.00    -0.050 A 
ATOM     35  C30 S52 d   1      -8.251 -21.199   3.435  0.00  0.00    -0.080 A 
ATOM     36  H   S52 d   1      -8.103 -20.257   1.481  0.00  0.00     0.087 H 
ATOM     37  C31 S52 d   1      -8.781 -22.261   4.192  0.00  0.00    -0.083 A 
ATOM     38  H   S52 d   1      -7.617 -20.459   3.923  0.00  0.00     0.083 H 
ATOM     39  C32 S52 d   1      -9.595 -23.200   3.566  0.00  0.00    -0.080 A 
ATOM     40  H   S52 d   1      -8.556 -22.347   5.255  0.00  0.00     0.083 H 
ATOM     41  C33 S52 d   1      -9.894 -23.101   2.204  0.00  0.00    -0.050 A 
ATOM     42  H   S52 d   1     -10.006 -24.026   4.147  0.00  0.00     0.083 H 
ATOM     43  H   S52 d   1     -10.535 -23.840   1.723  0.00  0.00     0.087 H 
ENDBRANCH  32  33
ENDBRANCH   5  32
BRANCH   1  44
ATOM     44  C4  S52 d   1     -11.424 -22.560  -2.004  0.00  0.00     0.042 A 
ATOM     45  C3  S52 d   1     -12.667 -23.082  -2.469  0.00  0.00    -0.057 A 
ATOM     46  C2  S52 d   1     -13.719 -22.256  -2.900  0.00  0.00    -0.081 A 
ATOM     47  H   S52 d   1     -12.806 -24.163  -2.491  0.00  0.00     0.086 H 
ATOM     48  C1  S52 d   1     -13.562 -20.862  -2.856  0.00  0.00    -0.083 A 
ATOM     49  H   S52 d   1     -14.648 -22.694  -3.265  0.00  0.00     0.083 H 
ATOM     50  C6  S52 d   1     -12.359 -20.299  -2.411  0.00  0.00    -0.081 A 
ATOM     51  H   S52 d   1     -14.380 -20.214  -3.170  0.00  0.00     0.083 H 
ATOM     52  C5  S52 d   1     -11.321 -21.137  -2.016  0.00  0.00    -0.057 A 
ATOM     53  H   S52 d   1     -12.238 -19.216  -2.375  0.00  0.00     0.083 H 
ATOM     54  H   S52 d   1     -10.382 -20.683  -1.700  0.00  0.00     0.086 H 
ENDBRANCH   1  44
TORSDOF 4
