REMARK  9 active torsions:
REMARK  status: ('A' for Active; 'I' for Inactive)
REMARK    1  A    between atoms: C4_1  and  C26_11 
REMARK    2  A    between atoms: C6_3  and  C7_4 
REMARK    3  A    between atoms: C7_4  and  N8_15 
REMARK       I    between atoms: C26_11  and  N28_28 
REMARK    4  A    between atoms: N2_13  and  C1_12 
REMARK    5  A    between atoms: N2_13  and  C3_14 
REMARK    6  A    between atoms: N28_28  and  O29_29 
REMARK    7  A    between atoms: O29_29  and  C30_30 
REMARK    8  A    between atoms: C30_30  and  C31_31 
REMARK    9  A    between atoms: C31_31  and  O32_32 
ROOT
ATOM      1  C4  3OR d   1      63.202 -10.375  12.198  0.00  0.00     0.064 A 
ATOM      2  C5  3OR d   1      62.707  -9.275  12.985  0.00  0.00    -0.054 A 
ATOM      3  C6  3OR d   1      63.544  -8.602  13.930  0.00  0.00     0.005 A 
ATOM      4  C1  3OR d   1      64.584 -10.816  12.362  0.00  0.00     0.090 A 
ATOM      5  C9  3OR d   1      64.881  -9.039  14.076  0.00  0.00     0.165 A 
ATOM      6  F10 3OR d   1      65.696  -8.433  14.953  0.00  0.00    -0.202 F 
ATOM      7  C11 3OR d   1      65.385 -10.109  13.315  0.00  0.00     0.183 A 
ATOM      8  F12 3OR d   1      66.660 -10.447  13.520  0.00  0.00    -0.200 F 
ATOM      9  H   3OR d   1      61.675  -8.949  12.858  0.00  0.00     0.086 H 
ENDROOT
BRANCH   3  10
ATOM     10  C7  3OR d   1      63.022  -7.448  14.755  0.00  0.00     0.050 C 
ATOM     11  H   3OR d   1      62.592  -6.719  14.068  0.00  0.00     0.075 H 
ATOM     12  H   3OR d   1      63.856  -7.053  15.335  0.00  0.00     0.075 H 
BRANCH  10  13
ATOM     13  N8  3OR d   1      61.978  -7.837  15.694  0.00  0.00    -0.222 N 
ATOM     14  C20 3OR d   1      60.675  -7.369  15.648  0.00  0.00     0.243 C 
ATOM     15  C22 3OR d   1      59.715  -7.879  16.706  0.00  0.00     0.013 C 
ATOM     16  O21 3OR d   1      60.267  -6.574  14.805  0.00  0.00    -0.271 OA
ATOM     17  C23 3OR d   1      60.380  -8.629  17.846  0.00  0.00    -0.035 C 
ATOM     18  H   3OR d   1      59.039  -8.578  16.214  0.00  0.00     0.047 H 
ATOM     19  H   3OR d   1      59.224  -7.008  17.139  0.00  0.00     0.047 H 
ATOM     20  C24 3OR d   1      61.448  -9.567  17.288  0.00  0.00     0.046 C 
ATOM     21  H   3OR d   1      59.631  -9.211  18.382  0.00  0.00     0.036 H 
ATOM     22  H   3OR d   1      60.844  -7.915  18.527  0.00  0.00     0.036 H 
ATOM     23  O25 3OR d   1      62.477  -8.761  16.673  0.00  0.00    -0.275 OA
ATOM     24  H   3OR d   1      61.009 -10.241  16.552  0.00  0.00     0.078 H 
ATOM     25  H   3OR d   1      61.873 -10.171  18.090  0.00  0.00     0.078 H 
ENDBRANCH  10  13
ENDBRANCH   3  10
BRANCH   1  26
ATOM     26  C26 3OR d   1      62.288 -11.065  11.207  0.00  0.00     0.277 C 
ATOM     27  O27 3OR d   1      62.772 -11.668  10.243  0.00  0.00    -0.265 OA
ATOM     28  N28 3OR d   1      60.930 -10.968  11.423  0.00  0.00    -0.231 N 
ATOM     29  H   3OR d   1      60.545 -10.608  12.296  0.00  0.00     0.197 HD
BRANCH  28  30
ATOM     30  O29 3OR d   1      60.098 -11.402  10.350  0.00  0.00    -0.275 OA
BRANCH  30  31
ATOM     31  C30 3OR d   1      59.317 -10.301   9.852  0.00  0.00     0.065 C 
ATOM     32  H   3OR d   1      59.504  -9.411  10.453  0.00  0.00     0.081 H 
ATOM     33  H   3OR d   1      58.256 -10.542   9.910  0.00  0.00     0.081 H 
BRANCH  31  34
ATOM     34  C31 3OR d   1      59.711 -10.042   8.406  0.00  0.00     0.039 C 
ATOM     35  H   3OR d   1      60.797  -9.990   8.326  0.00  0.00     0.077 H 
ATOM     36  H   3OR d   1      59.282  -9.097   8.073  0.00  0.00     0.077 H 
BRANCH  34  37
ATOM     37  O32 3OR d   1      59.225 -11.097   7.595  0.00  0.00    -0.399 OA
ATOM     38  H   3OR d   1      59.606 -11.927   7.890  0.00  0.00     0.209 HD
ENDBRANCH  34  37
ENDBRANCH  31  34
ENDBRANCH  30  31
ENDBRANCH  28  30
ENDBRANCH   1  26
BRANCH   4  39
ATOM     39  N2  3OR d   1      65.087 -11.901  11.598  0.00  0.00    -0.350 N 
ATOM     40  H   3OR d   1      64.960 -11.757  10.596  0.00  0.00     0.166 HD
BRANCH  39  41
ATOM     41  C3  3OR d   1      65.721 -13.133  11.883  0.00  0.00     0.071 A 
ATOM     42  C13 3OR d   1      66.271 -13.481  13.157  0.00  0.00    -0.053 A 
ATOM     43  C14 3OR d   1      66.896 -14.722  13.386  0.00  0.00    -0.065 A 
ATOM     44  H   3OR d   1      66.204 -12.764  13.975  0.00  0.00     0.087 H 
ATOM     45  C15 3OR d   1      66.986 -15.656  12.336  0.00  0.00     0.009 A 
ATOM     46  H   3OR d   1      67.307 -14.958  14.368  0.00  0.00     0.085 H 
ATOM     47  C17 3OR d   1      66.454 -15.360  11.056  0.00  0.00    -0.027 A 
ATOM     48  I16 3OR d   1      67.916 -17.464  12.692  0.00  0.00    -0.044 I 
ATOM     49  C18 3OR d   1      65.829 -14.102  10.850  0.00  0.00     0.144 A 
ATOM     50  H   3OR d   1      66.523 -16.085  10.245  0.00  0.00     0.090 H 
ATOM     51  F19 3OR d   1      65.327 -13.824   9.636  0.00  0.00    -0.204 F 
ENDBRANCH  39  41
ENDBRANCH   4  39
TORSDOF 9
