REMARK  14 active torsions:
REMARK  status: ('A' for Active; 'I' for Inactive)
REMARK    1  A    between atoms: C4_1  and  C25_25 
REMARK    2  A    between atoms: C19_20  and  C6_3 
REMARK    3  A    between atoms: C13_5  and  C14_17 
REMARK    4  A    between atoms: O21_22  and  C22_8 
REMARK    5  A    between atoms: C22_8  and  C23_23 
REMARK    6  A    between atoms: C1_9  and  N2_10 
REMARK    7  A    between atoms: N2_10  and  C3_11 
REMARK    8  A    between atoms: N20_21  and  C19_20 
REMARK    9  A    between atoms: N20_21  and  O21_22 
REMARK   10  A    between atoms: C23_23  and  O24_24 
REMARK       I    between atoms: C25_25  and  N27_27 
REMARK   11  A    between atoms: N27_27  and  O28_28 
REMARK   12  A    between atoms: O28_28  and  C29_29 
REMARK   13  A    between atoms: C29_29  and  C30_30 
REMARK   14  A    between atoms: C30_30  and  O31_31 
ROOT
ATOM      1  C15 3OS d   1       2.889  43.446  -7.772  0.00  0.00    -0.149 C 
ATOM      2  C14 3OS d   1       3.903  42.918  -7.440  0.00  0.00    -0.078 C 
ATOM      3  H   3OS d   1       1.990  43.914  -8.066  0.00  0.00     0.166 H 
ENDROOT
BRANCH   2   4
ATOM      4  C13 3OS d   1       5.093  42.285  -7.038  0.00  0.00     0.019 A 
ATOM      5  C12 3OS d   1       5.089  41.469  -5.891  0.00  0.00    -0.062 A 
ATOM      6  C11 3OS d   1       6.277  40.833  -5.480  0.00  0.00    -0.053 A 
ATOM      7  H   3OS d   1       4.170  41.330  -5.322  0.00  0.00     0.085 H 
ATOM      8  C3  3OS d   1       7.493  40.988  -6.211  0.00  0.00     0.071 A 
ATOM      9  H   3OS d   1       6.267  40.210  -4.586  0.00  0.00     0.087 H 
ATOM     10  C17 3OS d   1       7.454  41.822  -7.359  0.00  0.00     0.144 A 
ATOM     11  C16 3OS d   1       6.271  42.463  -7.785  0.00  0.00    -0.025 A 
ATOM     12  F18 3OS d   1       8.565  41.996  -8.069  0.00  0.00    -0.204 F 
ATOM     13  H   3OS d   1       6.271  43.086  -8.679  0.00  0.00     0.090 H 
BRANCH   8  14
ATOM     14  N2  3OS d   1       8.735  40.384  -5.870  0.00  0.00    -0.350 N 
ATOM     15  H   3OS d   1       9.467  40.535  -6.564  0.00  0.00     0.166 HD
BRANCH  14  16
ATOM     16  C1  3OS d   1       9.159  39.608  -4.748  0.00  0.00     0.090 A 
ATOM     17  C4  3OS d   1      10.352  39.967  -4.033  0.00  0.00     0.064 A 
ATOM     18  C5  3OS d   1      10.801  39.192  -2.909  0.00  0.00    -0.054 A 
ATOM     19  C6  3OS d   1      10.060  38.061  -2.488  0.00  0.00     0.013 A 
ATOM     20  H   3OS d   1      11.712  39.475  -2.381  0.00  0.00     0.086 H 
ATOM     21  C7  3OS d   1       8.890  37.703  -3.179  0.00  0.00     0.165 A 
ATOM     22  F8  3OS d   1       8.176  36.649  -2.808  0.00  0.00    -0.202 F 
ATOM     23  C9  3OS d   1       8.452  38.459  -4.282  0.00  0.00     0.183 A 
ATOM     24  F10 3OS d   1       7.350  38.069  -4.901  0.00  0.00    -0.200 F 
BRANCH  17  25
ATOM     25  C25 3OS d   1      11.169  41.133  -4.443  0.00  0.00     0.277 C 
ATOM     26  O26 3OS d   1      11.033  41.548  -5.592  0.00  0.00    -0.265 OA
ATOM     27  N27 3OS d   1      12.073  41.693  -3.545  0.00  0.00    -0.231 N 
ATOM     28  H   3OS d   1      12.038  41.453  -2.554  0.00  0.00     0.197 HD
BRANCH  27  29
ATOM     29  O28 3OS d   1      13.053  42.613  -4.040  0.00  0.00    -0.275 OA
BRANCH  29  30
ATOM     30  C29 3OS d   1      14.294  41.921  -4.056  0.00  0.00     0.065 C 
ATOM     31  H   3OS d   1      14.220  40.995  -3.486  0.00  0.00     0.081 H 
ATOM     32  H   3OS d   1      15.074  42.529  -3.598  0.00  0.00     0.081 H 
BRANCH  30  33
ATOM     33  C30 3OS d   1      14.633  41.627  -5.490  0.00  0.00     0.039 C 
ATOM     34  H   3OS d   1      13.747  41.720  -6.118  0.00  0.00     0.077 H 
ATOM     35  H   3OS d   1      15.002  40.606  -5.593  0.00  0.00     0.077 H 
BRANCH  33  36
ATOM     36  O31 3OS d   1      15.618  42.549  -5.889  0.00  0.00    -0.399 OA
ATOM     37  H   3OS d   1      15.856  42.385  -6.805  0.00  0.00     0.209 HD
ENDBRANCH  33  36
ENDBRANCH  30  33
ENDBRANCH  29  30
ENDBRANCH  27  29
ENDBRANCH  17  25
BRANCH  19  38
ATOM     38  C19 3OS d   1      10.498  37.242  -1.353  0.00  0.00     0.135 C 
ATOM     39  H   3OS d   1      11.536  37.023  -1.602  0.00  0.00     0.087 H 
ATOM     40  H   3OS d   1       9.714  36.488  -1.285  0.00  0.00     0.087 H 
BRANCH  38  41
ATOM     41  N20 3OS d   1      10.583  37.675  -0.134  0.00  0.00     0.043 N 
ATOM     42  H   3OS d   1       9.789  37.338   0.411  0.00  0.00     0.315 HD
ATOM     43  H   3OS d   1      10.573  38.695  -0.126  0.00  0.00     0.315 HD
BRANCH  41  44
ATOM     44  O21 3OS d   1      11.796  37.198   0.431  0.00  0.00    -0.203 OA
BRANCH  44  45
ATOM     45  C22 3OS d   1      12.497  38.330   1.000  0.00  0.00     0.071 C 
ATOM     46  H   3OS d   1      12.509  39.147   0.278  0.00  0.00     0.081 H 
ATOM     47  H   3OS d   1      13.518  38.037   1.242  0.00  0.00     0.081 H 
BRANCH  45  48
ATOM     48  C23 3OS d   1      11.793  38.788   2.264  0.00  0.00     0.039 C 
ATOM     49  H   3OS d   1      10.720  38.615   2.179  0.00  0.00     0.077 H 
ATOM     50  H   3OS d   1      11.955  39.855   2.417  0.00  0.00     0.077 H 
BRANCH  48  51
ATOM     51  O24 3OS d   1      12.324  38.048   3.364  0.00  0.00    -0.399 OA
ATOM     52  H   3OS d   1      11.889  38.325   4.174  0.00  0.00     0.209 HD
ENDBRANCH  48  51
ENDBRANCH  45  48
ENDBRANCH  44  45
ENDBRANCH  41  44
ENDBRANCH  38  41
ENDBRANCH  19  38
ENDBRANCH  14  16
ENDBRANCH   8  14
ENDBRANCH   2   4
TORSDOF 14
