REMARK  6 active torsions:
REMARK  status: ('A' for Active; 'I' for Inactive)
REMARK    1  A    between atoms: CAU_21  and  CAA_1 
REMARK    2  A    between atoms: CAU_21  and  CAB_2 
REMARK    3  A    between atoms: CAM_13  and  OAC_3 
REMARK    4  A    between atoms: CAN_14  and  OAD_4 
REMARK    5  A    between atoms: CAU_21  and  CAS_19 
REMARK    6  A    between atoms: CAT_20  and  CAU_21 
ROOT
ATOM      1  CAU XDH d   1      16.010  17.671  10.442  0.00  0.00     0.007 C 
ENDROOT
BRANCH   1   2
ATOM      2  CAA XDH d   1      15.744  16.329   9.858  0.00  0.00    -0.061 C 
ATOM      3  H   XDH d   1      16.591  15.673  10.057  0.00  0.00     0.029 H 
ATOM      4  H   XDH d   1      14.845  15.910  10.309  0.00  0.00     0.029 H 
ATOM      5  H   XDH d   1      15.602  16.424   8.781  0.00  0.00     0.029 H 
ENDBRANCH   1   2
BRANCH   1   6
ATOM      6  CAB XDH d   1      17.278  18.190   9.852  0.00  0.00    -0.061 C 
ATOM      7  H   XDH d   1      17.506  19.164  10.284  0.00  0.00     0.029 H 
ATOM      8  H   XDH d   1      18.089  17.495  10.070  0.00  0.00     0.029 H 
ATOM      9  H   XDH d   1      17.162  18.288   8.773  0.00  0.00     0.029 H 
ENDBRANCH   1   6
BRANCH   1  10
ATOM     10  CAS XDH d   1      16.206  17.550  11.916  0.00  0.00    -0.042 A 
ATOM     11  CAI XDH d   1      15.105  17.498  12.763  0.00  0.00    -0.052 A 
ATOM     12  CAO XDH d   1      15.290  17.381  14.134  0.00  0.00     0.069 A 
ATOM     13  H   XDH d   1      14.097  17.549  12.351  0.00  0.00     0.087 H 
ATOM     14 CLAE XDH d   1      13.928  17.324  15.200  0.00  0.00    -0.081 Cl
ATOM     15  CAM XDH d   1      16.574  17.306  14.656  0.00  0.00     0.109 A 
ATOM     16  CAP XDH d   1      17.675  17.353  13.812  0.00  0.00     0.069 A 
ATOM     17 CLAF XDH d   1      19.261  17.256  14.482  0.00  0.00    -0.081 Cl
ATOM     18  CAJ XDH d   1      17.492  17.477  12.440  0.00  0.00    -0.052 A 
ATOM     19  H   XDH d   1      18.355  17.517  11.776  0.00  0.00     0.087 H 
BRANCH  15  20
ATOM     20  OAC XDH d   1      16.751  17.180  16.015  0.00  0.00    -0.357 OA
ATOM     21  H   XDH d   1      16.360  17.936  16.459  0.00  0.00     0.217 HD
ENDBRANCH  15  20
ENDBRANCH   1  10
BRANCH   1  22
ATOM     22  CAT XDH d   1      14.864  18.572  10.105  0.00  0.00    -0.042 A 
ATOM     23  CAK XDH d   1      15.089  19.940  10.067  0.00  0.00    -0.052 A 
ATOM     24  CAQ XDH d   1      14.058  20.802   9.744  0.00  0.00     0.069 A 
ATOM     25  H   XDH d   1      16.079  20.336  10.292  0.00  0.00     0.087 H 
ATOM     26 CLAG XDH d   1      14.381  22.488   9.695  0.00  0.00    -0.081 Cl
ATOM     27  CAN XDH d   1      12.789  20.316   9.458  0.00  0.00     0.109 A 
ATOM     28  CAR XDH d   1      12.550  18.948   9.490  0.00  0.00     0.069 A 
ATOM     29 CLAH XDH d   1      10.941  18.388   9.116  0.00  0.00    -0.081 Cl
ATOM     30  CAL XDH d   1      13.596  18.069   9.814  0.00  0.00    -0.052 A 
ATOM     31  H   XDH d   1      13.417  16.994   9.838  0.00  0.00     0.087 H 
BRANCH  27  32
ATOM     32  OAD XDH d   1      11.755  21.177   9.151  0.00  0.00    -0.357 OA
ATOM     33  H   XDH d   1      10.957  20.670   8.983  0.00  0.00     0.217 HD
ENDBRANCH  27  32
ENDBRANCH   1  22
TORSDOF 6
