REMARK  6 active torsions:
REMARK  status: ('A' for Active; 'I' for Inactive)
REMARK    1  A    between atoms: CAU_21  and  CAA_1 
REMARK    2  A    between atoms: CAU_21  and  CAB_2 
REMARK    3  A    between atoms: CAM_13  and  OAC_3 
REMARK    4  A    between atoms: CAN_14  and  OAD_4 
REMARK    5  A    between atoms: CAU_21  and  CAS_19 
REMARK    6  A    between atoms: CAT_20  and  CAU_21 
ROOT
ATOM      1  CAU XDI d   1      16.194  17.885  10.411  0.00  0.00     0.007 C 
ENDROOT
BRANCH   1   2
ATOM      2  CAA XDI d   1      15.939  16.512   9.909  0.00  0.00    -0.061 C 
ATOM      3  H   XDI d   1      16.807  15.885  10.113  0.00  0.00     0.029 H 
ATOM      4  H   XDI d   1      15.065  16.099  10.412  0.00  0.00     0.029 H 
ATOM      5  H   XDI d   1      15.758  16.547   8.835  0.00  0.00     0.029 H 
ENDBRANCH   1   2
BRANCH   1   6
ATOM      6  CAB XDI d   1      17.418  18.423   9.733  0.00  0.00    -0.061 C 
ATOM      7  H   XDI d   1      17.653  19.407  10.138  0.00  0.00     0.029 H 
ATOM      8  H   XDI d   1      18.255  17.747   9.908  0.00  0.00     0.029 H 
ATOM      9  H   XDI d   1      17.232  18.505   8.662  0.00  0.00     0.029 H 
ENDBRANCH   1   6
BRANCH   1  10
ATOM     10  CAS XDI d   1      16.435  17.766  11.896  0.00  0.00    -0.043 A 
ATOM     11  CAI XDI d   1      17.721  17.575  12.434  0.00  0.00    -0.056 A 
ATOM     12  CAO XDI d   1      17.894  17.449  13.823  0.00  0.00     0.046 A 
ATOM     13  H   XDI d   1      18.585  17.525  11.772  0.00  0.00     0.086 H 
ATOM     14 BRAE XDI d   1      19.653  17.192  14.644  0.00  0.00    -0.048 Br
ATOM     15  CAM XDI d   1      16.771  17.513  14.649  0.00  0.00     0.100 A 
ATOM     16  CAP XDI d   1      15.504  17.694  14.125  0.00  0.00     0.046 A 
ATOM     17 BRAF XDI d   1      13.994  17.772  15.343  0.00  0.00    -0.048 Br
ATOM     18  CAJ XDI d   1      15.334  17.814  12.750  0.00  0.00    -0.056 A 
ATOM     19  H   XDI d   1      14.334  17.946  12.337  0.00  0.00     0.086 H 
BRANCH  15  20
ATOM     20  OAC XDI d   1      16.892  17.399  16.008  0.00  0.00    -0.358 OA
ATOM     21  H   XDI d   1      17.455  18.103  16.338  0.00  0.00     0.217 HD
ENDBRANCH  15  20
ENDBRANCH   1  10
BRANCH   1  22
ATOM     22  CAT XDI d   1      14.969  18.700  10.075  0.00  0.00    -0.043 A 
ATOM     23  CAK XDI d   1      15.103  20.078   9.987  0.00  0.00    -0.056 A 
ATOM     24  CAQ XDI d   1      14.011  20.869   9.680  0.00  0.00     0.046 A 
ATOM     25  H   XDI d   1      16.075  20.540  10.161  0.00  0.00     0.086 H 
ATOM     26 BRAG XDI d   1      14.217  22.785   9.569  0.00  0.00    -0.048 Br
ATOM     27  CAN XDI d   1      12.769  20.307   9.453  0.00  0.00     0.100 A 
ATOM     28  CAR XDI d   1      12.613  18.924   9.531  0.00  0.00     0.046 A 
ATOM     29 BRAH XDI d   1      10.832  18.199   9.184  0.00  0.00    -0.048 Br
ATOM     30  CAL XDI d   1      13.716  18.114   9.838  0.00  0.00    -0.056 A 
ATOM     31  H   XDI d   1      13.600  17.032   9.892  0.00  0.00     0.086 H 
BRANCH  27  32
ATOM     32  OAD XDI d   1      11.698  21.134   9.154  0.00  0.00    -0.358 OA
ATOM     33  H   XDI d   1      10.910  20.601   9.024  0.00  0.00     0.217 HD
ENDBRANCH  27  32
ENDBRANCH   1  22
TORSDOF 6
