REMARK  5 active torsions:
REMARK  status: ('A' for Active; 'I' for Inactive)
REMARK    1  A    between atoms: C01_1  and  C12_12 
REMARK    2  A    between atoms: C07_7  and  C18_18 
REMARK    3  A    between atoms: C09_9  and  N11_11 
REMARK    4  A    between atoms: N15_15  and  C17_17 
REMARK    5  A    between atoms: C20_20  and  N24_24 
ROOT
ATOM      1  C01 22K d   1      14.599  -1.059  10.049  0.00  0.00     0.044 A 
ATOM      2  C02 22K d   1      15.706  -1.794  10.234  0.00  0.00     0.166 A 
ATOM      3  N03 22K d   1      16.732  -1.152   9.553  0.00  0.00    -0.198 N 
ATOM      4  N04 22K d   1      16.276   0.009   9.004  0.00  0.00    -0.176 NA
ATOM      5  C05 22K d   1      14.982   0.034   9.326  0.00  0.00     0.037 A 
ATOM      6  N06 22K d   1      15.891  -2.952  10.911  0.00  0.00    -0.231 NA
ATOM      7  C07 22K d   1      17.086  -3.419  10.913  0.00  0.00     0.062 A 
ATOM      8  C08 22K d   1      18.273  -2.773  10.229  0.00  0.00     0.081 A 
ATOM      9  C09 22K d   1      18.046  -1.635   9.539  0.00  0.00     0.144 A 
ATOM     10 BR10 22K d   1      20.027  -3.433  10.417  0.00  0.00    -0.045 Br
ATOM     11  H   22K d   1      14.304   0.839   9.043  0.00  0.00     0.118 H 
ENDROOT
BRANCH   7  12
ATOM     12  C18 22K d   1      17.320  -4.695  11.700  0.00  0.00    -0.008 C 
ATOM     13  C19 22K d   1      17.238  -4.301  13.204  0.00  0.00    -0.030 C 
ATOM     14  C20 22K d   1      17.359  -5.516  14.093  0.00  0.00     0.101 C 
ATOM     15  H   22K d   1      16.273  -3.829  13.388  0.00  0.00     0.037 H 
ATOM     16  H   22K d   1      18.058  -3.620  13.431  0.00  0.00     0.037 H 
ATOM     17  C21 22K d   1      16.236  -6.515  13.830  0.00  0.00    -0.038 C 
ATOM     18  H   22K d   1      18.325  -5.989  13.916  0.00  0.00     0.083 H 
ATOM     19  C22 22K d   1      16.269  -6.932  12.342  0.00  0.00    -0.062 C 
ATOM     20  H   22K d   1      15.275  -6.056  14.061  0.00  0.00     0.036 H 
ATOM     21  H   22K d   1      16.372  -7.394  14.460  0.00  0.00     0.036 H 
ATOM     22  C23 22K d   1      16.161  -5.708  11.425  0.00  0.00    -0.056 C 
ATOM     23  H   22K d   1      15.424  -7.592  12.145  0.00  0.00     0.033 H 
ATOM     24  H   22K d   1      17.214  -7.437  12.141  0.00  0.00     0.033 H 
ATOM     25  H   22K d   1      16.227  -6.041  10.389  0.00  0.00     0.034 H 
ATOM     26  H   22K d   1      15.210  -5.211  11.617  0.00  0.00     0.034 H 
ATOM     27  H   22K d   1      18.275  -5.144  11.427  0.00  0.00     0.049 H 
BRANCH  14  28
ATOM     28  N24 22K d   1      17.143  -5.033  15.506  0.00  0.00    -0.075 N 
ATOM     29  H   22K d   1      17.215  -5.822  16.148  0.00  0.00     0.274 HD
ATOM     30  H   22K d   1      17.852  -4.338  15.738  0.00  0.00     0.274 HD
ATOM     31  H   22K d   1      16.216  -4.614  15.583  0.00  0.00     0.274 HD
ENDBRANCH  14  28
ENDBRANCH   7  12
BRANCH   9  32
ATOM     32  N11 22K d   1      19.038  -0.917   8.884  0.00  0.00    -0.383 N 
ATOM     33  H   22K d   1      20.004  -1.244   8.908  0.00  0.00     0.157 HD
ATOM     34  H   22K d   1      18.801  -0.063   8.379  0.00  0.00     0.157 HD
ENDBRANCH   9  32
BRANCH   1  35
ATOM     35  C12 22K d   1      13.332  -1.261  10.711  0.00  0.00     0.016 A 
ATOM     36  C13 22K d   1      12.331  -0.270  10.920  0.00  0.00     0.034 A 
ATOM     37  N14 22K d   1      11.331  -0.735  11.701  0.00  0.00    -0.185 NA
ATOM     38  H   22K d   1      12.367   0.736  10.503  0.00  0.00     0.118 H 
ATOM     39  N15 22K d   1      11.730  -2.025  12.054  0.00  0.00    -0.285 N 
ATOM     40  C16 22K d   1      12.948  -2.349  11.527  0.00  0.00     0.010 A 
ATOM     41  H   22K d   1      13.512  -3.265  11.701  0.00  0.00     0.115 H 
BRANCH  39  42
ATOM     42  C17 22K d   1      10.922  -2.887  12.942  0.00  0.00     0.002 C 
ATOM     43  H   22K d   1      10.802  -2.399  13.909  0.00  0.00     0.059 H 
ATOM     44  H   22K d   1       9.943  -3.052  12.493  0.00  0.00     0.059 H 
ATOM     45  H   22K d   1      11.428  -3.843  13.076  0.00  0.00     0.059 H 
ENDBRANCH  39  42
ENDBRANCH   1  35
TORSDOF 5
