REMARK  6 active torsions:
REMARK  status: ('A' for Active; 'I' for Inactive)
REMARK    1  A    between atoms: C01_1  and  C12_12 
REMARK    2  A    between atoms: C07_7  and  C11_11 
REMARK    3  A    between atoms: C09_9  and  N10_10 
REMARK    4  A    between atoms: N10_10  and  C23_23 
REMARK    5  A    between atoms: N20_20  and  C22_22 
REMARK    6  A    between atoms: C26_26  and  C28_28 
ROOT
ATOM      1  C01 MI5 d   1      14.462  -0.552  10.062  0.00  0.00     0.044 A 
ATOM      2  C02 MI5 d   1      15.605  -1.224  10.308  0.00  0.00     0.166 A 
ATOM      3  N03 MI5 d   1      16.591  -0.658   9.529  0.00  0.00    -0.199 N 
ATOM      4  N04 MI5 d   1      16.102   0.422   8.798  0.00  0.00    -0.176 NA
ATOM      5  C05 MI5 d   1      14.837   0.460   9.133  0.00  0.00     0.037 A 
ATOM      6  N06 MI5 d   1      15.863  -2.299  11.133  0.00  0.00    -0.232 NA
ATOM      7  C07 MI5 d   1      17.077  -2.725  11.137  0.00  0.00     0.046 A 
ATOM      8  C08 MI5 d   1      18.196  -2.160  10.370  0.00  0.00    -0.014 A 
ATOM      9  C09 MI5 d   1      17.915  -1.153   9.538  0.00  0.00     0.134 A 
ATOM     10  H   MI5 d   1      14.137   1.196   8.738  0.00  0.00     0.118 H 
ATOM     11  H   MI5 d   1      19.210  -2.545  10.475  0.00  0.00     0.092 H 
ENDROOT
BRANCH   7  12
ATOM     12  C11 MI5 d   1      17.419  -3.862  12.103  0.00  0.00     0.012 C 
ATOM     13  C13 MI5 d   1      16.929  -3.436  13.522  0.00  0.00     0.090 C 
ATOM     14  N14 MI5 d   1      17.282  -4.448  14.550  0.00  0.00    -0.074 N 
ATOM     15  H   MI5 d   1      15.844  -3.336  13.496  0.00  0.00     0.076 H 
ATOM     16  H   MI5 d   1      17.413  -2.495  13.785  0.00  0.00     0.076 H 
ATOM     17  C15 MI5 d   1      16.579  -5.682  14.239  0.00  0.00     0.082 C 
ATOM     18  H   MI5 d   1      17.011  -4.115  15.475  0.00  0.00     0.277 HD
ATOM     19  H   MI5 d   1      18.289  -4.610  14.549  0.00  0.00     0.277 HD
ATOM     20  C16 MI5 d   1      17.087  -6.214  12.890  0.00  0.00    -0.042 C 
ATOM     21  H   MI5 d   1      15.507  -5.492  14.182  0.00  0.00     0.075 H 
ATOM     22  H   MI5 d   1      16.763  -6.419  15.020  0.00  0.00     0.075 H 
ATOM     23  C17 MI5 d   1      16.802  -5.186  11.757  0.00  0.00    -0.053 C 
ATOM     24  H   MI5 d   1      16.572  -7.146  12.660  0.00  0.00     0.035 H 
ATOM     25  H   MI5 d   1      18.162  -6.379  12.957  0.00  0.00     0.035 H 
ATOM     26  H   MI5 d   1      17.232  -5.550  10.824  0.00  0.00     0.034 H 
ATOM     27  H   MI5 d   1      15.725  -5.063  11.645  0.00  0.00     0.034 H 
ATOM     28  H   MI5 d   1      18.497  -4.014  12.049  0.00  0.00     0.052 H 
ENDBRANCH   7  12
BRANCH   9  29
ATOM     29  N10 MI5 d   1      18.800  -0.513   8.742  0.00  0.00    -0.334 N 
ATOM     30  H   MI5 d   1      18.493   0.399   8.405  0.00  0.00     0.168 HD
BRANCH  29  31
ATOM     31  C23 MI5 d   1      20.026  -0.891   8.323  0.00  0.00     0.096 A 
ATOM     32  S24 MI5 d   1      20.797  -2.358   8.697  0.00  0.00     0.029 SA
ATOM     33  N25 MI5 d   1      22.189  -2.068   7.839  0.00  0.00    -0.215 NA
ATOM     34  C26 MI5 d   1      22.085  -0.858   7.267  0.00  0.00     0.042 A 
ATOM     35  C27 MI5 d   1      20.880  -0.153   7.518  0.00  0.00    -0.025 A 
ATOM     36  H   MI5 d   1      20.655   0.840   7.129  0.00  0.00     0.091 H 
BRANCH  34  37
ATOM     37  C28 MI5 d   1      23.211  -0.360   6.439  0.00  0.00    -0.035 C 
ATOM     38  H   MI5 d   1      24.111  -0.300   7.051  0.00  0.00     0.035 H 
ATOM     39  H   MI5 d   1      23.380  -1.045   5.608  0.00  0.00     0.035 H 
ATOM     40  H   MI5 d   1      22.966   0.629   6.052  0.00  0.00     0.035 H 
ENDBRANCH  34  37
ENDBRANCH  29  31
ENDBRANCH   9  29
BRANCH   1  41
ATOM     41  C12 MI5 d   1      13.182  -0.732  10.732  0.00  0.00     0.016 A 
ATOM     42  C18 MI5 d   1      12.145   0.190  10.828  0.00  0.00     0.034 A 
ATOM     43  N19 MI5 d   1      11.121  -0.246  11.541  0.00  0.00    -0.185 NA
ATOM     44  H   MI5 d   1      12.174   1.175  10.361  0.00  0.00     0.118 H 
ATOM     45  N20 MI5 d   1      11.521  -1.466  11.964  0.00  0.00    -0.285 N 
ATOM     46  C21 MI5 d   1      12.769  -1.794  11.518  0.00  0.00     0.010 A 
ATOM     47  H   MI5 d   1      13.326  -2.705  11.736  0.00  0.00     0.115 H 
BRANCH  45  48
ATOM     48  C22 MI5 d   1      10.618  -2.281  12.823  0.00  0.00     0.002 C 
ATOM     49  H   MI5 d   1      10.404  -1.736  13.742  0.00  0.00     0.059 H 
ATOM     50  H   MI5 d   1       9.688  -2.475  12.289  0.00  0.00     0.059 H 
ATOM     51  H   MI5 d   1      11.104  -3.227  13.064  0.00  0.00     0.059 H 
ENDBRANCH  45  48
ENDBRANCH   1  41
TORSDOF 6
