REMARK  2 active torsions:
REMARK  status: ('A' for Active; 'I' for Inactive)
REMARK    1  A    between atoms: C2'_10  and  O2'_11 
REMARK    2  A    between atoms: C1'_12  and  N9_13 
ROOT
ATOM      1  P   CMP d   1     -20.021 -17.183  13.429  0.00  0.00     0.408 P 
ATOM      2  O1P CMP d   1     -20.803 -16.969  12.158  0.00  0.00    -0.624 OA
ATOM      3  O2P CMP d   1     -18.712 -16.434  13.381  0.00  0.00    -0.624 OA
ATOM      4  O5' CMP d   1     -20.974 -16.766  14.638  0.00  0.00    -0.287 OA
ATOM      5  C5' CMP d   1     -22.128 -17.555  14.915  0.00  0.00     0.058 C 
ATOM      6  C4' CMP d   1     -21.584 -18.957  15.104  0.00  0.00     0.090 C 
ATOM      7  O4' CMP d   1     -22.529 -19.961  15.414  0.00  0.00    -0.353 OA
ATOM      8  C3' CMP d   1     -20.965 -19.484  13.844  0.00  0.00     0.106 C 
ATOM      9  O3' CMP d   1     -19.782 -18.742  13.662  0.00  0.00    -0.279 OA
ATOM     10  C2' CMP d   1     -20.775 -20.958  14.153  0.00  0.00     0.106 C 
ATOM     11  C1' CMP d   1     -21.938 -21.223  15.089  0.00  0.00     0.140 C 
ATOM     12  H   CMP d   1     -22.863 -17.504  14.112  0.00  0.00     0.079 H 
ATOM     13  H   CMP d   1     -22.667 -17.201  15.794  0.00  0.00     0.079 H 
ATOM     14  H   CMP d   1     -20.897 -18.804  15.937  0.00  0.00     0.090 H 
ATOM     15  H   CMP d   1     -21.526 -19.390  12.915  0.00  0.00     0.092 H 
ATOM     16  H   CMP d   1     -20.741 -21.568  13.250  0.00  0.00     0.093 H 
ATOM     17  H   CMP d   1     -21.623 -21.762  15.983  0.00  0.00     0.122 H 
ENDROOT
BRANCH  11  18
ATOM     18  N9  CMP d   1     -22.935 -21.952  14.301  0.00  0.00    -0.294 N 
ATOM     19  C8  CMP d   1     -23.624 -21.460  13.253  0.00  0.00     0.071 A 
ATOM     20  N7  CMP d   1     -24.466 -22.403  12.760  0.00  0.00    -0.236 NA
ATOM     21  H   CMP d   1     -23.520 -20.450  12.858  0.00  0.00     0.144 H 
ATOM     22  C5  CMP d   1     -24.318 -23.517  13.509  0.00  0.00     0.149 A 
ATOM     23  C6  CMP d   1     -24.889 -24.886  13.541  0.00  0.00     0.155 A 
ATOM     24  C4  CMP d   1     -23.310 -23.205  14.526  0.00  0.00     0.167 A 
ATOM     25  N6  CMP d   1     -25.833 -25.271  12.652  0.00  0.00    -0.382 N 
ATOM     26  N1  CMP d   1     -24.466 -25.738  14.501  0.00  0.00    -0.222 NA
ATOM     27  H   CMP d   1     -26.164 -24.616  11.944  0.00  0.00     0.157 HD
ATOM     28  H   CMP d   1     -26.214 -26.216  12.690  0.00  0.00     0.157 HD
ATOM     29  C2  CMP d   1     -23.540 -25.370  15.402  0.00  0.00     0.091 A 
ATOM     30  N3  CMP d   1     -22.974 -24.152  15.427  0.00  0.00    -0.222 NA
ATOM     31  H   CMP d   1     -23.232 -26.098  16.152  0.00  0.00     0.146 H 
ENDBRANCH  11  18
BRANCH  10  32
ATOM     32  O2' CMP d   1     -19.542 -21.242  14.831  0.00  0.00    -0.388 OA
ATOM     33  H   CMP d   1     -18.805 -20.964  14.282  0.00  0.00     0.210 HD
ENDBRANCH  10  32
TORSDOF 2
