REMARK  6 active torsions:
REMARK  status: ('A' for Active; 'I' for Inactive)
REMARK    1  A    between atoms: N1_1  and  C2_2 
REMARK    2  A    between atoms: C3_3  and  C8_8 
REMARK    3  A    between atoms: C8_8  and  C12_12 
REMARK    4  A    between atoms: C9_9  and  C13_13 
REMARK    5  A    between atoms: C14_14  and  N17_17 
REMARK       I    between atoms: N17_17  and  C20_20 
REMARK    6  A    between atoms: C20_20  and  C22_22 
ROOT
ATOM      1  C2  MZL d   1      75.144 -10.449  68.914  0.00  0.00     0.058 A 
ATOM      2  C5  MZL d   1      74.072 -10.697  68.110  0.00  0.00    -0.053 A 
ATOM      3  C6  MZL d   1      76.107  -9.376  68.497  0.00  0.00    -0.053 A 
ATOM      4  C10 MZL d   1      73.901  -9.894  66.841  0.00  0.00    -0.055 A 
ATOM      5  C11 MZL d   1      75.951  -8.666  67.376  0.00  0.00    -0.055 A 
ATOM      6  C14 MZL d   1      74.815  -8.931  66.498  0.00  0.00     0.035 A 
ATOM      7  H   MZL d   1      73.347 -11.465  68.379  0.00  0.00     0.087 H 
ATOM      8  H   MZL d   1      76.967  -9.168  69.133  0.00  0.00     0.087 H 
ATOM      9  H   MZL d   1      73.044 -10.082  66.194  0.00  0.00     0.087 H 
ATOM     10  H   MZL d   1      76.671  -7.890  67.117  0.00  0.00     0.087 H 
ENDROOT
BRANCH   1  11
ATOM     11  N1  MZL d   1      75.392 -11.240  70.176  0.00  0.00    -0.238 N 
ATOM     12  C3  MZL d   1      75.602 -12.705  70.317  0.00  0.00     0.038 A 
ATOM     13  C7  MZL d   1      75.791 -12.957  71.606  0.00  0.00    -0.029 A 
ATOM     14  C9  MZL d   1      75.710 -11.653  72.284  0.00  0.00     0.091 A 
ATOM     15  H   MZL d   1      75.969 -13.928  72.067  0.00  0.00     0.090 H 
ATOM     16  N4  MZL d   1      75.483 -10.695  71.461  0.00  0.00    -0.167 NA
BRANCH  12  17
ATOM     17  C8  MZL d   1      75.615 -13.755  69.179  0.00  0.00    -0.028 C 
ATOM     18  H   MZL d   1      76.255 -13.344  68.398  0.00  0.00     0.041 H 
ATOM     19  H   MZL d   1      74.571 -13.927  68.917  0.00  0.00     0.041 H 
BRANCH  17  20
ATOM     20  C12 MZL d   1      76.206 -15.154  69.525  0.00  0.00    -0.071 C 
ATOM     21  H   MZL d   1      77.244 -15.041  69.837  0.00  0.00     0.028 H 
ATOM     22  H   MZL d   1      75.629 -15.601  70.335  0.00  0.00     0.028 H 
ATOM     23  H   MZL d   1      76.157 -15.795  68.645  0.00  0.00     0.028 H 
ENDBRANCH  17  20
ENDBRANCH  12  17
BRANCH  14  24
ATOM     24  C13 MZL d   1      75.908 -11.513  73.759  0.00  0.00     0.012 A 
ATOM     25  C15 MZL d   1      75.926 -12.633  74.572  0.00  0.00    -0.068 A 
ATOM     26  C18 MZL d   1      76.147 -12.515  76.041  0.00  0.00    -0.065 A 
ATOM     27  H   MZL d   1      75.776 -13.618  74.130  0.00  0.00     0.085 H 
ATOM     28  C21 MZL d   1      76.330 -11.295  76.552  0.00  0.00     0.002 A 
ATOM     29  H   MZL d   1      76.159 -13.398  76.679  0.00  0.00     0.085 H 
ATOM     30  N19 MZL d   1      76.306 -10.125  75.672  0.00  0.00    -0.272 NA
ATOM     31  H   MZL d   1      76.497 -11.170  77.622  0.00  0.00     0.114 H 
ATOM     32  C16 MZL d   1      76.115 -10.200  74.383  0.00  0.00     0.014 A 
ATOM     33  H   MZL d   1      76.109  -9.296  73.775  0.00  0.00     0.116 H 
ENDBRANCH  14  24
ENDBRANCH   1  11
BRANCH   6  34
ATOM     34  N17 MZL d   1      74.725  -8.145  65.315  0.00  0.00    -0.323 N 
ATOM     35  C20 MZL d   1      75.487  -8.352  64.130  0.00  0.00     0.257 C 
ATOM     36  O23 MZL d   1      76.309  -9.282  64.067  0.00  0.00    -0.267 OA
ATOM     37  H   MZL d   1      74.061  -7.371  65.316  0.00  0.00     0.169 HD
BRANCH  35  38
ATOM     38  C22 MZL d   1      75.303  -7.416  62.987  0.00  0.00     0.049 A 
ATOM     39  C24 MZL d   1      76.027  -7.563  61.857  0.00  0.00    -0.065 A 
ATOM     40  C26 MZL d   1      75.848  -6.630  60.724  0.00  0.00    -0.065 A 
ATOM     41  H   MZL d   1      76.749  -8.376  61.779  0.00  0.00     0.085 H 
ATOM     42  C28 MZL d   1      74.947  -5.628  60.840  0.00  0.00     0.002 A 
ATOM     43  H   MZL d   1      76.432  -6.748  59.811  0.00  0.00     0.085 H 
ATOM     44  N27 MZL d   1      74.196  -5.478  62.031  0.00  0.00    -0.272 NA
ATOM     45  H   MZL d   1      74.798  -4.933  60.013  0.00  0.00     0.114 H 
ATOM     46  C25 MZL d   1      74.332  -6.290  63.052  0.00  0.00     0.017 A 
ATOM     47  H   MZL d   1      73.733  -6.140  63.950  0.00  0.00     0.116 H 
ENDBRANCH  35  38
ENDBRANCH   6  34
TORSDOF 6
