REMARK  21 active torsions:
REMARK  status: ('A' for Active; 'I' for Inactive)
REMARK    1  A    between atoms: PA_1  and  O3A_4 
REMARK    2  A    between atoms: PA_1  and  O5F_20 
REMARK    3  A    between atoms: O3A_4  and  PB_5 
REMARK    4  A    between atoms: PB_5  and  O3B_8 
REMARK    5  A    between atoms: O3B_8  and  PG_9 
REMARK    6  A    between atoms: PG_9  and  O3G_12 
REMARK    7  A    between atoms: O3G_12  and  PD_13 
REMARK    8  A    between atoms: PD_13  and  O3D_16 
REMARK    9  A    between atoms: O3D_16  and  PE_17 
REMARK   10  A    between atoms: PE_17  and  O5J_39 
REMARK   11  A    between atoms: O5F_20  and  C5F_21 
REMARK   12  A    between atoms: C5F_21  and  C4F_22 
REMARK   13  A    between atoms: C3F_24  and  O3F_25 
REMARK   14  A    between atoms: C2F_26  and  O2F_27 
REMARK   15  A    between atoms: C1F_28  and  N9A_29 
REMARK   16  A    between atoms: C6A_33  and  N6A_34 
REMARK   17  A    between atoms: O5J_39  and  C5J_40 
REMARK   18  A    between atoms: C5J_40  and  C4J_41 
REMARK   19  A    between atoms: C3J_43  and  O3J_44 
REMARK   20  A    between atoms: C2J_45  and  O2J_46 
REMARK   21  A    between atoms: C1J_47  and  N9B_48 
ROOT
ATOM      1  PG  AP5 d   1      22.075   5.799  23.379  0.00  0.00     0.427 P 
ATOM      2  O1G AP5 d   1      21.458   6.508  22.213  0.00  0.00    -0.624 OA
ATOM      3  O2G AP5 d   1      23.329   6.545  23.778  0.00  0.00    -0.624 OA
ENDROOT
BRANCH   1   4
ATOM      4  O3B AP5 d   1      22.309   4.291  22.925  0.00  0.00    -0.180 OA
BRANCH   4   5
ATOM      5  PB  AP5 d   1      23.318   3.153  23.397  0.00  0.00     0.427 P 
ATOM      6  O1B AP5 d   1      24.684   3.738  23.580  0.00  0.00    -0.624 OA
ATOM      7  O2B AP5 d   1      22.739   2.383  24.533  0.00  0.00    -0.624 OA
BRANCH   5   8
ATOM      8  O3A AP5 d   1      23.219   2.196  22.101  0.00  0.00    -0.180 OA
BRANCH   8   9
ATOM      9  PA  AP5 d   1      24.222   2.167  20.842  0.00  0.00     0.417 P 
ATOM     10  O1A AP5 d   1      24.717   3.550  20.431  0.00  0.00    -0.624 OA
ATOM     11  O2A AP5 d   1      25.328   1.195  21.200  0.00  0.00    -0.624 OA
BRANCH   9  12
ATOM     12  O5F AP5 d   1      23.261   1.636  19.673  0.00  0.00    -0.287 OA
BRANCH  12  13
ATOM     13  C5F AP5 d   1      22.501   0.439  19.839  0.00  0.00     0.058 C 
ATOM     14  H1  AP5 d   1      21.573   0.663  20.386  0.00  0.00     0.079 H 
ATOM     15  H2  AP5 d   1      23.091  -0.298  20.404  0.00  0.00     0.079 H 
BRANCH  13  16
ATOM     16  C4F AP5 d   1      22.165  -0.118  18.477  0.00  0.00     0.089 C 
ATOM     17  O4F AP5 d   1      21.514   0.885  17.685  0.00  0.00    -0.353 OA
ATOM     18  C1F AP5 d   1      21.937   0.909  16.377  0.00  0.00     0.139 C 
ATOM     19  C2F AP5 d   1      22.893  -0.278  16.222  0.00  0.00     0.105 C 
ATOM     20  H8  AP5 d   1      21.088   0.793  15.687  0.00  0.00     0.122 H 
ATOM     21  C3F AP5 d   1      23.374  -0.498  17.627  0.00  0.00     0.091 C 
ATOM     22  H6  AP5 d   1      23.719  -0.072  15.525  0.00  0.00     0.093 H 
ATOM     23  H4  AP5 d   1      24.223   0.170  17.837  0.00  0.00     0.091 H 
ATOM     24  H3  AP5 d   1      21.513  -0.994  18.610  0.00  0.00     0.090 H 
BRANCH  18  25
ATOM     25  N9A AP5 d   1      22.587   2.231  16.146  0.00  0.00    -0.294 N 
ATOM     26  C8A AP5 d   1      22.887   3.197  17.111  0.00  0.00     0.071 A 
ATOM     27  N7A AP5 d   1      23.451   4.258  16.471  0.00  0.00    -0.236 NA
ATOM     28  H9  AP5 d   1      22.703   3.115  18.181  0.00  0.00     0.144 H 
ATOM     29  C5A AP5 d   1      23.497   3.993  15.144  0.00  0.00     0.149 A 
ATOM     30  C6A AP5 d   1      23.916   4.710  14.045  0.00  0.00     0.155 A 
ATOM     31  C4A AP5 d   1      22.928   2.725  14.949  0.00  0.00     0.167 A 
ATOM     32  N1A AP5 d   1      23.806   4.140  12.800  0.00  0.00    -0.222 NA
ATOM     33  C2A AP5 d   1      23.264   2.878  12.615  0.00  0.00     0.091 A 
ATOM     34  N3A AP5 d   1      22.837   2.176  13.722  0.00  0.00    -0.222 NA
ATOM     35  H12 AP5 d   1      23.178   2.452  11.622  0.00  0.00     0.146 H 
BRANCH  30  36
ATOM     36  N6A AP5 d   1      24.315   5.981  14.142  0.00  0.00    -0.382 N 
ATOM     37  H10 AP5 d   1      24.623   6.490  13.301  0.00  0.00     0.157 HD
ATOM     38  H11 AP5 d   1      24.315   6.452  15.058  0.00  0.00     0.157 HD
ENDBRANCH  30  36
ENDBRANCH  18  25
BRANCH  19  39
ATOM     39  O2F AP5 d   1      22.132  -1.382  15.800  0.00  0.00    -0.388 OA
ATOM     40  H7  AP5 d   1      22.669  -2.165  15.829  0.00  0.00     0.210 HD
ENDBRANCH  19  39
BRANCH  21  41
ATOM     41  O3F AP5 d   1      23.764  -1.818  17.917  0.00  0.00    -0.390 OA
ATOM     42  H5  AP5 d   1      24.517  -2.049  17.385  0.00  0.00     0.210 HD
ENDBRANCH  21  41
ENDBRANCH  13  16
ENDBRANCH  12  13
ENDBRANCH   9  12
ENDBRANCH   8   9
ENDBRANCH   5   8
ENDBRANCH   4   5
ENDBRANCH   1   4
BRANCH   1  43
ATOM     43  O3G AP5 d   1      21.010   5.579  24.486  0.00  0.00    -0.180 OA
BRANCH  43  44
ATOM     44  PD  AP5 d   1      20.256   6.642  25.443  0.00  0.00     0.427 P 
ATOM     45  O1D AP5 d   1      20.668   8.084  25.209  0.00  0.00    -0.624 OA
ATOM     46  O2D AP5 d   1      20.381   6.074  26.829  0.00  0.00    -0.624 OA
BRANCH  44  47
ATOM     47  O3D AP5 d   1      18.751   6.524  24.884  0.00  0.00    -0.180 OA
BRANCH  47  48
ATOM     48  PE  AP5 d   1      17.647   5.444  25.352  0.00  0.00     0.417 P 
ATOM     49  O1E AP5 d   1      18.303   4.107  25.552  0.00  0.00    -0.624 OA
ATOM     50  O2E AP5 d   1      16.452   5.516  24.404  0.00  0.00    -0.624 OA
BRANCH  48  51
ATOM     51  O5J AP5 d   1      17.199   5.976  26.820  0.00  0.00    -0.287 OA
BRANCH  51  52
ATOM     52  C5J AP5 d   1      16.596   7.252  26.951  0.00  0.00     0.058 C 
ATOM     53  H13 AP5 d   1      16.059   7.524  26.030  0.00  0.00     0.079 H 
ATOM     54  H14 AP5 d   1      17.354   8.018  27.173  0.00  0.00     0.079 H 
BRANCH  52  55
ATOM     55  C4J AP5 d   1      15.627   7.105  28.112  0.00  0.00     0.089 C 
ATOM     56  O4J AP5 d   1      16.338   7.008  29.357  0.00  0.00    -0.353 OA
ATOM     57  C1J AP5 d   1      15.404   7.324  30.357  0.00  0.00     0.139 C 
ATOM     58  C2J AP5 d   1      14.769   8.590  29.836  0.00  0.00     0.105 C 
ATOM     59  H20 AP5 d   1      14.647   6.530  30.445  0.00  0.00     0.122 H 
ATOM     60  C3J AP5 d   1      14.727   8.327  28.322  0.00  0.00     0.091 C 
ATOM     61  H18 AP5 d   1      15.395   9.467  30.057  0.00  0.00     0.093 H 
ATOM     62  H16 AP5 d   1      15.108   9.202  27.776  0.00  0.00     0.091 H 
ATOM     63  H15 AP5 d   1      15.012   6.208  27.944  0.00  0.00     0.090 H 
BRANCH  57  64
ATOM     64  N9B AP5 d   1      16.061   7.488  31.662  0.00  0.00    -0.294 N 
ATOM     65  C8B AP5 d   1      17.070   8.372  31.933  0.00  0.00     0.071 A 
ATOM     66  N7B AP5 d   1      17.364   8.243  33.253  0.00  0.00    -0.236 NA
ATOM     67  H21 AP5 d   1      17.546   9.049  31.226  0.00  0.00     0.144 H 
ATOM     68  C5B AP5 d   1      16.551   7.286  33.801  0.00  0.00     0.149 A 
ATOM     69  C6B AP5 d   1      16.437   6.756  35.092  0.00  0.00     0.155 C 
ATOM     70  C4B AP5 d   1      15.723   6.805  32.785  0.00  0.00     0.167 A 
ATOM     71  N6B AP5 d   1      17.133   7.205  36.149  0.00  0.00    -0.382 N 
ATOM     72  N1B AP5 d   1      15.462   5.813  35.269  0.00  0.00    -0.222 NA
ATOM     73  H22 AP5 d   1      17.002   6.771  37.074  0.00  0.00     0.157 HD
ATOM     74  H23 AP5 d   1      17.797   7.984  36.035  0.00  0.00     0.157 HD
ATOM     75  C2B AP5 d   1      14.687   5.295  34.257  0.00  0.00     0.091 C 
ATOM     76  N3B AP5 d   1      14.769   5.849  32.996  0.00  0.00    -0.222 NA
ATOM     77  H24 AP5 d   1      14.020   4.462  34.448  0.00  0.00     0.146 H 
ENDBRANCH  57  64
BRANCH  58  78
ATOM     78  O2J AP5 d   1      13.485   8.786  30.417  0.00  0.00    -0.388 OA
ATOM     79  H19 AP5 d   1      13.066   9.535  30.010  0.00  0.00     0.210 HD
ENDBRANCH  58  78
BRANCH  60  80
ATOM     80  O3J AP5 d   1      13.425   7.993  27.840  0.00  0.00    -0.390 OA
ATOM     81  H17 AP5 d   1      12.845   8.736  27.959  0.00  0.00     0.210 HD
ENDBRANCH  60  80
ENDBRANCH  52  55
ENDBRANCH  51  52
ENDBRANCH  48  51
ENDBRANCH  47  48
ENDBRANCH  44  47
ENDBRANCH  43  44
ENDBRANCH   1  43
TORSDOF 21
