REMARK  2 active torsions:
REMARK  status: ('A' for Active; 'I' for Inactive)
REMARK    1  A    between atoms: C2_6  and  C1_3 
REMARK    2  A    between atoms: C5_13  and  N2_7 
ROOT
ATOM      1  F   014 d   1      44.785  23.752   3.583  0.00  0.00    -0.204 F 
ATOM      2 CL   014 d   1      45.830  21.891   1.901  0.00  0.00    -0.081 Cl
ATOM      3  N3  014 d   1      40.856  21.281   4.940  0.00  0.00    -0.186 N 
ATOM      4  N4  014 d   1      41.423  19.505   3.637  0.00  0.00    -0.061 NA
ATOM      5  C5  014 d   1      40.621  20.015   4.581  0.00  0.00     0.728 C 
ATOM      6  C6  014 d   1      42.020  21.529   4.291  0.00  0.00     0.081 A 
ATOM      7  C7  014 d   1      42.832  22.636   4.322  0.00  0.00    -0.015 A 
ATOM      8  C8  014 d   1      43.965  22.679   3.577  0.00  0.00     0.140 A 
ATOM      9  C10 014 d   1      44.305  21.627   2.804  0.00  0.00     0.074 A 
ATOM     10  C11 014 d   1      43.526  20.479   2.741  0.00  0.00    -0.028 A 
ATOM     11  C12 014 d   1      42.369  20.437   3.486  0.00  0.00     0.105 A 
ATOM     12  H   014 d   1      40.307  21.895   5.541  0.00  0.00     0.184 HD
ATOM     13  H   014 d   1      42.564  23.486   4.950  0.00  0.00     0.091 H 
ATOM     14  H   014 d   1      43.822  19.634   2.119  0.00  0.00     0.090 H 
ENDROOT
BRANCH   5  15
ATOM     15  N2  014 d   1      39.471  19.523   4.895  0.00  0.00    -0.072 N 
ATOM     16  N1  014 d   1      38.649  20.201   5.774  0.00  0.00    -0.164 NA
ATOM     17  C3  014 d   1      37.505  19.469   5.701  0.00  0.00     0.041 A 
ATOM     18  C2  014 d   1      37.633  18.457   4.743  0.00  0.00     0.078 A 
ATOM     19  H   014 d   1      36.614  19.646   6.304  0.00  0.00     0.119 H 
ATOM     20  C4  014 d   1      38.892  18.563   4.206  0.00  0.00     0.040 A 
ATOM     21  H   014 d   1      39.318  17.980   3.389  0.00  0.00     0.117 H 
BRANCH  18  22
ATOM     22  C1  014 d   1      36.581  17.490   4.338  0.00  0.00     0.212 C 
ATOM     23  O1  014 d   1      35.449  17.485   4.948  0.00  0.00    -0.644 OA
ATOM     24  O2  014 d   1      36.833  16.778   3.316  0.00  0.00    -0.644 OA
ENDBRANCH  18  22
ENDBRANCH   5  15
TORSDOF 2
