REMARK  3 active torsions:
REMARK  status: ('A' for Active; 'I' for Inactive)
REMARK    1  A    between atoms: C24_12  and  C14_10 
REMARK       I    between atoms: N26_13  and  C24_12 
REMARK    2  A    between atoms: C43_18  and  N26_13 
REMARK    3  A    between atoms: C28_14  and  C43_18 
ROOT
ATOM      1  C1  42Z d   1      14.386  -7.637  -7.224  0.00  0.00    -0.030 A 
ATOM      2  C2  42Z d   1      13.293  -7.552  -8.060  0.00  0.00     0.087 A 
ATOM      3  C3  42Z d   1      11.971  -8.055  -7.670  0.00  0.00     0.064 A 
ATOM      4 CL3  42Z d   1      15.689  -8.288  -4.922  0.00  0.00    -0.082 Cl
ATOM      5  C4  42Z d   1      11.820  -8.632  -6.416  0.00  0.00    -0.032 A 
ATOM      6 CL4  42Z d   1      12.683  -9.483  -3.964  0.00  0.00    -0.082 Cl
ATOM      7  C5  42Z d   1      12.911  -8.714  -5.576  0.00  0.00     0.058 A 
ATOM      8  C6  42Z d   1      14.233  -8.199  -5.974  0.00  0.00     0.058 A 
ATOM      9  N13 42Z d   1      11.138  -7.839  -8.679  0.00  0.00    -0.334 N 
ATOM     10  C14 42Z d   1      11.862  -7.232  -9.646  0.00  0.00     0.197 A 
ATOM     11  N15 42Z d   1      13.150  -7.072  -9.306  0.00  0.00    -0.224 NA
ATOM     12  H1  42Z d   1      15.353  -7.267  -7.545  0.00  0.00     0.089 H 
ATOM     13  H2  42Z d   1      10.856  -9.014  -6.101  0.00  0.00     0.089 H 
ATOM     14  H3  42Z d   1      10.139  -8.085  -8.718  0.00  0.00     0.168 HD
ENDROOT
BRANCH  10  15
ATOM     15  C24 42Z d   1      11.418  -6.813 -10.973  0.00  0.00     0.288 C 
ATOM     16  N26 42Z d   1      10.305  -7.266 -11.511  0.00  0.00    -0.344 N 
ATOM     17  H4  42Z d   1       9.593  -7.691 -10.952  0.00  0.00     0.163 HD
ATOM     18  O34 42Z d   1      12.223  -6.125 -11.562  0.00  0.00    -0.264 OA
BRANCH  16  19
ATOM     19  C43 42Z d   1      10.153  -7.125 -12.939  0.00  0.00     0.075 C 
ATOM     20  H5  42Z d   1      10.915  -7.741 -13.438  0.00  0.00     0.080 H 
ATOM     21  H6  42Z d   1      10.302  -6.069 -13.208  0.00  0.00     0.080 H 
BRANCH  19  22
ATOM     22  C28 42Z d   1       8.801  -7.556 -13.413  0.00  0.00     0.191 C 
ATOM     23  O30 42Z d   1       7.966  -7.942 -12.638  0.00  0.00    -0.647 OA
ATOM     24  O32 42Z d   1       8.530  -7.462 -14.698  0.00  0.00    -0.647 OA
ENDBRANCH  19  22
ENDBRANCH  16  19
ENDBRANCH  10  15
TORSDOF 3
