REMARK  6 active torsions:
REMARK  status: ('A' for Active; 'I' for Inactive)
REMARK    1  A    between atoms: C6_6  and  N11_11 
REMARK    2  A    between atoms: C9_9  and  C10_10 
REMARK       I    between atoms: N14_14  and  C17_17 
REMARK    3  A    between atoms: C17_17  and  C19_19 
REMARK    4  A    between atoms: C19_19  and  C20_20 
REMARK    5  A    between atoms: C19_19  and  N30_30 
REMARK    6  A    between atoms: C20_20  and  C21_21 
ROOT
ATOM      1  N11 SMY d   1       9.177  33.614  36.422  0.00  0.00    -0.362 N 
ATOM      2  C12 SMY d   1       8.204  33.932  37.414  0.00  0.00     0.011 C 
ATOM      3  C13 SMY d   1       7.029  34.590  36.717  0.00  0.00     0.013 C 
ATOM      4  N14 SMY d   1       6.357  33.836  35.640  0.00  0.00    -0.347 N 
ATOM      5  C15 SMY d   1       7.222  32.955  34.837  0.00  0.00     0.013 C 
ATOM      6  C16 SMY d   1       8.678  32.809  35.294  0.00  0.00     0.011 C 
ATOM      7  C17 SMY d   1       5.012  34.059  35.390  0.00  0.00     0.250 C 
ATOM      8  O18 SMY d   1       4.366  34.854  36.078  0.00  0.00    -0.271 OA
ATOM      9  H8  SMY d   1       8.635  34.623  38.153  0.00  0.00     0.066 H 
ATOM     10  H9  SMY d   1       7.872  33.014  37.920  0.00  0.00     0.066 H 
ATOM     11  H10 SMY d   1       7.392  35.532  36.281  0.00  0.00     0.066 H 
ATOM     12  H11 SMY d   1       6.273  34.809  37.485  0.00  0.00     0.066 H 
ATOM     13  H12 SMY d   1       7.234  33.348  33.809  0.00  0.00     0.066 H 
ATOM     14  H13 SMY d   1       6.770  31.952  34.841  0.00  0.00     0.066 H 
ATOM     15  H14 SMY d   1       8.821  31.753  35.569  0.00  0.00     0.066 H 
ATOM     16  H15 SMY d   1       9.309  33.051  34.426  0.00  0.00     0.066 H 
ENDROOT
BRANCH   7  17
ATOM     17  C19 SMY d   1       4.121  33.449  34.295  0.00  0.00     0.179 C 
ATOM     18  H16 SMY d   1       4.741  32.870  33.595  0.00  0.00     0.099 H 
BRANCH  17  19
ATOM     19  C20 SMY d   1       3.095  32.472  34.926  0.00  0.00    -0.004 C 
ATOM     20  H17 SMY d   1       2.371  32.235  34.133  0.00  0.00     0.044 H 
ATOM     21  H18 SMY d   1       2.591  33.033  35.727  0.00  0.00     0.044 H 
BRANCH  19  22
ATOM     22  C21 SMY d   1       3.514  31.116  35.547  0.00  0.00    -0.028 A 
ATOM     23  C22 SMY d   1       2.725  30.354  36.370  0.00  0.00    -0.015 A 
ATOM     24  N23 SMY d   1       3.304  29.148  36.788  0.00  0.00    -0.365 N 
ATOM     25  H19 SMY d   1       1.726  30.662  36.675  0.00  0.00     0.112 H 
ATOM     26  C24 SMY d   1       4.538  29.127  36.212  0.00  0.00     0.042 A 
ATOM     27  H20 SMY d   1       2.886  28.432  37.399  0.00  0.00     0.165 HD
ATOM     28  C25 SMY d   1       4.721  30.277  35.463  0.00  0.00    -0.002 A 
ATOM     29  C26 SMY d   1       5.574  28.166  36.282  0.00  0.00    -0.056 A 
ATOM     30  C29 SMY d   1       5.953  30.442  34.780  0.00  0.00    -0.070 A 
ATOM     31  C28 SMY d   1       6.999  29.483  34.851  0.00  0.00    -0.082 A 
ATOM     32  H24 SMY d   1       6.102  31.333  34.181  0.00  0.00     0.084 H 
ATOM     33  C27 SMY d   1       6.815  28.314  35.618  0.00  0.00    -0.081 A 
ATOM     34  H23 SMY d   1       7.930  29.648  34.321  0.00  0.00     0.083 H 
ATOM     35  H22 SMY d   1       7.591  27.561  35.696  0.00  0.00     0.083 H 
ATOM     36  H21 SMY d   1       5.409  27.273  36.873  0.00  0.00     0.086 H 
ENDBRANCH  19  22
ENDBRANCH  17  19
BRANCH  17  37
ATOM     37  N30 SMY d   1       3.534  34.635  33.548  0.00  0.00    -0.066 N 
ATOM     38  H25 SMY d   1       4.281  35.203  33.180  0.00  0.00     0.275 HD
ATOM     39  H26 SMY d   1       2.973  35.185  34.179  0.00  0.00     0.275 HD
ATOM     40  H27 SMY d   1       2.959  34.303  32.790  0.00  0.00     0.275 HD
ENDBRANCH  17  37
ENDBRANCH   7  17
BRANCH   1  41
ATOM     41  C6  SMY d   1      10.537  33.606  36.642  0.00  0.00     0.136 A 
ATOM     42  N1  SMY d   1      11.182  34.753  36.867  0.00  0.00    -0.224 NA
ATOM     43  C2  SMY d   1      12.528  34.737  37.006  0.00  0.00     0.089 A 
ATOM     44  N3  SMY d   1      13.308  33.655  36.997  0.00  0.00    -0.245 NA
ATOM     45  H1  SMY d   1      13.019  35.694  37.137  0.00  0.00     0.146 H 
ATOM     46  C4  SMY d   1      12.684  32.493  36.752  0.00  0.00     0.056 A 
ATOM     47  C5  SMY d   1      11.274  32.406  36.612  0.00  0.00     0.027 A 
ATOM     48  C7  SMY d   1      13.441  31.210  36.691  0.00  0.00     0.018 C 
ATOM     49  C9  SMY d   1      10.596  31.065  36.323  0.00  0.00     0.019 C 
ATOM     50  S8  SMY d   1      12.044  30.014  36.510  0.00  0.00    -0.154 SA
ATOM     51  H4  SMY d   1      10.178  31.067  35.306  0.00  0.00     0.063 H 
ATOM     52  H2  SMY d   1      14.014  31.031  37.613  0.00  0.00     0.058 H 
ATOM     53  H3  SMY d   1      14.119  31.178  35.826  0.00  0.00     0.058 H 
BRANCH  49  54
ATOM     54  C10 SMY d   1       9.530  30.441  37.311  0.00  0.00    -0.060 C 
ATOM     55  H5  SMY d   1       9.175  29.481  36.909  0.00  0.00     0.029 H 
ATOM     56  H6  SMY d   1       8.680  31.131  37.416  0.00  0.00     0.029 H 
ATOM     57  H7  SMY d   1       9.994  30.277  38.295  0.00  0.00     0.029 H 
ENDBRANCH  49  54
ENDBRANCH   1  41
TORSDOF 6
