REMARK  6 active torsions:
REMARK  status: ('A' for Active; 'I' for Inactive)
REMARK    1  A    between atoms: C6_6  and  N11_11 
REMARK    2  A    between atoms: C9_9  and  C10_10 
REMARK       I    between atoms: N14_14  and  C17_17 
REMARK    3  A    between atoms: C17_17  and  C19_19 
REMARK    4  A    between atoms: C19_19  and  C20_20 
REMARK    5  A    between atoms: C19_19  and  N30_30 
REMARK    6  A    between atoms: C20_20  and  C21_21 
ROOT
ATOM      1  N11 SMY d   1      13.459  -2.233  16.113  0.00  0.00    -0.362 N 
ATOM      2  C12 SMY d   1      13.348  -1.535  17.415  0.00  0.00     0.011 C 
ATOM      3  C13 SMY d   1      12.020  -0.808  17.636  0.00  0.00     0.013 C 
ATOM      4  N14 SMY d   1      10.952  -1.813  17.496  0.00  0.00    -0.347 N 
ATOM      5  C15 SMY d   1      10.978  -2.550  16.219  0.00  0.00     0.013 C 
ATOM      6  C16 SMY d   1      12.348  -3.177  15.928  0.00  0.00     0.011 C 
ATOM      7  C17 SMY d   1       9.798  -1.683  18.193  0.00  0.00     0.250 C 
ATOM      8  O18 SMY d   1       8.855  -2.476  18.059  0.00  0.00    -0.271 OA
ATOM      9  H   SMY d   1      14.133  -0.779  17.439  0.00  0.00     0.066 H 
ATOM     10  H   SMY d   1      13.428  -2.296  18.192  0.00  0.00     0.066 H 
ATOM     11  H   SMY d   1      11.893  -0.006  16.909  0.00  0.00     0.066 H 
ATOM     12  H   SMY d   1      11.991  -0.349  18.624  0.00  0.00     0.066 H 
ATOM     13  H   SMY d   1      10.755  -1.844  15.419  0.00  0.00     0.066 H 
ATOM     14  H   SMY d   1      10.247  -3.356  16.282  0.00  0.00     0.066 H 
ATOM     15  H   SMY d   1      12.492  -4.002  16.626  0.00  0.00     0.066 H 
ATOM     16  H   SMY d   1      12.353  -3.498  14.886  0.00  0.00     0.066 H 
ENDROOT
BRANCH   7  17
ATOM     17  C19 SMY d   1       9.858  -1.000  19.532  0.00  0.00     0.179 C 
ATOM     18  H   SMY d   1      10.862  -0.621  19.722  0.00  0.00     0.099 H 
BRANCH  17  19
ATOM     19  C20 SMY d   1       8.997   0.274  19.609  0.00  0.00    -0.004 C 
ATOM     20  H   SMY d   1       9.132   0.633  20.629  0.00  0.00     0.044 H 
ATOM     21  H   SMY d   1       8.011  -0.042  19.269  0.00  0.00     0.044 H 
BRANCH  19  22
ATOM     22  C21 SMY d   1       9.335   1.475  18.734  0.00  0.00    -0.028 A 
ATOM     23  C22 SMY d   1      10.079   2.585  19.055  0.00  0.00    -0.015 A 
ATOM     24  N23 SMY d   1      10.178   3.536  18.007  0.00  0.00    -0.365 N 
ATOM     25  H   SMY d   1      10.551   2.722  20.028  0.00  0.00     0.112 H 
ATOM     26  C24 SMY d   1       9.453   3.001  16.981  0.00  0.00     0.042 A 
ATOM     27  H   SMY d   1      10.680   4.424  18.018  0.00  0.00     0.165 HD
ATOM     28  C25 SMY d   1       8.923   1.766  17.370  0.00  0.00    -0.002 A 
ATOM     29  C26 SMY d   1       9.210   3.518  15.687  0.00  0.00    -0.056 A 
ATOM     30  C29 SMY d   1       8.125   0.992  16.497  0.00  0.00    -0.070 A 
ATOM     31  C28 SMY d   1       7.870   1.497  15.204  0.00  0.00    -0.082 A 
ATOM     32  H   SMY d   1       7.718   0.032  16.814  0.00  0.00     0.084 H 
ATOM     33  C27 SMY d   1       8.409   2.749  14.806  0.00  0.00    -0.081 A 
ATOM     34  H   SMY d   1       7.257   0.924  14.508  0.00  0.00     0.083 H 
ATOM     35  H   SMY d   1       8.203   3.126  13.804  0.00  0.00     0.083 H 
ATOM     36  H   SMY d   1       9.625   4.477  15.377  0.00  0.00     0.086 H 
ENDBRANCH  19  22
ENDBRANCH  17  19
BRANCH  17  37
ATOM     37  N30 SMY d   1       9.497  -2.029  20.545  0.00  0.00    -0.066 N 
ATOM     38  H   SMY d   1       9.524  -1.612  21.476  0.00  0.00     0.275 HD
ATOM     39  H   SMY d   1       8.558  -2.378  20.354  0.00  0.00     0.275 HD
ATOM     40  H   SMY d   1      10.163  -2.800  20.497  0.00  0.00     0.275 HD
ENDBRANCH  17  37
ENDBRANCH   7  17
BRANCH   1  41
ATOM     41  C6  SMY d   1      14.731  -2.627  15.710  0.00  0.00     0.136 A 
ATOM     42  N1  SMY d   1      14.875  -3.917  15.365  0.00  0.00    -0.224 NA
ATOM     43  C2  SMY d   1      16.103  -4.325  15.006  0.00  0.00     0.089 A 
ATOM     44  N3  SMY d   1      17.219  -3.585  14.967  0.00  0.00    -0.245 NA
ATOM     45  H   SMY d   1      16.202  -5.371  14.715  0.00  0.00     0.146 H 
ATOM     46  C4  SMY d   1      17.105  -2.299  15.321  0.00  0.00     0.056 A 
ATOM     47  C5  SMY d   1      15.865  -1.768  15.705  0.00  0.00     0.027 A 
ATOM     48  C7  SMY d   1      18.272  -1.347  15.317  0.00  0.00     0.018 C 
ATOM     49  C9  SMY d   1      15.853  -0.292  16.054  0.00  0.00     0.019 C 
ATOM     50  S8  SMY d   1      17.530   0.282  15.626  0.00  0.00    -0.154 SA
ATOM     51  H   SMY d   1      15.548  -0.148  17.090  0.00  0.00     0.063 H 
ATOM     52  H   SMY d   1      18.819  -1.375  14.375  0.00  0.00     0.058 H 
ATOM     53  H   SMY d   1      19.015  -1.608  16.071  0.00  0.00     0.058 H 
BRANCH  49  54
ATOM     54  C10 SMY d   1      14.914   0.489  15.130  0.00  0.00    -0.060 C 
ATOM     55  H   SMY d   1      15.032   1.557  15.313  0.00  0.00     0.029 H 
ATOM     56  H   SMY d   1      15.161   0.268  14.092  0.00  0.00     0.029 H 
ATOM     57  H   SMY d   1      13.883   0.196  15.330  0.00  0.00     0.029 H 
ENDBRANCH  49  54
ENDBRANCH   1  41
TORSDOF 6
