REMARK  3 active torsions:
REMARK  status: ('A' for Active; 'I' for Inactive)
REMARK    1  A    between atoms: C2_2  and  N9_9 
REMARK    2  A    between atoms: C3_3  and  O8_8 
REMARK    3  A    between atoms: C5_5  and  O7_7 
ROOT
ATOM      1  N9  MEX d   1      -1.574 -10.967  -4.870  0.00  0.00    -0.259 N 
ATOM      2  C10 MEX d   1      -1.413  -9.601  -5.141  0.00  0.00     0.071 A 
ATOM      3  C11 MEX d   1      -1.455  -9.451  -6.502  0.00  0.00     0.063 A 
ATOM      4  N12 MEX d   1      -1.638 -10.703  -7.082  0.00  0.00    -0.306 N 
ATOM      5  C13 MEX d   1      -1.735 -11.648  -6.054  0.00  0.00     0.332 A 
ATOM      6  C14 MEX d   1      -1.273  -8.532  -4.297  0.00  0.00    -0.054 A 
ATOM      7  C15 MEX d   1      -1.168  -7.295  -4.894  0.00  0.00    -0.081 A 
ATOM      8  C16 MEX d   1      -1.197  -7.143  -6.269  0.00  0.00    -0.081 A 
ATOM      9  C17 MEX d   1      -1.343  -8.223  -7.114  0.00  0.00    -0.055 A 
ATOM     10  O18 MEX d   1      -1.886 -12.853  -6.164  0.00  0.00    -0.246 OA
ATOM     11  H6  MEX d   1      -1.691 -10.894  -8.062  0.00  0.00     0.171 HD
ATOM     12  H7  MEX d   1      -1.246  -8.652  -3.220  0.00  0.00     0.087 H 
ATOM     13  H8  MEX d   1      -1.060  -6.416  -4.269  0.00  0.00     0.083 H 
ATOM     14  H9  MEX d   1      -1.103  -6.150  -6.693  0.00  0.00     0.083 H 
ATOM     15  H10 MEX d   1      -1.368  -8.112  -8.192  0.00  0.00     0.087 H 
ENDROOT
BRANCH   1  16
ATOM     16  C2  MEX d   1      -1.499 -11.533  -3.563  0.00  0.00     0.077 A 
ATOM     17  C1  MEX d   1      -0.329 -11.536  -2.825  0.00  0.00    -0.051 A 
ATOM     18  C6  MEX d   1      -0.358 -12.057  -1.544  0.00  0.00    -0.049 A 
ATOM     19  H1  MEX d   1       0.590 -11.139  -3.241  0.00  0.00     0.087 H 
ATOM     20  C5  MEX d   1      -1.536 -12.553  -1.013  0.00  0.00     0.068 A 
ATOM     21  H3  MEX d   1       0.549 -12.077  -0.951  0.00  0.00     0.087 H 
ATOM     22  C4  MEX d   1      -2.718 -12.571  -1.745  0.00  0.00    -0.017 A 
ATOM     23  C3  MEX d   1      -2.650 -12.077  -3.034  0.00  0.00     0.095 A 
ATOM     24  H2  MEX d   1      -3.643 -12.952  -1.327  0.00  0.00     0.092 H 
BRANCH  20  25
ATOM     25  O7  MEX d   1      -1.529 -13.003   0.309  0.00  0.00    -0.361 OA
ATOM     26  H4  MEX d   1      -2.396 -13.314   0.541  0.00  0.00     0.217 HD
ENDBRANCH  20  25
BRANCH  23  27
ATOM     27  O8  MEX d   1      -3.781 -12.046  -3.828  0.00  0.00    -0.358 OA
ATOM     28  H5  MEX d   1      -4.113 -12.929  -3.939  0.00  0.00     0.217 HD
ENDBRANCH  23  27
ENDBRANCH   1  16
TORSDOF 3
