REMARK  9 active torsions:
REMARK  status: ('A' for Active; 'I' for Inactive)
REMARK    1  A    between atoms: C22_1  and  O21_2 
REMARK    2  A    between atoms: O21_2  and  C18_3 
REMARK    3  A    between atoms: C7_8  and  C3_9 
REMARK    4  A    between atoms: C2_10  and  C8_11 
REMARK       I    between atoms: C8_11  and  N10_13 
REMARK    5  A    between atoms: N10_13  and  C26_14 
REMARK    6  A    between atoms: C26_14  and  C27_15 
REMARK    7  A    between atoms: C4_18  and  C6_19 
REMARK    8  A    between atoms: C13_23  and  O24_24 
REMARK    9  A    between atoms: C15_26  and  O23_27 
ROOT
ATOM      1  C3  BSM d   1       1.150   8.541  23.661  0.00  0.00     0.039 A 
ATOM      2  C2  BSM d   1       1.445   8.164  22.367  0.00  0.00     0.157 A 
ATOM      3  N1  BSM d   1       2.331   9.079  21.885  0.00  0.00    -0.168 NA
ATOM      4  N5  BSM d   1       2.615  10.056  22.773  0.00  0.00    -0.276 N 
ATOM      5  C4  BSM d   1       1.901   9.739  23.859  0.00  0.00     0.076 A 
ATOM      6  H14 BSM d   1       3.241  10.864  22.643  0.00  0.00     0.189 HD
ENDROOT
BRANCH   1   7
ATOM      7  C7  BSM d   1       0.208   7.847  24.537  0.00  0.00    -0.021 A 
ATOM      8  C20 BSM d   1      -1.118   7.773  24.153  0.00  0.00    -0.070 A 
ATOM      9  C19 BSM d   1      -2.073   7.237  24.986  0.00  0.00    -0.050 A 
ATOM     10  H5  BSM d   1      -1.411   8.144  23.177  0.00  0.00     0.085 H 
ATOM     11  C18 BSM d   1      -1.722   6.742  26.221  0.00  0.00     0.068 A 
ATOM     12  H4  BSM d   1      -3.109   7.205  24.667  0.00  0.00     0.087 H 
ATOM     13  C17 BSM d   1      -0.400   6.769  26.613  0.00  0.00    -0.050 A 
ATOM     14  C16 BSM d   1       0.550   7.346  25.772  0.00  0.00    -0.070 A 
ATOM     15  H6  BSM d   1      -0.103   6.346  27.566  0.00  0.00     0.087 H 
ATOM     16  H7  BSM d   1       1.582   7.401  26.099  0.00  0.00     0.085 H 
BRANCH  11  17
ATOM     17  O21 BSM d   1      -2.753   6.204  26.984  0.00  0.00    -0.356 OA
BRANCH  17  18
ATOM     18  C22 BSM d   1      -2.302   5.665  28.224  0.00  0.00     0.010 C 
ATOM     19  H1  BSM d   1      -3.159   5.256  28.780  0.00  0.00     0.066 H 
ATOM     20  H2  BSM d   1      -1.825   6.459  28.817  0.00  0.00     0.066 H 
ATOM     21  H3  BSM d   1      -1.574   4.863  28.032  0.00  0.00     0.066 H 
ENDBRANCH  17  18
ENDBRANCH  11  17
ENDBRANCH   1   7
BRANCH   2  22
ATOM     22  C8  BSM d   1       0.977   7.070  21.593  0.00  0.00     0.272 C 
ATOM     23  O9  BSM d   1       0.404   6.125  22.098  0.00  0.00    -0.266 OA
ATOM     24  N10 BSM d   1       1.150   7.253  20.236  0.00  0.00    -0.356 N 
ATOM     25  H8  BSM d   1       1.457   8.135  19.877  0.00  0.00     0.162 HD
BRANCH  24  26
ATOM     26  C26 BSM d   1       0.880   6.146  19.339  0.00  0.00    -0.008 C 
ATOM     27  H9  BSM d   1       0.663   5.249  19.937  0.00  0.00     0.063 H 
ATOM     28  H10 BSM d   1       1.770   5.966  18.719  0.00  0.00     0.063 H 
BRANCH  26  29
ATOM     29  C27 BSM d   1      -0.292   6.424  18.437  0.00  0.00    -0.061 C 
ATOM     30  H11 BSM d   1      -0.459   5.560  17.777  0.00  0.00     0.029 H 
ATOM     31  H12 BSM d   1      -0.083   7.316  17.828  0.00  0.00     0.029 H 
ATOM     32  H13 BSM d   1      -1.191   6.599  19.047  0.00  0.00     0.029 H 
ENDBRANCH  26  29
ENDBRANCH  24  26
ENDBRANCH   2  22
BRANCH   5  33
ATOM     33  C6  BSM d   1       1.937  10.578  25.023  0.00  0.00     0.028 A 
ATOM     34  C11 BSM d   1       0.741  11.065  25.529  0.00  0.00    -0.044 A 
ATOM     35  C12 BSM d   1       0.732  11.831  26.674  0.00  0.00     0.068 A 
ATOM     36  H15 BSM d   1      -0.191  10.842  25.021  0.00  0.00     0.087 H 
ATOM     37 CL25 BSM d   1      -0.760  12.483  27.349  0.00  0.00    -0.081 Cl
ATOM     38  C13 BSM d   1       1.929  12.054  27.309  0.00  0.00     0.090 A 
ATOM     39  C14 BSM d   1       3.136  11.588  26.822  0.00  0.00    -0.017 A 
ATOM     40  C15 BSM d   1       3.137  10.870  25.649  0.00  0.00     0.081 A 
ATOM     41  H17 BSM d   1       4.061  11.784  27.353  0.00  0.00     0.092 H 
BRANCH  38  42
ATOM     42  O24 BSM d   1       1.927  12.763  28.493  0.00  0.00    -0.359 OA
ATOM     43  H16 BSM d   1       2.817  12.840  28.816  0.00  0.00     0.217 HD
ENDBRANCH  38  42
BRANCH  40  44
ATOM     44  O23 BSM d   1       4.355  10.429  25.142  0.00  0.00    -0.360 OA
ATOM     45  H18 BSM d   1       4.915  11.177  24.970  0.00  0.00     0.217 HD
ENDBRANCH  40  44
ENDBRANCH   5  33
TORSDOF 9
