REMARK  7 active torsions:
REMARK  status: ('A' for Active; 'I' for Inactive)
REMARK    1  A    between atoms: C24_24  and  C15_15 
REMARK    2  A    between atoms: N26_26  and  C18_18 
REMARK    3  A    between atoms: C19_19  and  O31_31 
REMARK    4  A    between atoms: C20_20  and  O32_32 
REMARK    5  A    between atoms: S33_33  and  C21_21 
REMARK    6  A    between atoms: N27_27  and  C24_24 
REMARK    7  A    between atoms: N27_27  and  S33_33 
ROOT
ATOM      1  C7  MEY d   1      -0.525   5.640  22.543  0.00  0.00    -0.073 A 
ATOM      2  C8  MEY d   1      -0.203   6.956  22.860  0.00  0.00    -0.054 A 
ATOM      3  C10 MEY d   1       0.016   5.952  20.222  0.00  0.00    -0.047 A 
ATOM      4  C15 MEY d   1      -0.449   5.135  21.249  0.00  0.00    -0.038 A 
ATOM      5  C16 MEY d   1       0.240   7.751  21.816  0.00  0.00     0.071 A 
ATOM      6  C17 MEY d   1       0.362   7.248  20.547  0.00  0.00     0.064 A 
ATOM      7  C23 MEY d   1       1.095   9.391  20.498  0.00  0.00     0.332 A 
ATOM      8  N25 MEY d   1       0.882   8.269  19.705  0.00  0.00    -0.306 N 
ATOM      9  N26 MEY d   1       0.691   9.077  21.794  0.00  0.00    -0.259 N 
ATOM     10  O28 MEY d   1       1.511  10.483  20.135  0.00  0.00    -0.246 OA
ATOM     11  H7  MEY d   1      -0.849   4.979  23.339  0.00  0.00     0.084 H 
ATOM     12  H8  MEY d   1      -0.294   7.339  23.870  0.00  0.00     0.087 H 
ATOM     13  H10 MEY d   1       0.103   5.584  19.206  0.00  0.00     0.088 H 
ATOM     14  H15 MEY d   1       1.061   8.194  18.724  0.00  0.00     0.171 HD
ENDROOT
BRANCH   4  15
ATOM     15  C24 MEY d   1      -0.851   3.717  20.946  0.00  0.00     0.027 C 
ATOM     16  H13 MEY d   1      -0.004   3.056  21.183  0.00  0.00     0.072 H 
ATOM     17  H14 MEY d   1      -1.085   3.642  19.874  0.00  0.00     0.072 H 
BRANCH  15  18
ATOM     18  N27 MEY d   1      -2.036   3.263  21.721  0.00  0.00    -0.311 N 
ATOM     19  H16 MEY d   1      -1.951   2.804  22.605  0.00  0.00     0.172 HD
BRANCH  18  20
ATOM     20  S33 MEY d   1      -3.553   3.577  21.000  0.00  0.00     0.260 S 
ATOM     21  O29 MEY d   1      -4.548   3.178  21.979  0.00  0.00    -0.201 OA
ATOM     22  O30 MEY d   1      -3.576   3.008  19.675  0.00  0.00    -0.201 OA
BRANCH  20  23
ATOM     23  C21 MEY d   1      -3.616   5.348  20.769  0.00  0.00     0.090 A 
ATOM     24  C9  MEY d   1      -3.500   5.749  19.450  0.00  0.00    -0.059 A 
ATOM     25  C3  MEY d   1      -3.485   7.092  19.155  0.00  0.00    -0.081 A 
ATOM     26  H9  MEY d   1      -3.422   5.013  18.658  0.00  0.00     0.085 H 
ATOM     27  C6  MEY d   1      -3.578   7.999  20.188  0.00  0.00    -0.072 A 
ATOM     28  H3  MEY d   1      -3.401   7.431  18.129  0.00  0.00     0.083 H 
ATOM     29  C13 MEY d   1      -3.680   7.592  21.507  0.00  0.00    -0.024 A 
ATOM     30  H6  MEY d   1      -3.571   9.059  19.962  0.00  0.00     0.084 H 
ATOM     31  C4  MEY d   1      -3.785   8.544  22.504  0.00  0.00    -0.072 A 
ATOM     32  C14 MEY d   1      -3.717   6.244  21.827  0.00  0.00    -0.003 A 
ATOM     33  C1  MEY d   1      -3.892   8.152  23.824  0.00  0.00    -0.082 A 
ATOM     34  H4  MEY d   1      -3.783   9.598  22.250  0.00  0.00     0.084 H 
ATOM     35  C2  MEY d   1      -3.899   6.801  24.160  0.00  0.00    -0.082 A 
ATOM     36  H1  MEY d   1      -3.971   8.901  24.604  0.00  0.00     0.083 H 
ATOM     37  C5  MEY d   1      -3.808   5.855  23.150  0.00  0.00    -0.071 A 
ATOM     38  H2  MEY d   1      -3.974   6.493  25.197  0.00  0.00     0.083 H 
ATOM     39  H5  MEY d   1      -3.808   4.800  23.401  0.00  0.00     0.084 H 
ENDBRANCH  20  23
ENDBRANCH  18  20
ENDBRANCH  15  18
ENDBRANCH   4  15
BRANCH   9  40
ATOM     40  C18 MEY d   1       0.614   9.977  22.891  0.00  0.00     0.079 A 
ATOM     41  C11 MEY d   1      -0.607  10.389  23.390  0.00  0.00    -0.030 A 
ATOM     42  C22 MEY d   1      -0.657  11.148  24.536  0.00  0.00     0.069 A 
ATOM     43  H11 MEY d   1      -1.523  10.115  22.880  0.00  0.00     0.089 H 
ATOM     44  C20 MEY d   1       0.493  11.418  25.246  0.00  0.00     0.090 A 
ATOM     45 CL34 MEY d   1      -2.205  11.691  25.134  0.00  0.00    -0.081 Cl
ATOM     46  C12 MEY d   1       1.725  11.063  24.733  0.00  0.00    -0.015 A 
ATOM     47  C19 MEY d   1       1.775  10.357  23.549  0.00  0.00     0.095 A 
ATOM     48  H12 MEY d   1       2.637  11.335  25.252  0.00  0.00     0.092 H 
BRANCH  44  49
ATOM     49  O32 MEY d   1       0.406  12.128  26.435  0.00  0.00    -0.359 OA
ATOM     50  H18 MEY d   1       1.275  12.233  26.804  0.00  0.00     0.217 HD
ENDBRANCH  44  49
BRANCH  47  51
ATOM     51  O31 MEY d   1       2.996  10.048  22.982  0.00  0.00    -0.358 OA
ATOM     52  H17 MEY d   1       3.694  10.369  23.541  0.00  0.00     0.217 HD
ENDBRANCH  47  51
ENDBRANCH   9  40
TORSDOF 7
