REMARK  2 active torsions:
REMARK  status: ('A' for Active; 'I' for Inactive)
REMARK    1  A    between atoms: C1_1  and  O1_2 
REMARK    2  A    between atoms: C14_15  and  C15_16 
ROOT
ATOM      1  C1  18E d   1      23.182   9.778  11.027  0.00  0.00     0.066 A 
ATOM      2  C2  18E d   1      23.009  10.204  12.351  0.00  0.00    -0.050 A 
ATOM      3  C3  18E d   1      22.867   9.292  13.400  0.00  0.00    -0.067 A 
ATOM      4  C4  18E d   1      22.886   7.937  13.099  0.00  0.00     0.002 A 
ATOM      5  C5  18E d   1      23.073   7.481  11.685  0.00  0.00    -0.021 A 
ATOM      6  C6  18E d   1      23.211   8.426  10.685  0.00  0.00    -0.040 A 
ATOM      7  C7  18E d   1      22.760   6.937  14.051  0.00  0.00     0.055 A 
ATOM      8  C8  18E d   1      22.806   5.533  13.626  0.00  0.00     0.007 A 
ATOM      9  C9  18E d   1      22.975   5.132  12.307  0.00  0.00    -0.069 A 
ATOM     10  C10 18E d   1      23.109   6.128  11.343  0.00  0.00    -0.071 A 
ATOM     11  N11 18E d   1      22.579   6.990  15.400  0.00  0.00    -0.354 N 
ATOM     12  C12 18E d   1      22.496   5.734  15.946  0.00  0.00     0.054 A 
ATOM     13  C13 18E d   1      22.634   4.768  14.847  0.00  0.00     0.044 A 
ATOM     14  C14 18E d   1      22.314   5.137  17.298  0.00  0.00    -0.017 A 
ATOM     15  C16 18E d   1      22.285   3.742  17.413  0.00  0.00     0.012 A 
ATOM     16  N17 18E d   1      22.415   2.895  16.364  0.00  0.00    -0.247 NA
ATOM     17  C18 18E d   1      22.588   3.307  15.081  0.00  0.00     0.139 A 
ATOM     18 CL18 18E d   1      22.742   2.146  13.760  0.00  0.00    -0.061 Cl
ATOM     19  H2  18E d   1      22.985  11.266  12.566  0.00  0.00     0.087 H 
ATOM     20  H3  18E d   1      22.745   9.633  14.422  0.00  0.00     0.085 H 
ATOM     21  H4  18E d   1      23.340   8.121   9.653  0.00  0.00     0.089 H 
ATOM     22  H5  18E d   1      23.002   4.082  12.038  0.00  0.00     0.085 H 
ATOM     23  H6  18E d   1      23.244   5.847  10.305  0.00  0.00     0.084 H 
ATOM     24  H7  18E d   1      22.513   7.863  15.942  0.00  0.00     0.166 HD
ATOM     25  H11 18E d   1      22.151   3.314  18.400  0.00  0.00     0.115 H 
ENDROOT
BRANCH  14  26
ATOM     26  C15 18E d   1      22.159   6.002  18.521  0.00  0.00    -0.048 C 
ATOM     27  H8  18E d   1      22.038   5.364  19.409  0.00  0.00     0.033 H 
ATOM     28  H9  18E d   1      21.273   6.643  18.407  0.00  0.00     0.033 H 
ATOM     29  H10 18E d   1      23.053   6.631  18.641  0.00  0.00     0.033 H 
ENDBRANCH  14  26
BRANCH   1  30
ATOM     30  O1  18E d   1      23.327  10.680  10.026  0.00  0.00    -0.361 OA
ATOM     31  H1  18E d   1      22.556  11.233   9.986  0.00  0.00     0.217 HD
ENDBRANCH   1  30
TORSDOF 2
