REMARK  2 active torsions:
REMARK  status: ('A' for Active; 'I' for Inactive)
REMARK    1  A    between atoms: C1_1  and  O1_2 
REMARK    2  A    between atoms: C14_15  and  C15_16 
ROOT
ATOM      1  C1  19E d   1      23.493   7.444  10.838  0.00  0.00     0.066 A 
ATOM      2  C2  19E d   1      23.325   8.466  11.763  0.00  0.00    -0.040 A 
ATOM      3  C3  19E d   1      23.102   8.171  13.100  0.00  0.00    -0.022 A 
ATOM      4  C4  19E d   1      23.058   6.834  13.528  0.00  0.00    -0.012 A 
ATOM      5  C5  19E d   1      23.231   5.811  12.591  0.00  0.00    -0.069 A 
ATOM      6  C6  19E d   1      23.448   6.110  11.248  0.00  0.00    -0.050 A 
ATOM      7  C7  19E d   1      22.936   9.232  13.995  0.00  0.00    -0.070 A 
ATOM      8  C8  19E d   1      22.720   8.973  15.341  0.00  0.00    -0.056 A 
ATOM      9  C9  19E d   1      22.675   7.650  15.776  0.00  0.00     0.044 A 
ATOM     10  C10 19E d   1      22.842   6.595  14.892  0.00  0.00     0.017 A 
ATOM     11  N11 19E d   1      22.479   7.097  17.012  0.00  0.00    -0.354 N 
ATOM     12  C12 19E d   1      22.510   5.736  16.994  0.00  0.00     0.054 A 
ATOM     13  C13 19E d   1      22.729   5.346  15.683  0.00  0.00     0.045 A 
ATOM     14  C14 19E d   1      22.365   4.778  17.991  0.00  0.00    -0.017 A 
ATOM     15  C16 19E d   1      22.441   3.439  17.636  0.00  0.00     0.012 A 
ATOM     16  N17 19E d   1      22.657   3.084  16.361  0.00  0.00    -0.247 NA
ATOM     17  C18 19E d   1      22.807   3.975  15.364  0.00  0.00     0.139 A 
ATOM     18 CL18 19E d   1      23.073   3.285  13.756  0.00  0.00    -0.061 Cl
ATOM     19  H2  19E d   1      23.368   9.499  11.439  0.00  0.00     0.089 H 
ATOM     20  H3  19E d   1      23.196   4.776  12.912  0.00  0.00     0.085 H 
ATOM     21  H4  19E d   1      23.581   5.312  10.526  0.00  0.00     0.087 H 
ATOM     22  H5  19E d   1      22.976  10.255  13.638  0.00  0.00     0.084 H 
ATOM     23  H6  19E d   1      22.588   9.788  16.044  0.00  0.00     0.087 H 
ATOM     24  H7  19E d   1      22.324   7.652  17.866  0.00  0.00     0.166 HD
ATOM     25  H11 19E d   1      22.325   2.674  18.395  0.00  0.00     0.115 H 
ENDROOT
BRANCH  14  26
ATOM     26  C15 19E d   1      22.120   5.174  19.428  0.00  0.00    -0.048 C 
ATOM     27  H8  19E d   1      22.036   4.269  20.048  0.00  0.00     0.033 H 
ATOM     28  H9  19E d   1      21.187   5.752  19.495  0.00  0.00     0.033 H 
ATOM     29  H10 19E d   1      22.959   5.788  19.787  0.00  0.00     0.033 H 
ENDBRANCH  14  26
BRANCH   1  30
ATOM     30  O1  19E d   1      23.705   7.769   9.531  0.00  0.00    -0.361 OA
ATOM     31  H1  19E d   1      23.801   6.974   9.020  0.00  0.00     0.217 HD
ENDBRANCH   1  30
TORSDOF 2
