REMARK  17 active torsions:
REMARK  status: ('A' for Active; 'I' for Inactive)
REMARK    1  A    between atoms: C_1  and  C2_4 
REMARK       I    between atoms: N_13  and  C_1 
REMARK    2  A    between atoms: CA_14  and  N_13 
REMARK    3  A    between atoms: C1_15  and  CA_14 
REMARK    4  A    between atoms: CA_14  and  CB_17 
REMARK       I    between atoms: N2_24  and  C1_15 
REMARK    5  A    between atoms: CB_17  and  CG_18 
REMARK       I    between atoms: CG_18  and  ND2_20 
REMARK    6  A    between atoms: C9_21  and  O2_22 
REMARK    7  A    between atoms: CA1_23  and  C9_21 
REMARK    8  A    between atoms: C9_21  and  CM_33 
REMARK    9  A    between atoms: CA1_23  and  N2_24 
REMARK   10  A    between atoms: CA1_23  and  CB1_25 
REMARK   11  A    between atoms: CB1_25  and  CG1_26 
REMARK   12  A    between atoms: CM_33  and  N11_32 
REMARK   13  A    between atoms: C21_34  and  CC_35 
REMARK       I    between atoms: CC_35  and  N3_45 
REMARK   14  A    between atoms: N3_45  and  CD_46 
REMARK   15  A    between atoms: CD_46  and  C11_47 
REMARK   16  A    between atoms: CD_46  and  C22_48 
REMARK   17  A    between atoms: CD_46  and  C32_49 
ROOT
ATOM      1  C9  ROC d   1       5.635  -0.389  16.173  0.00  0.00     0.078 C 
ATOM      2  H   ROC d   1       6.729  -0.457  16.076  0.00  0.00     0.088 H 
ENDROOT
BRANCH   1   3
ATOM      3  O2  ROC d   1       5.361   0.003  17.545  0.00  0.00    -0.392 OA
ATOM      4  H   ROC d   1       4.422   0.008  17.690  0.00  0.00     0.210 HD
ENDBRANCH   1   3
BRANCH   1   5
ATOM      5  CA1 ROC d   1       5.099  -1.789  15.836  0.00  0.00     0.042 C 
ATOM      6  H   ROC d   1       5.259  -1.956  14.761  0.00  0.00     0.077 H 
BRANCH   5   7
ATOM      7  N2  ROC d   1       5.884  -2.787  16.575  0.00  0.00    -0.352 N 
ATOM      8  C1  ROC d   1       6.545  -3.784  15.951  0.00  0.00     0.241 C 
ATOM      9  O1  ROC d   1       6.551  -3.978  14.719  0.00  0.00    -0.271 OA
ATOM     10  H   ROC d   1       5.930  -2.725  17.572  0.00  0.00     0.163 HD
BRANCH   8  11
ATOM     11  CA  ROC d   1       7.286  -4.711  16.957  0.00  0.00     0.097 C 
ATOM     12  H   ROC d   1       7.391  -4.184  17.917  0.00  0.00     0.088 H 
BRANCH  11  13
ATOM     13  N   ROC d   1       6.488  -5.948  17.162  0.00  0.00    -0.342 N 
ATOM     14  C   ROC d   1       6.177  -6.412  18.371  0.00  0.00     0.271 C 
ATOM     15  O   ROC d   1       6.755  -5.936  19.395  0.00  0.00    -0.266 OA
ATOM     16  H   ROC d   1       6.171  -6.453  16.359  0.00  0.00     0.163 HD
BRANCH  14  17
ATOM     17  C2  ROC d   1       5.160  -7.572  18.330  0.00  0.00     0.125 A 
ATOM     18  N1  ROC d   1       4.960  -8.231  17.149  0.00  0.00    -0.243 NA
ATOM     19  C8A ROC d   1       4.094  -9.239  17.027  0.00  0.00     0.068 A 
ATOM     20  C8  ROC d   1       3.942  -9.924  15.802  0.00  0.00    -0.054 C 
ATOM     21  C4A ROC d   1       3.346  -9.679  18.121  0.00  0.00    -0.007 A 
ATOM     22  C7  ROC d   1       3.011 -10.932  15.724  0.00  0.00    -0.081 C 
ATOM     23  H   ROC d   1       4.546  -9.661  14.942  0.00  0.00     0.087 H 
ATOM     24  C6  ROC d   1       2.320 -11.404  16.828  0.00  0.00    -0.082 C 
ATOM     25  H   ROC d   1       2.809 -11.377  14.757  0.00  0.00     0.083 H 
ATOM     26  C5  ROC d   1       2.413 -10.730  18.024  0.00  0.00    -0.071 C 
ATOM     27  H   ROC d   1       1.711 -12.297  16.750  0.00  0.00     0.083 H 
ATOM     28  H   ROC d   1       1.787 -11.000  18.867  0.00  0.00     0.084 H 
ATOM     29  C4  ROC d   1       3.498  -9.023  19.343  0.00  0.00    -0.068 A 
ATOM     30  C3  ROC d   1       4.457  -7.993  19.439  0.00  0.00    -0.049 A 
ATOM     31  H   ROC d   1       2.893  -9.299  20.199  0.00  0.00     0.085 H 
ATOM     32  H   ROC d   1       4.644  -7.526  20.399  0.00  0.00     0.087 H 
ENDBRANCH  14  17
ENDBRANCH  11  13
BRANCH  11  33
ATOM     33  CB  ROC d   1       8.674  -5.078  16.442  0.00  0.00     0.036 C 
ATOM     34  H   ROC d   1       9.228  -4.155  16.214  0.00  0.00     0.051 H 
ATOM     35  H   ROC d   1       8.570  -5.679  15.526  0.00  0.00     0.051 H 
BRANCH  33  36
ATOM     36  CG  ROC d   1       9.461  -5.891  17.490  0.00  0.00     0.217 C 
ATOM     37  OD1 ROC d   1       9.823  -5.373  18.530  0.00  0.00    -0.274 OA
ATOM     38  ND2 ROC d   1       9.676  -7.157  17.201  0.00  0.00    -0.370 N 
ATOM     39  H   ROC d   1      10.181  -7.737  17.840  0.00  0.00     0.159 HD
ATOM     40  H   ROC d   1       9.335  -7.539  16.342  0.00  0.00     0.159 HD
ENDBRANCH  33  36
ENDBRANCH  11  33
ENDBRANCH   8  11
ENDBRANCH   5   7
BRANCH   5  41
ATOM     41  CB1 ROC d   1       3.606  -1.961  16.099  0.00  0.00    -0.020 C 
ATOM     42  H   ROC d   1       3.068  -1.459  15.282  0.00  0.00     0.043 H 
ATOM     43  H   ROC d   1       3.379  -1.458  17.051  0.00  0.00     0.043 H 
BRANCH  41  44
ATOM     44  CG1 ROC d   1       3.068  -3.378  16.194  0.00  0.00    -0.056 A 
ATOM     45  CD1 ROC d   1       2.642  -4.052  15.064  0.00  0.00    -0.077 A 
ATOM     46  CE1 ROC d   1       2.146  -5.349  15.166  0.00  0.00    -0.082 A 
ATOM     47  H   ROC d   1       2.695  -3.569  14.095  0.00  0.00     0.084 H 
ATOM     48  CZ  ROC d   1       2.121  -6.006  16.387  0.00  0.00    -0.083 A 
ATOM     49  H   ROC d   1       1.775  -5.851  14.280  0.00  0.00     0.083 H 
ATOM     50  CE2 ROC d   1       2.484  -5.315  17.550  0.00  0.00    -0.082 A 
ATOM     51  H   ROC d   1       1.823  -7.047  16.441  0.00  0.00     0.083 H 
ATOM     52  CD2 ROC d   1       2.957  -4.003  17.432  0.00  0.00    -0.077 A 
ATOM     53  H   ROC d   1       2.400  -5.787  18.522  0.00  0.00     0.083 H 
ATOM     54  H   ROC d   1       3.244  -3.461  18.326  0.00  0.00     0.084 H 
ENDBRANCH  41  44
ENDBRANCH   5  41
ENDBRANCH   1   5
BRANCH   1  55
ATOM     55  CM  ROC d   1       5.191   0.712  15.222  0.00  0.00     0.110 C 
ATOM     56  H   ROC d   1       5.364   1.684  15.707  0.00  0.00     0.080 H 
ATOM     57  H   ROC d   1       4.117   0.589  15.020  0.00  0.00     0.080 H 
BRANCH  55  58
ATOM     58  N11 ROC d   1       5.906   0.692  13.955  0.00  0.00    -0.055 N 
ATOM     59  C21 ROC d   1       5.169   1.277  12.835  0.00  0.00     0.180 C 
ATOM     60  C31 ROC d   1       5.985   1.191  11.549  0.00  0.00    -0.026 C 
ATOM     61  H   ROC d   1       4.992   2.335  13.079  0.00  0.00     0.100 H 
ATOM     62  C3A ROC d   1       7.330   1.903  11.668  0.00  0.00    -0.047 C 
ATOM     63  H   ROC d   1       5.410   1.655  10.734  0.00  0.00     0.037 H 
ATOM     64  H   ROC d   1       6.165   0.132  11.314  0.00  0.00     0.037 H 
ATOM     65  C41 ROC d   1       8.184   1.820  10.399  0.00  0.00    -0.061 C 
ATOM     66  C7A ROC d   1       8.080   1.362  12.886  0.00  0.00    -0.027 C 
ATOM     67  H   ROC d   1       7.123   2.969  11.846  0.00  0.00     0.040 H 
ATOM     68  C51 ROC d   1       8.580   0.335  10.158  0.00  0.00    -0.065 C 
ATOM     69  H   ROC d   1       9.091   2.429  10.523  0.00  0.00     0.033 H 
ATOM     70  H   ROC d   1       7.607   2.193   9.540  0.00  0.00     0.033 H 
ATOM     71  C61 ROC d   1       9.484  -0.022  11.339  0.00  0.00    -0.065 C 
ATOM     72  H   ROC d   1       9.123   0.228   9.207  0.00  0.00     0.033 H 
ATOM     73  H   ROC d   1       7.687  -0.307  10.145  0.00  0.00     0.033 H 
ATOM     74  C71 ROC d   1       8.513  -0.084  12.562  0.00  0.00    -0.060 C 
ATOM     75  H   ROC d   1      10.252   0.751  11.490  0.00  0.00     0.033 H 
ATOM     76  H   ROC d   1       9.970  -0.995  11.178  0.00  0.00     0.033 H 
ATOM     77  H   ROC d   1       9.028  -0.525  13.428  0.00  0.00     0.033 H 
ATOM     78  H   ROC d   1       7.632  -0.692  12.311  0.00  0.00     0.033 H 
ATOM     79  C81 ROC d   1       7.212   1.401  14.140  0.00  0.00     0.088 C 
ATOM     80  H   ROC d   1       8.974   1.978  13.062  0.00  0.00     0.043 H 
ATOM     81  H   ROC d   1       7.761   0.921  14.964  0.00  0.00     0.076 H 
ATOM     82  H   ROC d   1       7.010   2.451  14.397  0.00  0.00     0.076 H 
ATOM     83  H   ROC d   1       6.093  -0.271  13.723  0.00  0.00     0.281 HD
BRANCH  59  84
ATOM     84  CC  ROC d   1       3.821   0.631  12.522  0.00  0.00     0.249 C 
ATOM     85  O3  ROC d   1       3.821  -0.598  12.383  0.00  0.00    -0.271 OA
ATOM     86  N3  ROC d   1       2.773   1.441  12.349  0.00  0.00    -0.351 N 
ATOM     87  H   ROC d   1       2.936   2.425  12.427  0.00  0.00     0.163 HD
BRANCH  86  88
ATOM     88  CD  ROC d   1       1.396   1.004  12.053  0.00  0.00     0.022 C 
BRANCH  88  89
ATOM     89  C11 ROC d   1       0.560   2.290  11.948  0.00  0.00    -0.054 C 
ATOM     90  H   ROC d   1      -0.486   2.030  11.727  0.00  0.00     0.030 H 
ATOM     91  H   ROC d   1       0.959   2.922  11.141  0.00  0.00     0.030 H 
ATOM     92  H   ROC d   1       0.608   2.837  12.901  0.00  0.00     0.030 H 
ENDBRANCH  88  89
BRANCH  88  93
ATOM     93  C22 ROC d   1       0.874   0.195  13.237  0.00  0.00    -0.054 C 
ATOM     94  H   ROC d   1      -0.154  -0.138  13.029  0.00  0.00     0.030 H 
ATOM     95  H   ROC d   1       0.881   0.822  14.141  0.00  0.00     0.030 H 
ATOM     96  H   ROC d   1       1.519  -0.682  13.394  0.00  0.00     0.030 H 
ENDBRANCH  88  93
BRANCH  88  97
ATOM     97  C32 ROC d   1       1.374   0.133  10.797  0.00  0.00    -0.054 C 
ATOM     98  H   ROC d   1       0.342  -0.185  10.589  0.00  0.00     0.030 H 
ATOM     99  H   ROC d   1       2.006  -0.753  10.954  0.00  0.00     0.030 H 
ATOM    100  H   ROC d   1       1.759   0.711   9.944  0.00  0.00     0.030 H 
ENDBRANCH  88  97
ENDBRANCH  86  88
ENDBRANCH  59  84
ENDBRANCH  55  58
ENDBRANCH   1  55
TORSDOF 17
