REMARK  6 active torsions:
REMARK  status: ('A' for Active; 'I' for Inactive)
REMARK    1  A    between atoms: N1_3  and  C2_5 
REMARK       I    between atoms: C11_13  and  N1_3 
REMARK    2  A    between atoms: C6_11  and  O2_6 
REMARK    3  A    between atoms: O2_6  and  C9_12 
REMARK    4  A    between atoms: C3_8  and  C6_11 
REMARK    5  A    between atoms: C12_14  and  C11_13 
REMARK    6  A    between atoms: C12_14  and  C14_15 
ROOT
ATOM      1  N1  SYY d   1      -0.907  -1.311 -32.095  0.00  0.00    -0.325 N 
ATOM      2  O3  SYY d   1      -0.662  -2.949 -33.631  0.00  0.00    -0.273 OA
ATOM      3  C11 SYY d   1      -1.256  -1.956 -33.211  0.00  0.00     0.226 C 
ATOM      4  H2  SYY d   1      -1.427  -0.513 -31.791  0.00  0.00     0.169 HD
ENDROOT
BRANCH   1   5
ATOM      5  C2  SYY d   1       0.159  -1.748 -31.377  0.00  0.00     0.058 A 
ATOM      6  C1  SYY d   1       1.062  -2.806 -31.560  0.00  0.00    -0.049 A 
ATOM      7  C5  SYY d   1       2.010  -2.864 -30.545  0.00  0.00    -0.042 A 
ATOM      8  H1  SYY d   1       1.025  -3.500 -32.398  0.00  0.00     0.087 H 
ATOM      9  S   SYY d   1       1.816  -1.633 -29.346  0.00  0.00    -0.094 SA
ATOM     10  H3  SYY d   1       2.800  -3.613 -30.508  0.00  0.00     0.095 H 
ATOM     11  C3  SYY d   1       0.433  -0.971 -30.137  0.00  0.00     0.106 A 
BRANCH  11  12
ATOM     12  C6  SYY d   1      -0.301   0.201 -29.595  0.00  0.00     0.302 C 
ATOM     13  O1  SYY d   1      -1.396   0.521 -30.000  0.00  0.00    -0.259 OA
BRANCH  12  14
ATOM     14  O2  SYY d   1       0.206   1.035 -28.570  0.00  0.00    -0.322 OA
BRANCH  14  15
ATOM     15  C9  SYY d   1      -0.583   2.224 -28.394  0.00  0.00     0.013 C 
ATOM     16  H4  SYY d   1      -0.149   2.836 -27.589  0.00  0.00     0.067 H 
ATOM     17  H5  SYY d   1      -1.613   1.944 -28.128  0.00  0.00     0.067 H 
ATOM     18  H6  SYY d   1      -0.590   2.801 -29.330  0.00  0.00     0.067 H 
ENDBRANCH  14  15
ENDBRANCH  12  14
ENDBRANCH  11  12
ENDBRANCH   1   5
BRANCH   3  19
ATOM     19  C12 SYY d   1      -2.454  -1.461 -33.977  0.00  0.00     0.039 C 
ATOM     20  H7  SYY d   1      -3.220  -2.250 -33.974  0.00  0.00     0.055 H 
ATOM     21  H8  SYY d   1      -2.145  -1.254 -35.012  0.00  0.00     0.055 H 
BRANCH  19  22
ATOM     22  C14 SYY d   1      -3.056  -0.211 -33.402  0.00  0.00    -0.009 A 
ATOM     23  S2  SYY d   1      -2.619   1.237 -34.224  0.00  0.00    -0.106 SA
ATOM     24  C17 SYY d   1      -3.562   2.228 -33.166  0.00  0.00    -0.045 A 
ATOM     25  C16 SYY d   1      -4.186   1.454 -32.198  0.00  0.00    -0.076 A 
ATOM     26  H11 SYY d   1      -3.654   3.310 -33.248  0.00  0.00     0.095 H 
ATOM     27  C15 SYY d   1      -3.913   0.082 -32.323  0.00  0.00    -0.069 A 
ATOM     28  H10 SYY d   1      -4.824   1.869 -31.419  0.00  0.00     0.084 H 
ATOM     29  H9  SYY d   1      -4.321  -0.676 -31.656  0.00  0.00     0.085 H 
ENDBRANCH  19  22
ENDBRANCH   3  19
TORSDOF 6
