REMARK  9 active torsions:
REMARK  status: ('A' for Active; 'I' for Inactive)
REMARK    1  A    between atoms: C20_12  and  N3_2 
REMARK    2  A    between atoms: C5_4  and  C4_3 
REMARK    3  A    between atoms: C6_5  and  C11_26 
REMARK    4  A    between atoms: N2_29  and  C13_9 
REMARK    5  A    between atoms: C17_11  and  C19_33 
REMARK    6  A    between atoms: C16_31  and  C20_12 
REMARK    7  A    between atoms: C3_24  and  C2_23 
REMARK    8  A    between atoms: C12_27  and  C9_25 
REMARK       I    between atoms: C12_27  and  N2_29 
REMARK    9  A    between atoms: N4_39  and  C25_38 
ROOT
ATOM      1  C13 0LI d   1      14.760  -7.742  19.128  0.00  0.00     0.035 A 
ATOM      2  C15 0LI d   1      14.197  -7.099  21.442  0.00  0.00    -0.072 A 
ATOM      3  C17 0LI d   1      12.695  -6.377  19.566  0.00  0.00     0.058 A 
ATOM      4  C14 0LI d   1      15.060  -7.760  20.512  0.00  0.00    -0.057 A 
ATOM      5  C16 0LI d   1      13.008  -6.398  21.001  0.00  0.00    -0.015 A 
ATOM      6  C18 0LI d   1      13.581  -7.051  18.671  0.00  0.00    -0.042 A 
ATOM      7  H   0LI d   1      14.439  -7.123  22.505  0.00  0.00     0.084 H 
ATOM      8  H   0LI d   1      15.950  -8.278  20.869  0.00  0.00     0.086 H 
ATOM      9  H   0LI d   1      13.357  -7.042  17.604  0.00  0.00     0.088 H 
ENDROOT
BRANCH   1  10
ATOM     10  N2  0LI d   1      15.654  -8.415  18.256  0.00  0.00    -0.323 N 
ATOM     11  C12 0LI d   1      15.826  -8.221  16.935  0.00  0.00     0.256 C 
ATOM     12  O1  0LI d   1      15.440  -7.217  16.328  0.00  0.00    -0.267 OA
ATOM     13  H   0LI d   1      16.238  -9.134  18.682  0.00  0.00     0.169 HD
BRANCH  11  14
ATOM     14  C9  0LI d   1      16.535  -9.316  16.196  0.00  0.00     0.033 A 
ATOM     15  C8  0LI d   1      17.106 -10.465  16.865  0.00  0.00    -0.067 A 
ATOM     16  C7  0LI d   1      17.775 -11.477  16.113  0.00  0.00    -0.075 A 
ATOM     17  H   0LI d   1      17.025 -10.558  17.948  0.00  0.00     0.085 H 
ATOM     18  C6  0LI d   1      17.881 -11.366  14.681  0.00  0.00    -0.043 A 
ATOM     19  H   0LI d   1      18.207 -12.337  16.624  0.00  0.00     0.084 H 
ATOM     20  C5  0LI d   1      17.298 -10.203  14.015  0.00  0.00     0.025 A 
ATOM     21  C10 0LI d   1      16.642  -9.213  14.785  0.00  0.00    -0.049 A 
ATOM     22  H   0LI d   1      16.208  -8.349  14.281  0.00  0.00     0.087 H 
BRANCH  18  23
ATOM     23  C11 0LI d   1      18.601 -12.481  13.924  0.00  0.00    -0.050 C 
ATOM     24  H   0LI d   1      17.913 -12.938  13.212  0.00  0.00     0.033 H 
ATOM     25  H   0LI d   1      19.455 -12.063  13.390  0.00  0.00     0.033 H 
ATOM     26  H   0LI d   1      18.947 -13.234  14.632  0.00  0.00     0.033 H 
ENDBRANCH  18  23
BRANCH  20  27
ATOM     27  C4  0LI d   1      17.326  -9.986  12.572  0.00  0.00    -0.059 C 
ATOM     28  C3  0LI d   1      17.253  -9.818  11.367  0.00  0.00    -0.040 C 
BRANCH  28  29
ATOM     29  C2  0LI d   1      17.082  -9.665   9.981  0.00  0.00     0.131 A 
ATOM     30  N82 0LI d   1      17.835  -8.891   9.139  0.00  0.00    -0.206 N 
ATOM     31  N81 0LI d   1      18.916  -8.100   9.472  0.00  0.00    -0.177 NA
ATOM     32  C84 0LI d   1      17.257  -9.079   7.857  0.00  0.00     0.151 A 
ATOM     33  C83 0LI d   1      19.438  -7.459   8.416  0.00  0.00     0.022 A 
ATOM     34  C82 0LI d   1      18.968  -7.546   7.073  0.00  0.00    -0.061 A 
ATOM     35  H   0LI d   1      20.297  -6.815   8.601  0.00  0.00     0.117 H 
ATOM     36  C81 0LI d   1      17.881  -8.356   6.791  0.00  0.00    -0.035 A 
ATOM     37  H   0LI d   1      19.458  -6.982   6.279  0.00  0.00     0.086 H 
ATOM     38  H   0LI d   1      17.506  -8.442   5.771  0.00  0.00     0.089 H 
ATOM     39  N1  0LI d   1      16.231  -9.909   7.915  0.00  0.00    -0.238 NA
ATOM     40  C1  0LI d   1      16.120 -10.272   9.243  0.00  0.00     0.041 A 
ATOM     41  H   0LI d   1      15.366 -10.950   9.641  0.00  0.00     0.119 H 
ENDBRANCH  28  29
ENDBRANCH  20  27
ENDBRANCH  11  14
ENDBRANCH   1  10
BRANCH   3  42
ATOM     42  C19 0LI d   1      11.465  -5.667  18.956  0.00  0.00     0.418 C 
ATOM     43  F1  0LI d   1      11.632  -4.358  19.013  0.00  0.00    -0.166 F 
ATOM     44  F2  0LI d   1      11.279  -5.972  17.674  0.00  0.00    -0.166 F 
ATOM     45  F3  0LI d   1      10.347  -6.003  19.605  0.00  0.00    -0.166 F 
ENDBRANCH   3  42
BRANCH   5  46
ATOM     46  C20 0LI d   1      12.143  -5.711  22.085  0.00  0.00     0.138 C 
ATOM     47  H   0LI d   1      11.617  -4.891  21.596  0.00  0.00     0.087 H 
ATOM     48  H   0LI d   1      11.498  -6.481  22.509  0.00  0.00     0.087 H 
BRANCH  46  49
ATOM     49  N3  0LI d   1      12.900  -5.127  23.200  0.00  0.00     0.096 N 
ATOM     50  C21 0LI d   1      13.814  -4.023  22.778  0.00  0.00     0.138 C 
ATOM     51  C22 0LI d   1      14.690  -3.566  23.966  0.00  0.00     0.138 C 
ATOM     52  H   0LI d   1      13.216  -3.180  22.432  0.00  0.00     0.082 H 
ATOM     53  H   0LI d   1      14.460  -4.383  21.978  0.00  0.00     0.082 H 
ATOM     54  N4  0LI d   1      13.831  -3.038  25.045  0.00  0.00     0.087 N 
ATOM     55  H   0LI d   1      15.372  -2.784  23.632  0.00  0.00     0.082 H 
ATOM     56  H   0LI d   1      15.260  -4.415  24.342  0.00  0.00     0.082 H 
ATOM     57  C23 0LI d   1      12.839  -4.070  25.479  0.00  0.00     0.138 C 
ATOM     58  C24 0LI d   1      12.019  -4.643  24.281  0.00  0.00     0.138 C 
ATOM     59  H   0LI d   1      13.386  -4.893  25.939  0.00  0.00     0.082 H 
ATOM     60  H   0LI d   1      12.142  -3.599  26.172  0.00  0.00     0.082 H 
ATOM     61  H   0LI d   1      11.424  -5.482  24.642  0.00  0.00     0.082 H 
ATOM     62  H   0LI d   1      11.391  -3.847  23.882  0.00  0.00     0.082 H 
BRANCH  54  63
ATOM     63  C25 0LI d   1      14.619  -2.508  26.149  0.00  0.00     0.095 C 
ATOM     64  H   0LI d   1      15.242  -3.301  26.562  0.00  0.00     0.071 H 
ATOM     65  H   0LI d   1      15.252  -1.698  25.786  0.00  0.00     0.071 H 
ATOM     66  H   0LI d   1      13.950  -2.129  26.922  0.00  0.00     0.071 H 
ENDBRANCH  54  63
ENDBRANCH  46  49
ENDBRANCH   5  46
TORSDOF 9
