REMARK  5 active torsions:
REMARK  status: ('A' for Active; 'I' for Inactive)
REMARK    1  A    between atoms: C8_8  and  N11_11 
REMARK    2  A    between atoms: C12_12  and  C23_23 
REMARK    3  A    between atoms: N14_14  and  C17_17 
REMARK    4  A    between atoms: C27_27  and  N29_29 
REMARK    5  A    between atoms: N29_29  and  C30_30 
ROOT
ATOM      1  N11 589 d   1     -21.334  11.123 -32.604  0.00  0.00    -0.244 N 
ATOM      2  C12 589 d   1     -21.713   9.967 -32.081  0.00  0.00     0.169 A 
ATOM      3  N13 589 d   1     -22.702  10.250 -31.249  0.00  0.00    -0.148 NA
ATOM      4  N14 589 d   1     -22.872  11.574 -31.263  0.00  0.00    -0.212 N 
ATOM      5  C15 589 d   1     -22.014  12.074 -32.094  0.00  0.00     0.351 A 
ATOM      6  O16 589 d   1     -21.870  13.281 -32.397  0.00  0.00    -0.244 OA
ENDROOT
BRANCH   2   7
ATOM      7  C23 589 d   1     -21.298   8.561 -32.297  0.00  0.00     0.017 A 
ATOM      8  C24 589 d   1     -20.034   8.245 -32.663  0.00  0.00    -0.052 A 
ATOM      9  C25 589 d   1     -19.693   6.945 -32.832  0.00  0.00     0.005 A 
ATOM     10  H   589 d   1     -19.296   9.031 -32.821  0.00  0.00     0.087 H 
ATOM     11  N26 589 d   1     -20.539   5.980 -32.672  0.00  0.00    -0.244 NA
ATOM     12  H   589 d   1     -18.668   6.703 -33.113  0.00  0.00     0.114 H 
ATOM     13  C27 589 d   1     -21.791   6.220 -32.301  0.00  0.00     0.124 A 
ATOM     14  C28 589 d   1     -22.176   7.525 -32.107  0.00  0.00    -0.025 A 
ATOM     15  H   589 d   1     -23.198   7.740 -31.796  0.00  0.00     0.090 H 
BRANCH  13  16
ATOM     16  N29 589 d   1     -22.605   5.178 -32.155  0.00  0.00    -0.370 N 
ATOM     17  H   589 d   1     -22.269   4.277 -32.495  0.00  0.00     0.161 HD
BRANCH  16  18
ATOM     18  C30 589 d   1     -23.899   5.204 -31.569  0.00  0.00     0.011 C 
ATOM     19  C31 589 d   1     -24.632   3.950 -31.948  0.00  0.00    -0.046 C 
ATOM     20  C32 589 d   1     -25.978   3.897 -31.274  0.00  0.00    -0.063 C 
ATOM     21  H   589 d   1     -24.044   3.088 -31.631  0.00  0.00     0.035 H 
ATOM     22  H   589 d   1     -24.778   3.939 -33.028  0.00  0.00     0.035 H 
ATOM     23  C33 589 d   1     -25.895   3.937 -29.777  0.00  0.00    -0.065 C 
ATOM     24  H   589 d   1     -26.448   2.954 -31.552  0.00  0.00     0.033 H 
ATOM     25  H   589 d   1     -26.542   4.773 -31.596  0.00  0.00     0.033 H 
ATOM     26  C34 589 d   1     -25.114   5.156 -29.377  0.00  0.00    -0.063 C 
ATOM     27  H   589 d   1     -25.400   3.039 -29.407  0.00  0.00     0.033 H 
ATOM     28  H   589 d   1     -26.897   3.979 -29.349  0.00  0.00     0.033 H 
ATOM     29  C35 589 d   1     -23.773   5.259 -30.068  0.00  0.00    -0.046 C 
ATOM     30  H   589 d   1     -24.928   5.092 -28.305  0.00  0.00     0.033 H 
ATOM     31  H   589 d   1     -25.699   6.031 -29.661  0.00  0.00     0.033 H 
ATOM     32  H   589 d   1     -23.327   6.217 -29.800  0.00  0.00     0.035 H 
ATOM     33  H   589 d   1     -23.162   4.415 -29.748  0.00  0.00     0.035 H 
ATOM     34  H   589 d   1     -24.442   6.080 -31.924  0.00  0.00     0.072 H 
ENDBRANCH  16  18
ENDBRANCH  13  16
ENDBRANCH   2   7
BRANCH   1  35
ATOM     35  C8  589 d   1     -20.388  11.319 -33.511  0.00  0.00     0.046 A 
ATOM     36  C7  589 d   1     -19.344  12.177 -33.319  0.00  0.00    -0.046 A 
ATOM     37  C3  589 d   1     -18.345  12.398 -34.239  0.00  0.00    -0.024 A 
ATOM     38  H   589 d   1     -19.299  12.722 -32.376  0.00  0.00     0.088 H 
ATOM     39  C2  589 d   1     -18.376  11.694 -35.518  0.00  0.00    -0.026 A 
ATOM     40  C4  589 d   1     -17.308  13.268 -33.999  0.00  0.00    -0.072 A 
ATOM     41  C1  589 d   1     -17.396  11.900 -36.435  0.00  0.00    -0.072 A 
ATOM     42  C10 589 d   1     -19.402  10.845 -35.729  0.00  0.00    -0.070 A 
ATOM     43  C6  589 d   1     -16.388  12.775 -36.133  0.00  0.00    -0.082 A 
ATOM     44  H   589 d   1     -17.412  11.379 -37.392  0.00  0.00     0.084 H 
ATOM     45  C5  589 d   1     -16.332  13.441 -34.937  0.00  0.00    -0.082 A 
ATOM     46  H   589 d   1     -15.603  12.948 -36.869  0.00  0.00     0.083 H 
ATOM     47  H   589 d   1     -15.500  14.115 -34.733  0.00  0.00     0.083 H 
ATOM     48  C9  589 d   1     -20.364  10.691 -34.747  0.00  0.00    -0.056 A 
ATOM     49  H   589 d   1     -19.473  10.287 -36.662  0.00  0.00     0.084 H 
ATOM     50  H   589 d   1     -21.185  10.008 -34.967  0.00  0.00     0.087 H 
ATOM     51  H   589 d   1     -17.265  13.819 -33.060  0.00  0.00     0.084 H 
ENDBRANCH   1  35
BRANCH   4  52
ATOM     52  C17 589 d   1     -23.918  11.989 -30.346  0.00  0.00     0.043 C 
ATOM     53  C18 589 d   1     -25.112  12.578 -30.987  0.00  0.00    -0.024 C 
ATOM     54  C19 589 d   1     -26.197  12.514 -29.974  0.00  0.00     0.021 C 
ATOM     55  H   589 d   1     -25.384  12.032 -31.890  0.00  0.00     0.039 H 
ATOM     56  H   589 d   1     -24.925  13.605 -31.300  0.00  0.00     0.039 H 
ATOM     57  O20 589 d   1     -25.888  13.392 -28.940  0.00  0.00    -0.391 OA
ATOM     58  H   589 d   1     -26.285  11.499 -29.587  0.00  0.00     0.074 H 
ATOM     59  H   589 d   1     -27.147  12.794 -30.428  0.00  0.00     0.074 H 
ATOM     60  C21 589 d   1     -24.623  13.211 -28.324  0.00  0.00     0.021 C 
ATOM     61  C22 589 d   1     -23.483  12.938 -29.281  0.00  0.00    -0.024 C 
ATOM     62  H   589 d   1     -24.709  12.338 -27.677  0.00  0.00     0.074 H 
ATOM     63  H   589 d   1     -24.387  14.142 -27.808  0.00  0.00     0.074 H 
ATOM     64  H   589 d   1     -23.174  13.875 -29.744  0.00  0.00     0.039 H 
ATOM     65  H   589 d   1     -22.653  12.498 -28.729  0.00  0.00     0.039 H 
ATOM     66  H   589 d   1     -24.179  11.031 -29.897  0.00  0.00     0.076 H 
ENDBRANCH   4  52
TORSDOF 5
