REMARK  13 active torsions:
REMARK  status: ('A' for Active; 'I' for Inactive)
REMARK    1  A    between atoms: C20_12  and  N3_2 
REMARK    2  A    between atoms: C5_4  and  C4_3 
REMARK    3  A    between atoms: C6_5  and  C11_25 
REMARK    4  A    between atoms: N2_28  and  C13_9 
REMARK    5  A    between atoms: C17_11  and  C19_32 
REMARK    6  A    between atoms: C16_30  and  C20_12 
REMARK    7  A    between atoms: N82_19  and  C26_16 
REMARK    8  A    between atoms: C84_20  and  C81_17 
REMARK       I    between atoms: C81_17  and  N5_39 
REMARK    9  A    between atoms: C3_23  and  C2_22 
REMARK   10  A    between atoms: C12_26  and  C9_24 
REMARK       I    between atoms: C12_26  and  N2_28 
REMARK   11  A    between atoms: N4_38  and  C25_37 
REMARK   12  A    between atoms: C25_37  and  C27_40 
REMARK   13  A    between atoms: C27_40  and  O3_41 
ROOT
ATOM      1  C13 XY3 d   1      13.456   7.685   4.043  0.00  0.00     0.035 A 
ATOM      2  C15 XY3 d   1      11.081   7.010   4.280  0.00  0.00    -0.072 A 
ATOM      3  C17 XY3 d   1      12.732   6.239   5.983  0.00  0.00     0.058 A 
ATOM      4  C14 XY3 d   1      12.116   7.707   3.572  0.00  0.00    -0.057 A 
ATOM      5  C16 XY3 d   1      11.377   6.272   5.491  0.00  0.00    -0.017 A 
ATOM      6  C18 XY3 d   1      13.753   6.941   5.256  0.00  0.00    -0.042 A 
ATOM      7  H5  XY3 d   1      10.065   7.036   3.904  0.00  0.00     0.084 H 
ATOM      8  H22 XY3 d   1      11.873   8.256   2.669  0.00  0.00     0.086 H 
ATOM      9  H23 XY3 d   1      14.773   6.915   5.622  0.00  0.00     0.088 H 
ENDROOT
BRANCH   1  10
ATOM     10  N2  XY3 d   1      14.459   8.394   3.293  0.00  0.00    -0.323 N 
ATOM     11  C12 XY3 d   1      15.807   8.288   3.462  0.00  0.00     0.256 C 
ATOM     12  O1  XY3 d   1      16.351   7.365   4.118  0.00  0.00    -0.267 OA
ATOM     13  H21 XY3 d   1      14.138   9.021   2.584  0.00  0.00     0.169 HD
BRANCH  11  14
ATOM     14  C9  XY3 d   1      16.670   9.353   2.838  0.00  0.00     0.033 A 
ATOM     15  C8  XY3 d   1      16.148  10.562   2.222  0.00  0.00    -0.067 A 
ATOM     16  C7  XY3 d   1      17.052  11.521   1.648  0.00  0.00    -0.075 A 
ATOM     17  H3  XY3 d   1      15.079  10.740   2.196  0.00  0.00     0.085 H 
ATOM     18  C6  XY3 d   1      18.451  11.298   1.676  0.00  0.00    -0.043 A 
ATOM     19  H2  XY3 d   1      16.660  12.422   1.190  0.00  0.00     0.084 H 
ATOM     20  C5  XY3 d   1      18.955  10.099   2.299  0.00  0.00     0.025 A 
ATOM     21  C10 XY3 d   1      18.083   9.154   2.859  0.00  0.00    -0.049 A 
ATOM     22  H4  XY3 d   1      18.489   8.258   3.315  0.00  0.00     0.087 H 
BRANCH  18  23
ATOM     23  C11 XY3 d   1      19.394  12.332   1.051  0.00  0.00    -0.050 C 
ATOM     24  H18 XY3 d   1      20.435  11.995   1.165  0.00  0.00     0.033 H 
ATOM     25  H19 XY3 d   1      19.265  13.300   1.558  0.00  0.00     0.033 H 
ATOM     26  H20 XY3 d   1      19.160  12.443  -0.018  0.00  0.00     0.033 H 
ENDBRANCH  18  23
BRANCH  20  27
ATOM     27  C4  XY3 d   1      20.356   9.819   2.372  0.00  0.00    -0.059 C 
ATOM     28  C3  XY3 d   1      21.514   9.627   2.504  0.00  0.00    -0.042 C 
BRANCH  28  29
ATOM     29  C2  XY3 d   1      22.863   9.462   2.717  0.00  0.00     0.108 C 
ATOM     30  N82 XY3 d   1      23.774   9.031   1.800  0.00  0.00    -0.324 N 
ATOM     31  C84 XY3 d   1      25.021   9.012   2.552  0.00  0.00     0.184 C 
ATOM     32  N1  XY3 d   1      24.830   9.541   3.764  0.00  0.00    -0.236 NA
ATOM     33  C1  XY3 d   1      23.485   9.722   3.891  0.00  0.00     0.039 C 
ATOM     34  H17 XY3 d   1      22.983  10.032   4.806  0.00  0.00     0.119 H 
BRANCH  30  35
ATOM     35  C26 XY3 d   1      23.461   8.462   0.580  0.00  0.00    -0.011 C 
ATOM     36  H14 XY3 d   1      24.388   8.209   0.045  0.00  0.00     0.057 H 
ATOM     37  H15 XY3 d   1      22.875   9.176  -0.018  0.00  0.00     0.057 H 
ATOM     38  H16 XY3 d   1      22.871   7.548   0.742  0.00  0.00     0.057 H 
ENDBRANCH  30  35
BRANCH  31  39
ATOM     39  C81 XY3 d   1      26.229   8.496   1.947  0.00  0.00     0.219 C 
ATOM     40  O2  XY3 d   1      26.258   8.196   0.608  0.00  0.00    -0.169 OA
ATOM     41  N5  XY3 d   1      27.130   8.373   2.586  0.00  0.00    -0.374 N 
ATOM     42  H29 XY3 d   1      27.087   8.598   3.559  0.00  0.00     0.158 HD
ATOM     43  H30 XY3 d   1      27.984   8.038   2.187  0.00  0.00     0.158 HD
ENDBRANCH  31  39
ENDBRANCH  28  29
ENDBRANCH  20  27
ENDBRANCH  11  14
ENDBRANCH   1  10
BRANCH   3  44
ATOM     44  C19 XY3 d   1      13.121   5.470   7.259  0.00  0.00     0.418 C 
ATOM     45  F1  XY3 d   1      13.028   4.170   7.027  0.00  0.00    -0.166 F 
ATOM     46  F2  XY3 d   1      14.355   5.686   7.658  0.00  0.00    -0.166 F 
ATOM     47  F3  XY3 d   1      12.323   5.825   8.261  0.00  0.00    -0.166 F 
ENDBRANCH   3  44
BRANCH   5  48
ATOM     48  C20 XY3 d   1      10.213   5.536   6.204  0.00  0.00     0.108 C 
ATOM     49  H6  XY3 d   1      10.640   4.740   6.831  0.00  0.00     0.083 H 
ATOM     50  H7  XY3 d   1       9.684   6.261   6.841  0.00  0.00     0.083 H 
BRANCH  48  51
ATOM     51  N3  XY3 d   1       9.262   4.944   5.311  0.00  0.00    -0.064 N 
ATOM     52  C21 XY3 d   1       9.813   3.904   4.385  0.00  0.00     0.106 C 
ATOM     53  C22 XY3 d   1       8.730   3.504   3.336  0.00  0.00     0.106 C 
ATOM     54  H8  XY3 d   1      10.105   3.016   4.965  0.00  0.00     0.078 H 
ATOM     55  H9  XY3 d   1      10.694   4.308   3.865  0.00  0.00     0.078 H 
ATOM     56  N4  XY3 d   1       7.455   3.052   3.993  0.00  0.00    -0.066 N 
ATOM     57  H10 XY3 d   1       9.121   2.684   2.716  0.00  0.00     0.078 H 
ATOM     58  H11 XY3 d   1       8.513   4.374   2.699  0.00  0.00     0.078 H 
ATOM     59  C23 XY3 d   1       6.951   4.086   4.968  0.00  0.00     0.106 C 
ATOM     60  H28 XY3 d   1       7.679   2.234   4.537  0.00  0.00     0.280 HD
ATOM     61  C24 XY3 d   1       8.045   4.448   6.010  0.00  0.00     0.106 C 
ATOM     62  H24 XY3 d   1       6.667   4.993   4.415  0.00  0.00     0.078 H 
ATOM     63  H25 XY3 d   1       6.072   3.686   5.494  0.00  0.00     0.078 H 
ATOM     64  H12 XY3 d   1       7.665   5.232   6.682  0.00  0.00     0.078 H 
ATOM     65  H13 XY3 d   1       8.300   3.554   6.597  0.00  0.00     0.078 H 
ATOM     66  H1  XY3 d   1       8.954   5.697   4.717  0.00  0.00     0.280 HD
BRANCH  56  67
ATOM     67  C25 XY3 d   1       6.440   2.617   2.975  0.00  0.00     0.103 C 
ATOM     68  H26 XY3 d   1       6.813   1.704   2.488  0.00  0.00     0.079 H 
ATOM     69  H27 XY3 d   1       6.340   3.417   2.227  0.00  0.00     0.079 H 
BRANCH  67  70
ATOM     70  C27 XY3 d   1       5.399   2.395   3.402  0.00  0.00     0.039 C 
ATOM     71  H31 XY3 d   1       4.659   2.448   2.590  0.00  0.00     0.076 H 
ATOM     72  H32 XY3 d   1       5.158   3.147   4.168  0.00  0.00     0.076 H 
BRANCH  70  73
ATOM     73  O3  XY3 d   1       5.343   0.983   4.045  0.00  0.00    -0.399 OA
ATOM     74  H33 XY3 d   1       5.977   0.932   4.751  0.00  0.00     0.209 HD
ENDBRANCH  70  73
ENDBRANCH  67  70
ENDBRANCH  56  67
ENDBRANCH  48  51
ENDBRANCH   5  48
TORSDOF 13
