REMARK  8 active torsions:
REMARK  status: ('A' for Active; 'I' for Inactive)
REMARK    1  A    between atoms: CAM_13  and  CAA_1 
REMARK    2  A    between atoms: NAQ_17  and  CAB_2 
REMARK    3  A    between atoms: CBC_29  and  CAC_3 
REMARK    4  A    between atoms: CAW_23  and  OAG_7 
REMARK    5  A    between atoms: NBD_30  and  CAM_13 
REMARK    6  A    between atoms: CAN_14  and  CAU_21 
REMARK    7  A    between atoms: NBE_31  and  CAN_14 
REMARK       I    between atoms: CAR_18  and  NAQ_17 
REMARK    8  A    between atoms: CAX_24  and  CAR_18 
ROOT
ATOM      1  OAE ZZX d   1     -37.062  28.942 -17.488  0.00  0.00    -0.266 OA
ATOM      2  OAF ZZX d   1     -36.806  34.582 -19.019  0.00  0.00    -0.265 OA
ATOM      3  CAO ZZX d   1     -39.502  28.330 -20.117  0.00  0.00     0.017 C 
ATOM      4  NAP ZZX d   1     -38.309  33.887 -21.994  0.00  0.00    -0.161 NA
ATOM      5  CAS ZZX d   1     -37.863  29.155 -18.408  0.00  0.00     0.273 C 
ATOM      6  CAW ZZX d   1     -37.400  31.673 -18.700  0.00  0.00     0.116 A 
ATOM      7  CAX ZZX d   1     -38.610  32.571 -21.907  0.00  0.00     0.172 A 
ATOM      8  CAY ZZX d   1     -37.892  30.412 -19.034  0.00  0.00     0.138 A 
ATOM      9  CAZ ZZX d   1     -37.364  33.930 -19.899  0.00  0.00     0.279 A 
ATOM     10  CBA ZZX d   1     -37.642  32.575 -19.725  0.00  0.00     0.099 A 
ATOM     11  CBB ZZX d   1     -38.279  31.882 -20.742  0.00  0.00     0.090 A 
ATOM     12  CBC ZZX d   1     -38.990  29.412 -21.043  0.00  0.00     0.030 C 
ATOM     13  NBD ZZX d   1     -38.563  28.073 -19.005  0.00  0.00    -0.345 N 
ATOM     14  NBE ZZX d   1     -37.741  34.535 -21.103  0.00  0.00    -0.229 N 
ATOM     15  NBF ZZX d   1     -38.433  30.556 -20.327  0.00  0.00    -0.331 N 
ATOM     16  H   ZZX d   1     -39.614  27.411 -20.692  0.00  0.00     0.067 H 
ATOM     17  H   ZZX d   1     -40.452  28.660 -19.695  0.00  0.00     0.067 H 
ATOM     18  H   ZZX d   1     -39.848  29.710 -21.645  0.00  0.00     0.075 H 
ENDROOT
BRANCH  14  19
ATOM     19  CAN ZZX d   1     -37.477  35.948 -21.330  0.00  0.00     0.044 C 
ATOM     20  H   ZZX d   1     -36.938  36.340 -20.468  0.00  0.00     0.074 H 
ATOM     21  H   ZZX d   1     -36.895  36.046 -22.247  0.00  0.00     0.074 H 
BRANCH  19  22
ATOM     22  CAU ZZX d   1     -38.751  36.732 -21.490  0.00  0.00    -0.036 A 
ATOM     23  CAK ZZX d   1     -39.308  36.976 -22.743  0.00  0.00    -0.072 A 
ATOM     24  CAJ ZZX d   1     -40.476  37.733 -22.833  0.00  0.00    -0.043 A 
ATOM     25  H   ZZX d   1     -38.837  36.580 -23.643  0.00  0.00     0.084 H 
ATOM     26  CAT ZZX d   1     -41.045  38.215 -21.664  0.00  0.00     0.138 A 
ATOM     27  H   ZZX d   1     -40.931  37.941 -23.801  0.00  0.00     0.088 H 
ATOM     28  FAH ZZX d   1     -42.164  38.948 -21.664  0.00  0.00    -0.204 F 
ATOM     29  CAV ZZX d   1     -40.474  37.967 -20.433  0.00  0.00     0.073 A 
ATOM     30 CLAI ZZX d   1     -41.242  38.586 -19.030  0.00  0.00    -0.081 Cl
ATOM     31  CAL ZZX d   1     -39.315  37.233 -20.322  0.00  0.00    -0.051 A 
ATOM     32  H   ZZX d   1     -38.855  37.051 -19.351  0.00  0.00     0.087 H 
ENDBRANCH  19  22
ENDBRANCH  14  19
BRANCH   7  33
ATOM     33  CAR ZZX d   1     -39.359  31.906 -23.094  0.00  0.00     0.274 C 
ATOM     34  OAD ZZX d   1     -40.440  31.338 -22.872  0.00  0.00    -0.266 OA
ATOM     35  NAQ ZZX d   1     -38.856  32.130 -24.324  0.00  0.00    -0.360 N 
ATOM     36  H   ZZX d   1     -38.004  32.678 -24.444  0.00  0.00     0.162 HD
BRANCH  35  37
ATOM     37  CAB ZZX d   1     -39.563  31.566 -25.503  0.00  0.00    -0.018 C 
ATOM     38  H   ZZX d   1     -39.603  30.480 -25.416  0.00  0.00     0.056 H 
ATOM     39  H   ZZX d   1     -40.576  31.966 -25.543  0.00  0.00     0.056 H 
ATOM     40  H   ZZX d   1     -39.027  31.839 -26.412  0.00  0.00     0.056 H 
ENDBRANCH  35  37
ENDBRANCH   7  33
BRANCH   6  41
ATOM     41  OAG ZZX d   1     -36.797  31.998 -17.520  0.00  0.00    -0.357 OA
ATOM     42  H   ZZX d   1     -36.548  32.925 -17.534  0.00  0.00     0.217 HD
ENDBRANCH   6  41
BRANCH  12  43
ATOM     43  CAC ZZX d   1     -37.811  28.874 -21.857  0.00  0.00    -0.055 C 
ATOM     44  H   ZZX d   1     -37.013  28.568 -21.180  0.00  0.00     0.030 H 
ATOM     45  H   ZZX d   1     -38.139  28.017 -22.446  0.00  0.00     0.030 H 
ATOM     46  H   ZZX d   1     -37.444  29.655 -22.523  0.00  0.00     0.030 H 
ENDBRANCH  12  43
BRANCH  13  47
ATOM     47  CAM ZZX d   1     -38.509  26.682 -18.454  0.00  0.00    -0.005 C 
ATOM     48  H   ZZX d   1     -38.224  26.733 -17.403  0.00  0.00     0.063 H 
ATOM     49  H   ZZX d   1     -39.490  26.221 -18.570  0.00  0.00     0.063 H 
BRANCH  47  50
ATOM     50  CAA ZZX d   1     -37.475  25.835 -19.204  0.00  0.00    -0.061 C 
ATOM     51  H   ZZX d   1     -37.745  25.784 -20.259  0.00  0.00     0.029 H 
ATOM     52  H   ZZX d   1     -36.490  26.291 -19.102  0.00  0.00     0.029 H 
ATOM     53  H   ZZX d   1     -37.457  24.830 -18.783  0.00  0.00     0.029 H 
ENDBRANCH  47  50
ENDBRANCH  13  47
TORSDOF 8
