REMARK  8 active torsions:
REMARK  status: ('A' for Active; 'I' for Inactive)
REMARK    1  A    between atoms: CAM_13  and  CAA_1 
REMARK    2  A    between atoms: NAQ_17  and  CAB_2 
REMARK    3  A    between atoms: CBC_29  and  CAC_3 
REMARK    4  A    between atoms: CAW_23  and  OAG_7 
REMARK    5  A    between atoms: NBD_30  and  CAM_13 
REMARK    6  A    between atoms: CAN_14  and  CAU_21 
REMARK    7  A    between atoms: NBE_31  and  CAN_14 
REMARK       I    between atoms: CAR_18  and  NAQ_17 
REMARK    8  A    between atoms: CAX_24  and  CAR_18 
ROOT
ATOM      1  OAE ZZX d   1     -37.536  29.410 -17.354  0.00  0.00    -0.266 OA
ATOM      2  OAF ZZX d   1     -37.128  34.910 -18.966  0.00  0.00    -0.265 OA
ATOM      3  CAO ZZX d   1     -39.896  28.709 -20.042  0.00  0.00     0.017 C 
ATOM      4  NAP ZZX d   1     -38.611  34.235 -21.990  0.00  0.00    -0.161 NA
ATOM      5  CAS ZZX d   1     -38.324  29.600 -18.293  0.00  0.00     0.273 C 
ATOM      6  CAW ZZX d   1     -37.808  32.071 -18.617  0.00  0.00     0.116 A 
ATOM      7  CAX ZZX d   1     -38.924  32.932 -21.883  0.00  0.00     0.172 A 
ATOM      8  CAY ZZX d   1     -38.330  30.823 -18.944  0.00  0.00     0.138 A 
ATOM      9  CAZ ZZX d   1     -37.689  34.286 -19.867  0.00  0.00     0.279 A 
ATOM     10  CBA ZZX d   1     -37.996  32.951 -19.673  0.00  0.00     0.099 A 
ATOM     11  CBB ZZX d   1     -38.630  32.257 -20.693  0.00  0.00     0.090 A 
ATOM     12  CBC ZZX d   1     -39.424  29.794 -20.966  0.00  0.00     0.030 C 
ATOM     13  NBD ZZX d   1     -38.977  28.510 -18.900  0.00  0.00    -0.345 N 
ATOM     14  NBE ZZX d   1     -38.044  34.876 -21.099  0.00  0.00    -0.229 N 
ATOM     15  NBF ZZX d   1     -38.841  30.933 -20.251  0.00  0.00    -0.331 N 
ATOM     16  H   ZZX d   1     -39.942  27.778 -20.607  0.00  0.00     0.067 H 
ATOM     17  H   ZZX d   1     -40.870  28.999 -19.648  0.00  0.00     0.067 H 
ATOM     18  H   ZZX d   1     -40.284  30.127 -21.547  0.00  0.00     0.075 H 
ENDROOT
BRANCH  14  19
ATOM     19  CAN ZZX d   1     -37.742  36.264 -21.391  0.00  0.00     0.044 C 
ATOM     20  H   ZZX d   1     -37.139  36.665 -20.576  0.00  0.00     0.074 H 
ATOM     21  H   ZZX d   1     -37.210  36.309 -22.341  0.00  0.00     0.074 H 
BRANCH  19  22
ATOM     22  CAU ZZX d   1     -38.984  37.082 -21.506  0.00  0.00    -0.036 A 
ATOM     23  CAK ZZX d   1     -39.598  37.363 -22.729  0.00  0.00    -0.072 A 
ATOM     24  CAJ ZZX d   1     -40.755  38.143 -22.776  0.00  0.00    -0.043 A 
ATOM     25  H   ZZX d   1     -39.171  36.971 -23.652  0.00  0.00     0.084 H 
ATOM     26  CAT ZZX d   1     -41.250  38.620 -21.577  0.00  0.00     0.138 A 
ATOM     27  H   ZZX d   1     -41.249  38.367 -23.722  0.00  0.00     0.088 H 
ATOM     28  FAH ZZX d   1     -42.334  39.392 -21.509  0.00  0.00    -0.204 F 
ATOM     29  CAV ZZX d   1     -40.629  38.336 -20.389  0.00  0.00     0.073 A 
ATOM     30 CLAI ZZX d   1     -41.282  38.945 -18.952  0.00  0.00    -0.081 Cl
ATOM     31  CAL ZZX d   1     -39.482  37.582 -20.313  0.00  0.00    -0.051 A 
ATOM     32  H   ZZX d   1     -38.988  37.387 -19.361  0.00  0.00     0.087 H 
ENDBRANCH  19  22
ENDBRANCH  14  19
BRANCH   7  33
ATOM     33  CAR ZZX d   1     -39.684  32.252 -23.033  0.00  0.00     0.274 C 
ATOM     34  OAD ZZX d   1     -40.759  31.722 -22.768  0.00  0.00    -0.266 OA
ATOM     35  NAQ ZZX d   1     -39.249  32.425 -24.283  0.00  0.00    -0.360 N 
ATOM     36  H   ZZX d   1     -38.405  32.966 -24.470  0.00  0.00     0.162 HD
BRANCH  35  37
ATOM     37  CAB ZZX d   1     -40.017  31.815 -25.395  0.00  0.00    -0.018 C 
ATOM     38  H   ZZX d   1     -40.051  30.734 -25.261  0.00  0.00     0.056 H 
ATOM     39  H   ZZX d   1     -41.031  32.215 -25.397  0.00  0.00     0.056 H 
ATOM     40  H   ZZX d   1     -39.531  32.050 -26.342  0.00  0.00     0.056 H 
ENDBRANCH  35  37
ENDBRANCH   7  33
BRANCH   6  41
ATOM     41  OAG ZZX d   1     -37.216  32.394 -17.418  0.00  0.00    -0.357 OA
ATOM     42  H   ZZX d   1     -36.938  33.313 -17.437  0.00  0.00     0.217 HD
ENDBRANCH   6  41
BRANCH  12  43
ATOM     43  CAC ZZX d   1     -38.274  29.217 -21.788  0.00  0.00    -0.055 C 
ATOM     44  H   ZZX d   1     -37.471  28.906 -21.119  0.00  0.00     0.030 H 
ATOM     45  H   ZZX d   1     -38.630  28.357 -22.355  0.00  0.00     0.030 H 
ATOM     46  H   ZZX d   1     -37.902  29.978 -22.474  0.00  0.00     0.030 H 
ENDBRANCH  12  43
BRANCH  13  47
ATOM     47  CAM ZZX d   1     -38.874  27.154 -18.325  0.00  0.00    -0.005 C 
ATOM     48  H   ZZX d   1     -38.409  27.215 -17.341  0.00  0.00     0.063 H 
ATOM     49  H   ZZX d   1     -39.872  26.724 -18.238  0.00  0.00     0.063 H 
BRANCH  47  50
ATOM     50  CAA ZZX d   1     -38.017  26.265 -19.235  0.00  0.00    -0.061 C 
ATOM     51  H   ZZX d   1     -38.478  26.204 -20.221  0.00  0.00     0.029 H 
ATOM     52  H   ZZX d   1     -37.019  26.695 -19.326  0.00  0.00     0.029 H 
ATOM     53  H   ZZX d   1     -37.946  25.267 -18.803  0.00  0.00     0.029 H 
ENDBRANCH  47  50
ENDBRANCH  13  47
TORSDOF 8
