REMARK  13 active torsions:
REMARK  status: ('A' for Active; 'I' for Inactive)
REMARK    1  A    between atoms: C4_4  and  O12_12 
REMARK    2  A    between atoms: O12_12  and  C13_13 
REMARK    3  A    between atoms: C15_15  and  C18_18 
REMARK       I    between atoms: N16_16  and  C35_35 
REMARK       I    between atoms: C18_18  and  N20_20 
REMARK    4  A    between atoms: N20_20  and  C21_21 
REMARK    5  A    between atoms: C21_21  and  C26_26 
REMARK    6  A    between atoms: C22_22  and  C24_24 
REMARK       I    between atoms: C26_26  and  N28_28 
REMARK    7  A    between atoms: N28_28  and  S29_29 
REMARK    8  A    between atoms: S29_29  and  C32_32 
REMARK    9  A    between atoms: C35_35  and  C37_37 
REMARK   10  A    between atoms: C37_37  and  N38_38 
REMARK   11  A    between atoms: C37_37  and  C39_39 
REMARK       I    between atoms: N38_38  and  C40_40 
REMARK   12  A    between atoms: C40_40  and  C42_42 
REMARK   13  A    between atoms: C42_42  and  C43_43 
ROOT
ATOM      1  C13 0Y8 d   1      13.193 -31.762  -7.331  0.00  0.00     0.064 C 
ATOM      2  C14 0Y8 d   1      11.774 -31.263  -7.169  0.00  0.00    -0.011 C 
ATOM      3  C15 0Y8 d   1      11.013 -32.543  -7.488  0.00  0.00     0.094 C 
ATOM      4  N16 0Y8 d   1      11.843 -33.341  -8.451  0.00  0.00    -0.334 N 
ATOM      5  C17 0Y8 d   1      13.129 -32.625  -8.585  0.00  0.00     0.023 C 
ATOM      6  H   0Y8 d   1      13.887 -30.921  -7.346  0.00  0.00     0.086 H 
ATOM      7  H   0Y8 d   1      11.518 -30.414  -7.802  0.00  0.00     0.040 H 
ATOM      8  H   0Y8 d   1      11.553 -30.837  -6.191  0.00  0.00     0.040 H 
ATOM      9  H   0Y8 d   1      10.848 -33.016  -6.520  0.00  0.00     0.088 H 
ATOM     10  H   0Y8 d   1      13.977 -33.305  -8.666  0.00  0.00     0.068 H 
ATOM     11  H   0Y8 d   1      13.183 -32.035  -9.500  0.00  0.00     0.068 H 
ATOM     12  C35 DAL d   1      11.445 -34.526  -9.094  0.00  0.00     0.243 C 
ATOM     13  O36 DAL d   1      10.340 -34.966  -8.869  0.00  0.00    -0.271 OA
ENDROOT
BRANCH   3  14
ATOM     14  C18 0Y8 d   1       9.630 -32.393  -8.100  0.00  0.00     0.241 C 
ATOM     15  O19 0Y8 d   1       9.521 -32.072  -9.266  0.00  0.00    -0.271 OA
ATOM     16  N20 0Y9 d   1       8.498 -32.667  -7.342  0.00  0.00    -0.341 N 
ATOM     17  H   0Y9 d   1       8.620 -32.856  -6.347  0.00  0.00     0.163 HD
BRANCH  16  18
ATOM     18  C21 0Y9 d   1       7.129 -32.700  -7.893  0.00  0.00     0.122 A 
ATOM     19  C22 0Y9 d   1       6.866 -33.658  -9.071  0.00  0.00    -0.003 A 
ATOM     20  C23 0Y9 d   1       6.204 -33.908  -7.713  0.00  0.00    -0.023 A 
ATOM     21  H   0Y9 d   1       7.490 -34.245  -9.745  0.00  0.00     0.050 H 
ATOM     22  H   0Y9 d   1       5.210 -34.121  -7.318  0.00  0.00     0.038 H 
ATOM     23  H   0Y9 d   1       6.068 -34.732  -7.013  0.00  0.00     0.038 H 
BRANCH  19  24
ATOM     24  C24 0Y9 d   1       6.086 -33.243 -10.280  0.00  0.00    -0.105 C 
ATOM     25  C25 0Y9 d   1       6.661 -33.436 -11.463  0.00  0.00    -0.124 C 
ATOM     26  H   0Y9 d   1       7.656 -33.878 -11.520  0.00  0.00     0.066 H 
ATOM     27  H   0Y9 d   1       6.138 -33.152 -12.376  0.00  0.00     0.066 H 
ATOM     28  H   0Y9 d   1       5.093 -32.803 -10.194  0.00  0.00     0.076 H 
ENDBRANCH  19  24
BRANCH  18  29
ATOM     29  C26 0Y9 d   1       6.599 -31.288  -7.835  0.00  0.00     0.260 C 
ATOM     30  O27 0Y9 d   1       5.442 -31.112  -8.146  0.00  0.00    -0.270 OA
ATOM     31  N28 0YA d   1       7.320 -30.184  -7.437  0.00  0.00    -0.252 N 
ATOM     32  H   0YA d   1       8.294 -30.320  -7.166  0.00  0.00     0.181 HD
BRANCH  31  33
ATOM     33  S29 0YA d   1       6.707 -28.660  -7.372  0.00  0.00     0.237 S 
ATOM     34  O30 0YA d   1       6.521 -28.133  -8.700  0.00  0.00    -0.205 OA
ATOM     35  O31 0YA d   1       5.427 -28.696  -6.715  0.00  0.00    -0.205 OA
BRANCH  33  36
ATOM     36  C32 0YA d   1       7.813 -27.621  -6.401  0.00  0.00     0.063 A 
ATOM     37  C33 0YA d   1       7.563 -27.452  -4.884  0.00  0.00    -0.046 A 
ATOM     38  C34 0YA d   1       7.399 -26.295  -5.821  0.00  0.00    -0.046 A 
ATOM     39  H   0YA d   1       8.052 -27.683  -3.938  0.00  0.00     0.035 H 
ATOM     40  H   0YA d   1       7.017 -27.944  -4.079  0.00  0.00     0.035 H 
ATOM     41  H   0YA d   1       6.650 -25.530  -6.026  0.00  0.00     0.035 H 
ATOM     42  H   0YA d   1       7.729 -25.258  -5.878  0.00  0.00     0.035 H 
ATOM     43  H   0YA d   1       8.631 -27.943  -7.045  0.00  0.00     0.066 H 
ENDBRANCH  33  36
ENDBRANCH  31  33
ENDBRANCH  18  29
ENDBRANCH  16  18
ENDBRANCH   3  14
BRANCH   1  44
ATOM     44  O12 0Y8 d   1      13.573 -32.656  -6.289  0.00  0.00    -0.327 OA
BRANCH  44  45
ATOM     45  C4  0Y8 d   1      14.132 -32.346  -5.081  0.00  0.00     0.175 A 
ATOM     46  N2  0Y8 d   1      14.586 -31.060  -4.826  0.00  0.00    -0.236 NA
ATOM     47  C1  0Y8 d   1      15.157 -30.743  -3.601  0.00  0.00     0.006 A 
ATOM     48  C3  0Y8 d   1      15.272 -31.718  -2.622  0.00  0.00    -0.055 A 
ATOM     49  H   0Y8 d   1      15.514 -29.731  -3.409  0.00  0.00     0.114 H 
ATOM     50  C5  0Y8 d   1      14.821 -33.004  -2.873  0.00  0.00    -0.020 A 
ATOM     51  H   0Y8 d   1      15.716 -31.474  -1.657  0.00  0.00     0.087 H 
ATOM     52  C6  0Y8 d   1      14.249 -33.326  -4.102  0.00  0.00     0.028 A 
ATOM     53  C10 0Y8 d   1      14.949 -33.973  -1.884  0.00  0.00    -0.071 A 
ATOM     54  C8  0Y8 d   1      13.805 -34.624  -4.329  0.00  0.00    -0.051 A 
ATOM     55  C7  0Y8 d   1      13.933 -35.586  -3.334  0.00  0.00     0.011 A 
ATOM     56  H   0Y8 d   1      13.357 -34.887  -5.287  0.00  0.00     0.087 H 
ATOM     57  C9  0Y8 d   1      14.503 -35.267  -2.112  0.00  0.00    -0.065 A 
ATOM     58 BR11 0Y8 d   1      13.335 -37.339  -3.641  0.00  0.00    -0.051 Br
ATOM     59  H   0Y8 d   1      14.600 -36.026  -1.336  0.00  0.00     0.085 H 
ATOM     60  H   0Y8 d   1      15.401 -33.715  -0.926  0.00  0.00     0.084 H 
ENDBRANCH  44  45
ENDBRANCH   1  44
BRANCH  12  61
ATOM     61  C37 DAL d   1      12.319 -35.314 -10.086  0.00  0.00     0.086 C 
ATOM     62  H   DAL d   1      13.094 -34.632 -10.437  0.00  0.00     0.086 H 
BRANCH  61  63
ATOM     63  N38 DAL d   1      11.560 -35.774 -11.263  0.00  0.00    -0.348 N 
ATOM     64  C40 PPI d   1      11.198 -34.921 -12.292  0.00  0.00     0.217 C 
ATOM     65  O41 PPI d   1      11.497 -33.748 -12.231  0.00  0.00    -0.274 OA
ATOM     66  H   DAL d   1      11.292 -36.756 -11.322  0.00  0.00     0.163 HD
BRANCH  64  67
ATOM     67  C42 PPI d   1      10.440 -35.395 -13.505  0.00  0.00     0.006 C 
ATOM     68  H   PPI d   1      11.164 -35.529 -14.309  0.00  0.00     0.046 H 
ATOM     69  H   PPI d   1       9.674 -34.650 -13.721  0.00  0.00     0.046 H 
BRANCH  67  70
ATOM     70  C43 PPI d   1       9.729 -36.734 -13.305  0.00  0.00    -0.068 C 
ATOM     71  H   PPI d   1      10.464 -37.501 -13.062  0.00  0.00     0.028 H 
ATOM     72  H   PPI d   1       9.012 -36.645 -12.489  0.00  0.00     0.028 H 
ATOM     73  H   PPI d   1       9.206 -37.007 -14.222  0.00  0.00     0.028 H 
ENDBRANCH  67  70
ENDBRANCH  64  67
ENDBRANCH  61  63
BRANCH  61  74
ATOM     74  C39 DAL d   1      12.956 -36.522  -9.386  0.00  0.00    -0.049 C 
ATOM     75  H   DAL d   1      13.576 -36.176  -8.559  0.00  0.00     0.030 H 
ATOM     76  H   DAL d   1      12.171 -37.175  -9.004  0.00  0.00     0.030 H 
ATOM     77  H   DAL d   1      13.572 -37.071 -10.099  0.00  0.00     0.030 H 
ENDBRANCH  61  74
ENDBRANCH  12  61
TORSDOF 13
