REMARK  5 active torsions:
REMARK  status: ('A' for Active; 'I' for Inactive)
REMARK    1  A    between atoms: SAT_20  and  NAA_1 
REMARK    2  A    between atoms: CAP_16  and  CAN_14 
REMARK    3  A    between atoms: CAN_14  and  CAQ_17 
REMARK       I    between atoms: NAO_15  and  CAP_16 
REMARK    4  A    between atoms: CAR_18  and  NAO_15 
REMARK    5  A    between atoms: CAS_19  and  SAT_20 
ROOT
ATOM      1  OAB OYS d   1      -4.699   6.658  12.920  0.00  0.00    -0.273 OA
ATOM      2  NAO OYS d   1      -3.018   5.201  13.517  0.00  0.00    -0.327 N 
ATOM      3  CAP OYS d   1      -3.514   6.359  12.885  0.00  0.00     0.226 C 
ATOM      4  H14 OYS d   1      -2.036   5.029  13.445  0.00  0.00     0.169 HD
ENDROOT
BRANCH   2   5
ATOM      5  CAR OYS d   1      -3.784   4.261  14.244  0.00  0.00     0.034 A 
ATOM      6  CAJ OYS d   1      -3.061   3.189  14.739  0.00  0.00    -0.056 A 
ATOM      7  CAL OYS d   1      -3.688   2.196  15.473  0.00  0.00    -0.058 A 
ATOM      8  H8  OYS d   1      -1.995   3.126  14.550  0.00  0.00     0.087 H 
ATOM      9  CAS OYS d   1      -5.058   2.269  15.738  0.00  0.00     0.079 A 
ATOM     10  H10 OYS d   1      -3.112   1.356  15.845  0.00  0.00     0.086 H 
ATOM     11  CAM OYS d   1      -5.789   3.340  15.216  0.00  0.00    -0.058 A 
ATOM     12  CAK OYS d   1      -5.164   4.345  14.471  0.00  0.00    -0.056 A 
ATOM     13  H11 OYS d   1      -6.857   3.392  15.392  0.00  0.00     0.086 H 
ATOM     14  H9  OYS d   1      -5.738   5.175  14.076  0.00  0.00     0.087 H 
BRANCH   9  15
ATOM     15  SAT OYS d   1      -5.812   0.996  16.706  0.00  0.00     0.256 S 
ATOM     16  OAC OYS d   1      -7.234   1.228  16.559  0.00  0.00    -0.201 OA
ATOM     17  OAD OYS d   1      -5.309   1.181  18.070  0.00  0.00    -0.201 OA
BRANCH  15  18
ATOM     18  NAA OYS d   1      -5.328  -0.421  16.114  0.00  0.00    -0.324 N 
ATOM     19  H1  OYS d   1      -5.592  -0.693  15.189  0.00  0.00     0.169 HD
ATOM     20  H2  OYS d   1      -4.763  -1.029  16.672  0.00  0.00     0.169 HD
ENDBRANCH  15  18
ENDBRANCH   9  15
ENDBRANCH   2   5
BRANCH   3  21
ATOM     21  CAN OYS d   1      -2.488   7.178  12.171  0.00  0.00     0.033 C 
ATOM     22  H12 OYS d   1      -2.913   7.513  11.213  0.00  0.00     0.054 H 
ATOM     23  H13 OYS d   1      -1.607   6.547  11.981  0.00  0.00     0.054 H 
BRANCH  21  24
ATOM     24  CAQ OYS d   1      -2.055   8.373  12.939  0.00  0.00    -0.050 A 
ATOM     25  CAH OYS d   1      -2.317   9.652  12.422  0.00  0.00    -0.076 A 
ATOM     26  CAF OYS d   1      -1.938  10.784  13.140  0.00  0.00    -0.082 A 
ATOM     27  H6  OYS d   1      -2.814   9.758  11.464  0.00  0.00     0.084 H 
ATOM     28  CAE OYS d   1      -1.310  10.607  14.368  0.00  0.00    -0.083 A 
ATOM     29  H4  OYS d   1      -2.128  11.778  12.751  0.00  0.00     0.083 H 
ATOM     30  CAG OYS d   1      -1.077   9.327  14.911  0.00  0.00    -0.082 A 
ATOM     31  H3  OYS d   1      -0.990  11.480  14.925  0.00  0.00     0.083 H 
ATOM     32  CAI OYS d   1      -1.482   8.205  14.174  0.00  0.00    -0.076 A 
ATOM     33  H5  OYS d   1      -0.596   9.213  15.876  0.00  0.00     0.083 H 
ATOM     34  H7  OYS d   1      -1.343   7.209  14.579  0.00  0.00     0.084 H 
ENDBRANCH  21  24
ENDBRANCH   3  21
TORSDOF 5
