REMARK  15 active torsions:
REMARK  status: ('A' for Active; 'I' for Inactive)
REMARK    1  A    between atoms: C_1  and  CA_4 
REMARK       I    between atoms: NBE_33  and  C_1 
REMARK    2  A    between atoms: CA_4  and  N_2 
REMARK    3  A    between atoms: N_2  and  CAB_7 
REMARK    4  A    between atoms: CA_4  and  CB_5 
REMARK    5  A    between atoms: CB_5  and  CAA_6 
REMARK    6  A    between atoms: CAW_26  and  CAV_25 
REMARK    7  A    between atoms: CAV_25  and  NBD_32 
REMARK    8  A    between atoms: CBM_40  and  CAW_26 
REMARK    9  A    between atoms: NBD_32  and  CBB_31 
REMARK   10  A    between atoms: CBB_31  and  CBJ_37 
REMARK   11  A    between atoms: CBQ_43  and  NBE_33 
REMARK       I    between atoms: CBH_35  and  NBF_34 
REMARK   12  A    between atoms: NBF_34  and  CBR_44 
REMARK   13  A    between atoms: CBP_42  and  CBH_35 
REMARK   14  A    between atoms: CBR_44  and  CBK_38 
REMARK   15  A    between atoms: CBR_44  and  CBL_39 
ROOT
ATOM      1  OAE BMB d   1     -19.585 -32.169 -10.579  0.00  0.00    -0.271 OA
ATOM      2  CAX BMB d   1     -21.469 -28.868 -10.695  0.00  0.00    -0.058 C 
ATOM      3  CAY BMB d   1     -22.111 -28.947  -9.295  0.00  0.00    -0.045 C 
ATOM      4  CAZ BMB d   1     -23.362 -30.929  -8.477  0.00  0.00    -0.044 C 
ATOM      5  CBA BMB d   1     -23.060 -32.420  -8.358  0.00  0.00    -0.036 C 
ATOM      6  CBI BMB d   1     -20.050 -31.193  -9.977  0.00  0.00     0.244 C 
ATOM      7  CBM BMB d   1     -19.938 -28.688 -10.619  0.00  0.00    -0.024 C 
ATOM      8  CBO BMB d   1     -21.979 -30.316  -8.597  0.00  0.00     0.015 C 
ATOM      9  CBP BMB d   1     -21.976 -32.600  -9.413  0.00  0.00     0.092 C 
ATOM     10  CBQ BMB d   1     -19.252 -29.877  -9.921  0.00  0.00     0.093 C 
ATOM     11  NBS BMB d   1     -21.234 -31.326  -9.381  0.00  0.00    -0.332 N 
ATOM     12  H31 BMB d   1     -21.901 -28.013 -11.236  0.00  0.00     0.033 H 
ATOM     13  H32 BMB d   1     -21.691 -29.797 -11.241  0.00  0.00     0.033 H 
ATOM     14  H33 BMB d   1     -23.182 -28.717  -9.396  0.00  0.00     0.036 H 
ATOM     15  H34 BMB d   1     -21.632 -28.190  -8.656  0.00  0.00     0.036 H 
ATOM     16  H35 BMB d   1     -23.884 -30.558  -7.583  0.00  0.00     0.036 H 
ATOM     17  H36 BMB d   1     -23.968 -30.717  -9.370  0.00  0.00     0.036 H 
ATOM     18  H37 BMB d   1     -23.947 -33.029  -8.587  0.00  0.00     0.036 H 
ATOM     19  H38 BMB d   1     -22.689 -32.675  -7.354  0.00  0.00     0.036 H 
ATOM     20  H45 BMB d   1     -19.764 -27.816  -9.971  0.00  0.00     0.043 H 
ATOM     21  H46 BMB d   1     -21.512 -30.177  -7.611  0.00  0.00     0.072 H 
ATOM     22  H47 BMB d   1     -21.322 -33.451  -9.172  0.00  0.00     0.087 H 
ATOM     23  H48 BMB d   1     -19.202 -29.601  -8.857  0.00  0.00     0.088 H 
ENDROOT
BRANCH   9  24
ATOM     24  CBH BMB d   1     -22.604 -32.795 -10.791  0.00  0.00     0.241 C 
ATOM     25  OAD BMB d   1     -22.681 -31.865 -11.593  0.00  0.00    -0.271 OA
ATOM     26  NBF BMB d   1     -23.011 -34.036 -11.057  0.00  0.00    -0.347 N 
ATOM     27  H44 BMB d   1     -22.909 -34.749 -10.364  0.00  0.00     0.163 HD
BRANCH  26  28
ATOM     28  CBR BMB d   1     -23.609 -34.367 -12.359  0.00  0.00     0.063 C 
ATOM     29  H49 BMB d   1     -23.132 -33.703 -13.095  0.00  0.00     0.088 H 
BRANCH  28  30
ATOM     30  CBK BMB d   1     -23.254 -35.785 -12.817  0.00  0.00    -0.031 A 
ATOM     31  CAQ BMB d   1     -21.908 -36.120 -12.907  0.00  0.00    -0.074 A 
ATOM     32  CAK BMB d   1     -21.524 -37.392 -13.316  0.00  0.00    -0.082 A 
ATOM     33  H23 BMB d   1     -21.152 -35.384 -12.656  0.00  0.00     0.084 H 
ATOM     34  CAG BMB d   1     -22.488 -38.334 -13.665  0.00  0.00    -0.083 A 
ATOM     35  H17 BMB d   1     -20.472 -37.651 -13.363  0.00  0.00     0.083 H 
ATOM     36  CAL BMB d   1     -23.829 -37.994 -13.601  0.00  0.00    -0.082 A 
ATOM     37  H13 BMB d   1     -22.191 -39.326 -13.985  0.00  0.00     0.083 H 
ATOM     38  CAR BMB d   1     -24.213 -36.724 -13.176  0.00  0.00    -0.074 A 
ATOM     39  H18 BMB d   1     -24.584 -38.719 -13.883  0.00  0.00     0.083 H 
ATOM     40  H24 BMB d   1     -25.265 -36.467 -13.125  0.00  0.00     0.084 H 
ENDBRANCH  28  30
BRANCH  28  41
ATOM     41  CBL BMB d   1     -25.085 -33.988 -12.372  0.00  0.00    -0.031 A 
ATOM     42  CAS BMB d   1     -25.450 -32.802 -13.023  0.00  0.00    -0.074 A 
ATOM     43  CAM BMB d   1     -26.773 -32.365 -13.024  0.00  0.00    -0.082 A 
ATOM     44  H25 BMB d   1     -24.693 -32.217 -13.533  0.00  0.00     0.084 H 
ATOM     45  CAH BMB d   1     -27.738 -33.143 -12.377  0.00  0.00    -0.083 A 
ATOM     46  H19 BMB d   1     -27.049 -31.440 -13.517  0.00  0.00     0.083 H 
ATOM     47  CAN BMB d   1     -27.374 -34.323 -11.717  0.00  0.00    -0.082 A 
ATOM     48  H14 BMB d   1     -28.776 -32.830 -12.386  0.00  0.00     0.083 H 
ATOM     49  CAT BMB d   1     -26.039 -34.738 -11.687  0.00  0.00    -0.074 A 
ATOM     50  H20 BMB d   1     -28.134 -34.920 -11.225  0.00  0.00     0.083 H 
ATOM     51  H26 BMB d   1     -25.751 -35.628 -11.140  0.00  0.00     0.084 H 
ENDBRANCH  28  41
ENDBRANCH  26  28
ENDBRANCH   9  24
BRANCH  10  52
ATOM     52  NBE BMB d   1     -17.863 -30.084 -10.351  0.00  0.00    -0.346 N 
ATOM     53  C   BMB d   1     -16.885 -30.074  -9.459  0.00  0.00     0.249 C 
ATOM     54  O   BMB d   1     -17.045 -29.899  -8.245  0.00  0.00    -0.271 OA
ATOM     55  H43 BMB d   1     -17.656 -30.233 -11.318  0.00  0.00     0.163 HD
BRANCH  53  56
ATOM     56  CA  BMB d   1     -15.508 -30.345 -10.031  0.00  0.00     0.177 C 
ATOM     57  H3  BMB d   1     -15.602 -30.615 -11.093  0.00  0.00     0.099 H 
BRANCH  56  58
ATOM     58  N   BMB d   1     -14.732 -29.099  -9.924  0.00  0.00    -0.066 N 
ATOM     59  H1  BMB d   1     -15.291 -28.339 -10.278  0.00  0.00     0.277 HD
ATOM     60  H2  BMB d   1     -13.897 -29.190 -10.481  0.00  0.00     0.277 HD
BRANCH  58  61
ATOM     61  CAB BMB d   1     -14.340 -28.789  -8.530  0.00  0.00     0.066 C 
ATOM     62  H9  BMB d   1     -13.765 -27.851  -8.511  0.00  0.00     0.067 H 
ATOM     63  H10 BMB d   1     -13.721 -29.607  -8.133  0.00  0.00     0.067 H 
ATOM     64  H11 BMB d   1     -15.243 -28.678  -7.911  0.00  0.00     0.067 H 
ENDBRANCH  58  61
ENDBRANCH  56  58
BRANCH  56  65
ATOM     65  CB  BMB d   1     -14.839 -31.523  -9.288  0.00  0.00    -0.033 C 
ATOM     66  H4  BMB d   1     -14.530 -31.184  -8.288  0.00  0.00     0.036 H 
ATOM     67  H5  BMB d   1     -13.953 -31.844  -9.856  0.00  0.00     0.036 H 
BRANCH  65  68
ATOM     68  CAA BMB d   1     -15.788 -32.715  -9.135  0.00  0.00    -0.074 C 
ATOM     69  H6  BMB d   1     -15.273 -33.528  -8.602  0.00  0.00     0.027 H 
ATOM     70  H7  BMB d   1     -16.098 -33.067 -10.130  0.00  0.00     0.027 H 
ATOM     71  H8  BMB d   1     -16.675 -32.406  -8.563  0.00  0.00     0.027 H 
ENDBRANCH  65  68
ENDBRANCH  56  65
ENDBRANCH  53  56
ENDBRANCH  10  52
BRANCH   7  72
ATOM     72  CAW BMB d   1     -19.314 -28.326 -11.995  0.00  0.00    -0.037 C 
ATOM     73  H29 BMB d   1     -18.444 -28.974 -12.177  0.00  0.00     0.036 H 
ATOM     74  H30 BMB d   1     -20.063 -28.489 -12.784  0.00  0.00     0.036 H 
BRANCH  72  75
ATOM     75  CAV BMB d   1     -18.863 -26.858 -12.026  0.00  0.00     0.082 C 
ATOM     76  H27 BMB d   1     -19.473 -26.281 -11.315  0.00  0.00     0.075 H 
ATOM     77  H28 BMB d   1     -19.009 -26.460 -13.041  0.00  0.00     0.075 H 
BRANCH  75  78
ATOM     78  NBD BMB d   1     -17.441 -26.724 -11.658  0.00  0.00    -0.071 N 
ATOM     79  H41 BMB d   1     -16.882 -27.320 -12.248  0.00  0.00     0.277 HD
ATOM     80  H42 BMB d   1     -17.315 -26.992 -10.694  0.00  0.00     0.277 HD
BRANCH  78  81
ATOM     81  CBB BMB d   1     -17.026 -25.316 -11.839  0.00  0.00     0.105 C 
ATOM     82  H39 BMB d   1     -17.927 -24.696 -11.957  0.00  0.00     0.083 H 
ATOM     83  H40 BMB d   1     -16.410 -25.245 -12.748  0.00  0.00     0.083 H 
BRANCH  81  84
ATOM     84  CBJ BMB d   1     -16.208 -24.777 -10.644  0.00  0.00    -0.033 A 
ATOM     85  CAO BMB d   1     -15.171 -23.867 -10.876  0.00  0.00    -0.075 A 
ATOM     86  CAI BMB d   1     -14.409 -23.361  -9.817  0.00  0.00    -0.082 A 
ATOM     87  H21 BMB d   1     -14.955 -23.550 -11.890  0.00  0.00     0.084 H 
ATOM     88  CAF BMB d   1     -14.717 -23.730  -8.504  0.00  0.00    -0.083 A 
ATOM     89  H15 BMB d   1     -13.584 -22.686 -10.014  0.00  0.00     0.083 H 
ATOM     90  CAJ BMB d   1     -15.767 -24.621  -8.262  0.00  0.00    -0.082 A 
ATOM     91  H12 BMB d   1     -14.144 -23.327  -7.677  0.00  0.00     0.083 H 
ATOM     92  CAP BMB d   1     -16.520 -25.132  -9.326  0.00  0.00    -0.075 A 
ATOM     93  H16 BMB d   1     -15.999 -24.918  -7.246  0.00  0.00     0.083 H 
ATOM     94  H22 BMB d   1     -17.347 -25.805  -9.129  0.00  0.00     0.084 H 
ENDBRANCH  81  84
ENDBRANCH  78  81
ENDBRANCH  75  78
ENDBRANCH  72  75
ENDBRANCH   7  72
TORSDOF 15
