REMARK  11 active torsions:
REMARK  status: ('A' for Active; 'I' for Inactive)
REMARK    1  A    between atoms: CAT_20  and  CAA_1 
REMARK    2  A    between atoms: CBA_27  and  CAB_2 
REMARK    3  A    between atoms: CBA_27  and  CAC_3 
REMARK    4  A    between atoms: CAU_21  and  OAE_5 
REMARK    5  A    between atoms: CAZ_26  and  OAF_6 
REMARK    6  A    between atoms: CAN_14  and  NAP_16 
REMARK    7  A    between atoms: CAZ_26  and  CAN_14 
REMARK    8  A    between atoms: CAO_15  and  CAV_22 
REMARK    9  A    between atoms: CBA_27  and  CAO_15 
REMARK   10  A    between atoms: NAP_16  and  CBA_27 
REMARK   11  A    between atoms: CAW_23  and  CAZ_26 
ROOT
ATOM      1  NAP P0G d   1      63.661  15.202  12.928  0.00  0.00    -0.064 N 
ATOM      2  H   P0G d   1      63.336  14.294  12.596  0.00  0.00     0.278 HD
ATOM      3  H   P0G d   1      63.245  15.429  13.831  0.00  0.00     0.278 HD
ENDROOT
BRANCH   1   4
ATOM      4  CAN P0G d   1      63.265  16.238  11.947  0.00  0.00     0.110 C 
ATOM      5  H   P0G d   1      63.106  15.750  10.985  0.00  0.00     0.080 H 
ATOM      6  H   P0G d   1      64.058  16.985  11.905  0.00  0.00     0.080 H 
BRANCH   4   7
ATOM      7  CAZ P0G d   1      61.963  16.946  12.343  0.00  0.00     0.086 C 
ATOM      8  H   P0G d   1      62.045  17.422  13.320  0.00  0.00     0.093 H 
BRANCH   7   9
ATOM      9  OAF P0G d   1      60.938  15.948  12.362  0.00  0.00    -0.389 OA
ATOM     10  H   P0G d   1      60.860  15.554  11.490  0.00  0.00     0.210 HD
ENDBRANCH   7   9
BRANCH   7  11
ATOM     11  CAW P0G d   1      61.637  18.061  11.305  0.00  0.00     0.008 A 
ATOM     12  CAL P0G d   1      60.505  17.910  10.509  0.00  0.00    -0.069 A 
ATOM     13  CAK P0G d   1      60.182  18.867   9.556  0.00  0.00    -0.048 A 
ATOM     14  H   P0G d   1      59.868  17.035  10.635  0.00  0.00     0.084 H 
ATOM     15  CAU P0G d   1      60.995  19.976   9.353  0.00  0.00     0.095 A 
ATOM     16  H   P0G d   1      59.278  18.747   8.959  0.00  0.00     0.087 H 
ATOM     17  CAX P0G d   1      62.113  20.165  10.152  0.00  0.00     0.102 A 
ATOM     18  NAQ P0G d   1      62.923  21.298   9.919  0.00  0.00    -0.321 N 
ATOM     19  CAY P0G d   1      62.443  19.216  11.144  0.00  0.00     0.107 A 
ATOM     20  CAS P0G d   1      63.940  21.617  10.822  0.00  0.00     0.246 C 
ATOM     21  H   P0G d   1      62.766  21.880   9.096  0.00  0.00     0.169 HD
ATOM     22  OAD P0G d   1      64.678  22.589  10.630  0.00  0.00    -0.271 OA
ATOM     23  CAM P0G d   1      64.091  20.781  11.937  0.00  0.00     0.100 C 
ATOM     24  OAR P0G d   1      63.564  19.409  11.934  0.00  0.00    -0.339 OA
ATOM     25  H   P0G d   1      65.169  20.649  12.023  0.00  0.00     0.089 H 
ATOM     26  H   P0G d   1      63.521  21.281  12.720  0.00  0.00     0.089 H 
BRANCH  15  27
ATOM     27  OAE P0G d   1      60.698  20.876   8.379  0.00  0.00    -0.358 OA
ATOM     28  H   P0G d   1      61.358  21.573   8.377  0.00  0.00     0.217 HD
ENDBRANCH  15  27
ENDBRANCH   7  11
ENDBRANCH   4   7
ENDBRANCH   1   4
BRANCH   1  29
ATOM     29  CBA P0G d   1      65.133  15.155  13.080  0.00  0.00     0.122 C 
BRANCH  29  30
ATOM     30  CAB P0G d   1      65.780  15.215  11.692  0.00  0.00    -0.045 C 
ATOM     31  H   P0G d   1      66.864  15.166  11.795  0.00  0.00     0.030 H 
ATOM     32  H   P0G d   1      65.433  14.373  11.094  0.00  0.00     0.030 H 
ATOM     33  H   P0G d   1      65.502  16.149  11.203  0.00  0.00     0.030 H 
ENDBRANCH  29  30
BRANCH  29  34
ATOM     34  CAC P0G d   1      65.558  16.391  13.896  0.00  0.00    -0.045 C 
ATOM     35  H   P0G d   1      65.085  16.357  14.877  0.00  0.00     0.030 H 
ATOM     36  H   P0G d   1      66.642  16.392  14.014  0.00  0.00     0.030 H 
ATOM     37  H   P0G d   1      65.247  17.295  13.372  0.00  0.00     0.030 H 
ENDBRANCH  29  34
BRANCH  29  38
ATOM     38  CAO P0G d   1      65.539  13.823  13.758  0.00  0.00    -0.010 C 
ATOM     39  H   P0G d   1      64.667  13.477  14.313  0.00  0.00     0.043 H 
ATOM     40  H   P0G d   1      65.879  13.159  12.963  0.00  0.00     0.043 H 
BRANCH  38  41
ATOM     41  CAV P0G d   1      66.701  13.925  14.777  0.00  0.00    -0.050 A 
ATOM     42  CAJ P0G d   1      66.343  14.274  16.084  0.00  0.00    -0.076 A 
ATOM     43  CAH P0G d   1      67.313  14.375  17.089  0.00  0.00    -0.082 A 
ATOM     44  H   P0G d   1      65.297  14.469  16.323  0.00  0.00     0.084 H 
ATOM     45  CAG P0G d   1      68.665  14.126  16.825  0.00  0.00    -0.082 A 
ATOM     46  H   P0G d   1      67.009  14.653  18.098  0.00  0.00     0.083 H 
ATOM     47  CAI P0G d   1      69.038  13.786  15.528  0.00  0.00    -0.077 A 
ATOM     48  H   P0G d   1      69.409  14.197  17.618  0.00  0.00     0.083 H 
ATOM     49  CAT P0G d   1      68.071  13.678  14.514  0.00  0.00    -0.056 A 
ATOM     50  H   P0G d   1      70.087  13.602  15.297  0.00  0.00     0.084 H 
BRANCH  49  51
ATOM     51  CAA P0G d   1      68.580  13.309  13.113  0.00  0.00    -0.051 C 
ATOM     52  H   P0G d   1      69.284  14.068  12.772  0.00  0.00     0.033 H 
ATOM     53  H   P0G d   1      69.079  12.341  13.152  0.00  0.00     0.033 H 
ATOM     54  H   P0G d   1      67.737  13.258  12.424  0.00  0.00     0.033 H 
ENDBRANCH  49  51
ENDBRANCH  38  41
ENDBRANCH  29  38
ENDBRANCH   1  29
TORSDOF 11
