REMARK  1 active torsions:
REMARK  status: ('A' for Active; 'I' for Inactive)
REMARK    1  A    between atoms: NAG_7  and  CAA_1 
ROOT
ATOM      1  OAB MB3 d   1     -21.124  27.023  -0.199  0.00  0.00    -0.273 OA
ATOM      2  CAC MB3 d   1     -17.639  27.743   0.085  0.00  0.00    -0.042 C 
ATOM      3  CAD MB3 d   1     -19.048  27.930   0.615  0.00  0.00     0.011 C 
ATOM      4  CAE MB3 d   1     -17.706  26.534  -0.816  0.00  0.00    -0.002 C 
ATOM      5  CAF MB3 d   1     -19.892  27.000  -0.229  0.00  0.00     0.219 C 
ATOM      6  NAG MB3 d   1     -19.125  26.271  -1.042  0.00  0.00    -0.356 N 
ATOM      7  H4  MB3 d   1     -16.937  27.567   0.913  0.00  0.00     0.036 H 
ATOM      8  H5  MB3 d   1     -17.321  28.629  -0.484  0.00  0.00     0.036 H 
ATOM      9  H6  MB3 d   1     -19.375  28.973   0.492  0.00  0.00     0.047 H 
ATOM     10  H7  MB3 d   1     -19.105  27.651   1.677  0.00  0.00     0.047 H 
ATOM     11  H8  MB3 d   1     -17.231  25.669  -0.330  0.00  0.00     0.064 H 
ATOM     12  H9  MB3 d   1     -17.200  26.741  -1.770  0.00  0.00     0.064 H 
ENDROOT
BRANCH   6  13
ATOM     13  CAA MB3 d   1     -19.606  25.250  -2.004  0.00  0.00    -0.016 C 
ATOM     14  H1  MB3 d   1     -18.747  24.814  -2.536  0.00  0.00     0.056 H 
ATOM     15  H2  MB3 d   1     -20.286  25.721  -2.729  0.00  0.00     0.056 H 
ATOM     16  H3  MB3 d   1     -20.142  24.458  -1.461  0.00  0.00     0.056 H 
ENDBRANCH   6  13
TORSDOF 1
