REMARK  8 active torsions:
REMARK  status: ('A' for Active; 'I' for Inactive)
REMARK    1  A    between atoms: O3A_8  and  PB_1 
REMARK    2  A    between atoms: PA_5  and  O3A_8 
REMARK    3  A    between atoms: PA_5  and  O5'_9 
REMARK    4  A    between atoms: O5'_9  and  C5'_10 
REMARK    5  A    between atoms: C5'_10  and  C4'_11 
REMARK    6  A    between atoms: C3'_13  and  O3'_14 
REMARK    7  A    between atoms: C2'_15  and  O2'_16 
REMARK    8  A    between atoms: C1'_17  and  N9_18 
ROOT
ATOM      1  C4' ADP d   1      23.884 -41.982  49.234  0.00  0.00     0.089 C 
ATOM      2  O4' ADP d   1      22.687 -42.157  48.474  0.00  0.00    -0.353 OA
ATOM      3  C3' ADP d   1      25.030 -41.999  48.232  0.00  0.00     0.091 C 
ATOM      4  C2' ADP d   1      24.483 -42.748  47.035  0.00  0.00     0.105 C 
ATOM      5  C1' ADP d   1      22.976 -42.800  47.230  0.00  0.00     0.139 C 
ATOM      6  H   ADP d   1      24.028 -42.776  49.967  0.00  0.00     0.090 H 
ATOM      7  H   ADP d   1      25.358 -40.989  47.987  0.00  0.00     0.091 H 
ATOM      8  H   ADP d   1      24.750 -42.264  46.096  0.00  0.00     0.093 H 
ATOM      9  H   ADP d   1      22.598 -43.822  47.248  0.00  0.00     0.122 H 
ENDROOT
BRANCH   5  10
ATOM     10  N9  ADP d   1      22.340 -42.073  46.104  0.00  0.00    -0.294 N 
ATOM     11  C8  ADP d   1      22.221 -40.735  46.002  0.00  0.00     0.071 A 
ATOM     12  N7  ADP d   1      21.601 -40.386  44.848  0.00  0.00    -0.236 NA
ATOM     13  H   ADP d   1      22.577 -40.026  46.749  0.00  0.00     0.144 H 
ATOM     14  C5  ADP d   1      21.317 -41.521  44.186  0.00  0.00     0.149 A 
ATOM     15  C6  ADP d   1      20.668 -41.868  42.901  0.00  0.00     0.155 A 
ATOM     16  C4  ADP d   1      21.806 -42.631  45.014  0.00  0.00     0.167 A 
ATOM     17  N6  ADP d   1      20.189 -40.900  42.082  0.00  0.00    -0.382 N 
ATOM     18  N1  ADP d   1      20.570 -43.179  42.581  0.00  0.00    -0.222 NA
ATOM     19  H   ADP d   1      20.273 -39.919  42.348  0.00  0.00     0.157 HD
ATOM     20  H   ADP d   1      19.744 -41.153  41.200  0.00  0.00     0.157 HD
ATOM     21  C2  ADP d   1      21.041 -44.145  43.391  0.00  0.00     0.091 A 
ATOM     22  N3  ADP d   1      21.641 -43.899  44.569  0.00  0.00    -0.222 NA
ATOM     23  H   ADP d   1      20.930 -45.182  43.075  0.00  0.00     0.146 H 
ENDBRANCH   5  10
BRANCH   4  24
ATOM     24  O2' ADP d   1      25.015 -44.075  47.019  0.00  0.00    -0.388 OA
ATOM     25  H   ADP d   1      25.972 -44.034  46.961  0.00  0.00     0.210 HD
ENDBRANCH   4  24
BRANCH   1  26
ATOM     26  C5' ADP d   1      23.817 -40.693  50.048  0.00  0.00     0.058 C 
ATOM     27  H   ADP d   1      22.915 -40.714  50.660  0.00  0.00     0.079 H 
ATOM     28  H   ADP d   1      24.711 -40.626  50.668  0.00  0.00     0.079 H 
BRANCH  26  29
ATOM     29  O5' ADP d   1      23.765 -39.550  49.198  0.00  0.00    -0.287 OA
BRANCH  29  30
ATOM     30  PA  ADP d   1      23.729 -38.078  49.847  0.00  0.00     0.418 P 
ATOM     31  O1A ADP d   1      23.746 -37.054  48.739  0.00  0.00    -0.624 OA
ATOM     32  O2A ADP d   1      22.620 -38.088  50.870  0.00  0.00    -0.624 OA
BRANCH  30  33
ATOM     33  O3A ADP d   1      25.138 -38.001  50.620  0.00  0.00    -0.173 OA
BRANCH  33  34
ATOM     34  PB  ADP d   1      26.515 -38.301  49.843  0.00  0.00     0.431 P 
ATOM     35  O1B ADP d   1      27.515 -37.444  50.577  0.00  0.00    -0.616 OA
ATOM     36  O2B ADP d   1      26.256 -37.821  48.433  0.00  0.00    -0.616 OA
ATOM     37  O3B ADP d   1      26.695 -39.796  49.986  0.00  0.00    -0.616 OA
ENDBRANCH  33  34
ENDBRANCH  30  33
ENDBRANCH  29  30
ENDBRANCH  26  29
ENDBRANCH   1  26
BRANCH   3  38
ATOM     38  O3' ADP d   1      26.181 -42.672  48.753  0.00  0.00    -0.390 OA
ATOM     39  H   ADP d   1      25.951 -43.580  48.965  0.00  0.00     0.210 HD
ENDBRANCH   3  38
TORSDOF 8
