REMARK  12 active torsions:
REMARK  status: ('A' for Active; 'I' for Inactive)
REMARK    1  A    between atoms: N_1  and  CA_2 
REMARK    2  A    between atoms: CA_2  and  C_3 
REMARK    3  A    between atoms: CA_2  and  CB_6 
REMARK    4  A    between atoms: CB_6  and  CG_7 
REMARK    5  A    between atoms: CG_7  and  SD_8 
REMARK    6  A    between atoms: SD_8  and  CE_9 
REMARK    7  A    between atoms: SD_8  and  C5'_10 
REMARK    8  A    between atoms: C5'_10  and  C4'_11 
REMARK    9  A    between atoms: C3'_13  and  O3'_14 
REMARK   10  A    between atoms: C2'_15  and  O2'_16 
REMARK   11  A    between atoms: C1'_17  and  N9_18 
REMARK   12  A    between atoms: C6_22  and  N6_23 
ROOT
ATOM      1  C4' SAM d   1       5.863  -3.091   4.604  0.00  0.00     0.076 C 
ATOM      2  O4' SAM d   1       5.673  -3.601   5.894  0.00  0.00    -0.355 OA
ATOM      3  C3' SAM d   1       4.491  -2.728   4.033  0.00  0.00     0.090 C 
ATOM      4  C2' SAM d   1       3.510  -3.043   5.137  0.00  0.00     0.105 C 
ATOM      5  C1' SAM d   1       4.321  -3.989   5.975  0.00  0.00     0.139 C 
ATOM      6  H   SAM d   1       6.343  -3.801   3.930  0.00  0.00     0.088 H 
ATOM      7  H   SAM d   1       4.482  -1.686   3.714  0.00  0.00     0.091 H 
ATOM      8  H   SAM d   1       3.110  -2.172   5.656  0.00  0.00     0.093 H 
ATOM      9  H   SAM d   1       4.205  -4.998   5.580  0.00  0.00     0.122 H 
ENDROOT
BRANCH   1  10
ATOM     10  C5' SAM d   1       6.719  -1.855   4.766  0.00  0.00    -0.005 C 
ATOM     11  H   SAM d   1       6.134  -0.983   5.059  0.00  0.00     0.051 H 
ATOM     12  H   SAM d   1       7.452  -1.963   5.565  0.00  0.00     0.051 H 
BRANCH  10  13
ATOM     13  SD  SAM d   1       7.490  -1.646   3.161  0.00  0.00    -0.221 SA
BRANCH  13  14
ATOM     14  CG  SAM d   1       8.243  -3.297   3.243  0.00  0.00    -0.029 C 
ATOM     15  H   SAM d   1       8.862  -3.401   4.134  0.00  0.00     0.047 H 
ATOM     16  H   SAM d   1       7.479  -4.072   3.307  0.00  0.00     0.047 H 
BRANCH  14  17
ATOM     17  CB  SAM d   1       9.065  -3.451   1.995  0.00  0.00    -0.022 C 
ATOM     18  H   SAM d   1       8.398  -3.204   1.169  0.00  0.00     0.037 H 
ATOM     19  H   SAM d   1       9.940  -2.816   2.137  0.00  0.00     0.037 H 
BRANCH  17  20
ATOM     20  CA  SAM d   1       9.601  -4.819   1.689  0.00  0.00     0.183 C 
ATOM     21  H   SAM d   1       9.029  -5.415   0.979  0.00  0.00     0.101 H 
BRANCH  20  22
ATOM     22  N   SAM d   1       9.675  -5.623   2.926  0.00  0.00    -0.065 N 
ATOM     23  H   SAM d   1      10.040  -6.550   2.706  0.00  0.00     0.275 HD
ATOM     24  H   SAM d   1      10.293  -5.162   3.593  0.00  0.00     0.275 HD
ATOM     25  H   SAM d   1       8.742  -5.711   3.329  0.00  0.00     0.275 HD
ENDBRANCH  20  22
BRANCH  20  26
ATOM     26  C   SAM d   1      10.975  -4.413   1.272  0.00  0.00     0.204 C 
ATOM     27  O   SAM d   1      11.934  -4.688   2.013  0.00  0.00    -0.646 OA
ATOM     28  OXT SAM d   1      11.117  -3.758   0.232  0.00  0.00    -0.646 OA
ENDBRANCH  20  26
ENDBRANCH  17  20
ENDBRANCH  14  17
ENDBRANCH  13  14
BRANCH  13  29
ATOM     29  CE  SAM d   1       8.863  -0.612   3.711  0.00  0.00    -0.042 C 
ATOM     30  H   SAM d   1       9.157  -0.907   4.718  0.00  0.00     0.040 H 
ATOM     31  H   SAM d   1       9.707  -0.740   3.033  0.00  0.00     0.040 H 
ATOM     32  H   SAM d   1       8.552   0.432   3.713  0.00  0.00     0.040 H 
ENDBRANCH  13  29
ENDBRANCH  10  13
ENDBRANCH   1  10
BRANCH   3  33
ATOM     33  O3' SAM d   1       4.153  -3.509   2.902  0.00  0.00    -0.390 OA
ATOM     34  H   SAM d   1       4.136  -4.437   3.149  0.00  0.00     0.210 HD
ENDBRANCH   3  33
BRANCH   5  35
ATOM     35  N9  SAM d   1       3.853  -4.082   7.346  0.00  0.00    -0.294 N 
ATOM     36  C8  SAM d   1       3.833  -3.145   8.334  0.00  0.00     0.071 A 
ATOM     37  N7  SAM d   1       3.299  -3.726   9.460  0.00  0.00    -0.236 NA
ATOM     38  H   SAM d   1       4.179  -2.115   8.247  0.00  0.00     0.144 H 
ATOM     39  C5  SAM d   1       2.998  -5.024   9.177  0.00  0.00     0.149 A 
ATOM     40  C6  SAM d   1       2.462  -6.064   9.924  0.00  0.00     0.155 A 
ATOM     41  C4  SAM d   1       3.354  -5.253   7.853  0.00  0.00     0.167 A 
ATOM     42  N1  SAM d   1       2.277  -7.295   9.342  0.00  0.00    -0.222 NA
ATOM     43  C2  SAM d   1       2.632  -7.495   8.024  0.00  0.00     0.091 A 
ATOM     44  N3  SAM d   1       3.170  -6.464   7.275  0.00  0.00    -0.222 NA
ATOM     45  H   SAM d   1       2.487  -8.475   7.569  0.00  0.00     0.146 H 
BRANCH  40  46
ATOM     46  N6  SAM d   1       2.124  -5.899  11.202  0.00  0.00    -0.382 N 
ATOM     47  H   SAM d   1       2.257  -4.993  11.652  0.00  0.00     0.157 HD
ATOM     48  H   SAM d   1       1.732  -6.678  11.730  0.00  0.00     0.157 HD
ENDBRANCH  40  46
ENDBRANCH   5  35
BRANCH   4  49
ATOM     49  O2' SAM d   1       2.454  -3.781   4.588  0.00  0.00    -0.388 OA
ATOM     50  H   SAM d   1       2.796  -4.594   4.209  0.00  0.00     0.210 HD
ENDBRANCH   4  49
TORSDOF 12
