REMARK  5 active torsions:
REMARK  status: ('A' for Active; 'I' for Inactive)
REMARK    1  A    between atoms: C3_3  and  S7_7 
REMARK    2  A    between atoms: N11_11  and  C6_6 
REMARK    3  A    between atoms: S7_7  and  N10_10 
REMARK    4  A    between atoms: C19_21  and  C12_12 
REMARK    5  A    between atoms: C18_20  and  C17_19 
ROOT
ATOM      1  N11 84A d   1      15.807   7.289  13.053  0.00  0.00    -0.214 N 
ATOM      2  C12 84A d   1      16.908   7.842  12.560  0.00  0.00     0.083 A 
ATOM      3  C13 84A d   1      16.469   8.831  11.784  0.00  0.00     0.053 A 
ATOM      4  N14 84A d   1      15.133   8.792  11.854  0.00  0.00    -0.142 NA
ATOM      5  N15 84A d   1      14.804   7.868  12.610  0.00  0.00    -0.061 NA
ATOM      6  H   84A d   1      17.075   9.531  11.208  0.00  0.00     0.121 H 
ENDROOT
BRANCH   1   7
ATOM      7  C6  84A d   1      15.734   6.227  13.886  0.00  0.00     0.060 A 
ATOM      8  C1  84A d   1      15.079   6.366  15.108  0.00  0.00    -0.054 A 
ATOM      9  C2  84A d   1      14.949   5.284  15.979  0.00  0.00    -0.058 A 
ATOM     10  H   84A d   1      14.662   7.334  15.387  0.00  0.00     0.087 H 
ATOM     11  C3  84A d   1      15.533   4.056  15.666  0.00  0.00     0.079 A 
ATOM     12  H   84A d   1      14.389   5.398  16.907  0.00  0.00     0.086 H 
ATOM     13  C4  84A d   1      16.158   3.881  14.430  0.00  0.00    -0.058 A 
ATOM     14  C5  84A d   1      16.264   4.966  13.556  0.00  0.00    -0.054 A 
ATOM     15  H   84A d   1      16.559   2.907  14.149  0.00  0.00     0.086 H 
ATOM     16  H   84A d   1      16.768   4.833  12.599  0.00  0.00     0.087 H 
BRANCH  11  17
ATOM     17  S7  84A d   1      15.276   2.756  16.789  0.00  0.00     0.256 S 
ATOM     18  O8  84A d   1      13.780   2.774  16.821  0.00  0.00    -0.201 OA
ATOM     19  O9  84A d   1      15.891   3.006  18.096  0.00  0.00    -0.201 OA
BRANCH  17  20
ATOM     20  N10 84A d   1      15.827   1.414  16.175  0.00  0.00    -0.324 N 
ATOM     21  H   84A d   1      15.178   0.693  15.860  0.00  0.00     0.169 HD
ATOM     22  H   84A d   1      16.833   1.266  16.092  0.00  0.00     0.169 HD
ENDBRANCH  17  20
ENDBRANCH  11  17
ENDBRANCH   1   7
BRANCH   2  23
ATOM     23  C19 84A d   1      18.226   7.469  12.819  0.00  0.00    -0.032 C 
ATOM     24  C20 84A d   1      18.728   7.165  14.015  0.00  0.00     0.023 A 
ATOM     25  C21 84A d   1      20.010   6.845  13.861  0.00  0.00     0.004 A 
ATOM     26 FE1  84A d   1      19.717   8.760  13.494  0.00  0.00     0.000 Fe
ATOM     27  C22 84A d   1      20.307   6.943  12.564  0.00  0.00    -0.002 A 
ATOM     28  C23 84A d   1      19.202   7.320  11.922  0.00  0.00    -0.011 A 
ATOM     29  H   84A d   1      19.017   7.050  10.882  0.00  0.00     0.049 H 
ATOM     30  C14 84A d   1      19.147  10.810  13.256  0.00  0.00    -0.006 A 
ATOM     31  C15 84A d   1      19.247  10.491  14.547  0.00  0.00    -0.001 A 
ATOM     32  C16 84A d   1      20.508  10.151  14.787  0.00  0.00    -0.001 A 
ATOM     33  C17 84A d   1      21.190  10.251  13.646  0.00  0.00    -0.006 A 
ATOM     34  C18 84A d   1      20.346  10.659  12.700  0.00  0.00    -0.030 A 
ATOM     35  H   84A d   1      20.663  11.267  11.853  0.00  0.00     0.043 H 
ENDBRANCH   2  23
TORSDOF 5
