REMARK  5 active torsions:
REMARK  status: ('A' for Active; 'I' for Inactive)
REMARK    1  A    between atoms: C3_3  and  S7_7 
REMARK    2  A    between atoms: N11_11  and  C6_6 
REMARK    3  A    between atoms: S7_7  and  N10_10 
REMARK    4  A    between atoms: C19_21  and  C12_12 
REMARK    5  A    between atoms: C18_20  and  C17_19 
ROOT
ATOM      1  N11 498 d   1      15.896   7.217  13.146  0.00  0.00    -0.214 N 
ATOM      2  C12 498 d   1      17.030   7.772  12.724  0.00  0.00     0.084 A 
ATOM      3  C13 498 d   1      16.636   8.781  11.948  0.00  0.00     0.053 A 
ATOM      4  N14 498 d   1      15.298   8.765  11.958  0.00  0.00    -0.142 NA
ATOM      5  N15 498 d   1      14.924   7.829  12.678  0.00  0.00    -0.061 NA
ATOM      6  H   498 d   1      17.277   9.481  11.411  0.00  0.00     0.121 H 
ENDROOT
BRANCH   1   7
ATOM      7  C6  498 d   1      15.744   6.151  13.965  0.00  0.00     0.060 A 
ATOM      8  C1  498 d   1      15.100   6.328  15.190  0.00  0.00    -0.054 A 
ATOM      9  C2  498 d   1      14.957   5.265  16.084  0.00  0.00    -0.058 A 
ATOM     10  H   498 d   1      14.703   7.309  15.453  0.00  0.00     0.087 H 
ATOM     11  C3  498 d   1      15.463   4.005  15.755  0.00  0.00     0.079 A 
ATOM     12  H   498 d   1      14.451   5.418  17.037  0.00  0.00     0.086 H 
ATOM     13  C4  498 d   1      16.107   3.799  14.533  0.00  0.00    -0.058 A 
ATOM     14  C5  498 d   1      16.243   4.871  13.647  0.00  0.00    -0.054 A 
ATOM     15  H   498 d   1      16.498   2.815  14.274  0.00  0.00     0.086 H 
ATOM     16  H   498 d   1      16.744   4.715  12.692  0.00  0.00     0.087 H 
BRANCH  11  17
ATOM     17  S7  498 d   1      15.262   2.737  16.923  0.00  0.00     0.256 S 
ATOM     18  O8  498 d   1      13.767   2.675  16.946  0.00  0.00    -0.201 OA
ATOM     19  O9  498 d   1      15.886   3.047  18.213  0.00  0.00    -0.201 OA
BRANCH  17  20
ATOM     20  N10 498 d   1      15.904   1.418  16.349  0.00  0.00    -0.324 N 
ATOM     21  H   498 d   1      15.306   0.649  16.046  0.00  0.00     0.169 HD
ATOM     22  H   498 d   1      16.918   1.333  16.280  0.00  0.00     0.169 HD
ENDBRANCH  17  20
ENDBRANCH  11  17
ENDBRANCH   1   7
BRANCH   2  23
ATOM     23  C19 498 d   1      18.339   7.395  13.027  0.00  0.00    -0.026 C 
ATOM     24  C20 498 d   1      18.773   7.146  14.266  0.00  0.00     0.024 A 
ATOM     25  C21 498 d   1      20.066   6.833  14.203  0.00  0.00     0.005 A 
ATOM     26 RU1  498 d   1      19.870   9.016  13.545  0.00  0.00     0.000 Ru
ATOM     27  C22 498 d   1      20.438   6.888  12.920  0.00  0.00     0.005 A 
ATOM     28  C23 498 d   1      19.374   7.236  12.195  0.00  0.00     0.024 A 
ATOM     29  C14 498 d   1      19.320  11.232  13.386  0.00  0.00     0.000 A 
ATOM     30  C15 498 d   1      19.750  11.026  14.635  0.00  0.00     0.000 A 
ATOM     31  C16 498 d   1      21.036  10.696  14.573  0.00  0.00     0.000 A 
ATOM     32  C17 498 d   1      21.410  10.689  13.291  0.00  0.00     0.000 A 
ATOM     33  C18 498 d   1      20.345  11.024  12.559  0.00  0.00     0.000 A 
ENDBRANCH   2  23
TORSDOF 5
