REMARK  5 active torsions:
REMARK  status: ('A' for Active; 'I' for Inactive)
REMARK    1  A    between atoms: CAJ_10  and  CAA_1 
REMARK    2  A    between atoms: OAN_14  and  CAJ_10 
REMARK    3  A    between atoms: CAQ_17  and  OAN_14 
REMARK    4  A    between atoms: CAR_18  and  CAP_16 
REMARK    5  A    between atoms: CAS_19  and  CAT_20 
ROOT
ATOM      1  CAB 3M4 d   1      -1.065   1.022  -1.122  0.00  0.00    -0.080 A 
ATOM      2  CAC 3M4 d   1      -1.756   1.610  -2.177  0.00  0.00    -0.082 A 
ATOM      3  CAF 3M4 d   1      -0.053   0.110  -1.357  0.00  0.00    -0.050 A 
ATOM      4  CAG 3M4 d   1      -1.361   1.239  -3.459  0.00  0.00    -0.066 A 
ATOM      5  CAQ 3M4 d   1       0.341  -0.236  -2.630  0.00  0.00     0.083 A 
ATOM      6  CAS 3M4 d   1      -0.336   0.344  -3.675  0.00  0.00     0.053 A 
ATOM      7  H4  3M4 d   1      -1.324   1.283  -0.102  0.00  0.00     0.083 H 
ATOM      8  H5  3M4 d   1      -2.559   2.319  -2.009  0.00  0.00     0.083 H 
ATOM      9  H8  3M4 d   1       0.447  -0.348  -0.511  0.00  0.00     0.087 H 
ATOM     10  H9  3M4 d   1      -1.875   1.667  -4.312  0.00  0.00     0.085 H 
ENDROOT
BRANCH   6  11
ATOM     11  CAT 3M4 d   1      -0.081   0.072  -4.986  0.00  0.00     0.209 A 
ATOM     12  NAM 3M4 d   1      -0.349   0.924  -5.937  0.00  0.00    -0.199 NA
ATOM     13  CAR 3M4 d   1       0.021   0.356  -7.049  0.00  0.00     0.189 A 
ATOM     14  NAL 3M4 d   1       0.429  -0.901  -6.850  0.00  0.00    -0.105 NA
ATOM     15  OAO 3M4 d   1       0.394  -1.102  -5.494  0.00  0.00    -0.190 OA
BRANCH  13  16
ATOM     16  CAP 3M4 d   1      -0.207   1.021  -8.215  0.00  0.00     0.017 A 
ATOM     17  CAH 3M4 d   1       0.151   2.318  -8.546  0.00  0.00    -0.052 A 
ATOM     18  CAD 3M4 d   1      -0.180   2.957  -9.742  0.00  0.00     0.003 A 
ATOM     19  H10 3M4 d   1       0.732   2.878  -7.822  0.00  0.00     0.087 H 
ATOM     20  NAK 3M4 d   1      -0.865   2.302 -10.579  0.00  0.00    -0.273 NA
ATOM     21  H6  3M4 d   1       0.137   3.974  -9.945  0.00  0.00     0.114 H 
ATOM     22  CAE 3M4 d   1      -1.261   1.074 -10.209  0.00  0.00     0.003 A 
ATOM     23  CAI 3M4 d   1      -0.947   0.308  -9.084  0.00  0.00    -0.052 A 
ATOM     24  H7  3M4 d   1      -1.942   0.594 -10.903  0.00  0.00     0.114 H 
ATOM     25  H11 3M4 d   1      -1.257  -0.720  -8.932  0.00  0.00     0.087 H 
ENDBRANCH  13  16
ENDBRANCH   6  11
BRANCH   5  26
ATOM     26  OAN 3M4 d   1       1.338  -1.136  -2.713  0.00  0.00    -0.350 OA
BRANCH  26  27
ATOM     27  CAJ 3M4 d   1       2.095  -1.574  -3.810  0.00  0.00     0.023 C 
ATOM     28  H12 3M4 d   1       1.512  -2.209  -4.493  0.00  0.00     0.074 H 
ATOM     29  H13 3M4 d   1       2.538  -0.739  -4.373  0.00  0.00     0.074 H 
BRANCH  27  30
ATOM     30  CAA 3M4 d   1       3.167  -2.387  -3.010  0.00  0.00    -0.056 C 
ATOM     31  H1  3M4 d   1       3.888  -2.832  -3.711  0.00  0.00     0.030 H 
ATOM     32  H2  3M4 d   1       2.671  -3.185  -2.438  0.00  0.00     0.030 H 
ATOM     33  H3  3M4 d   1       3.696  -1.715  -2.318  0.00  0.00     0.030 H 
ENDBRANCH  27  30
ENDBRANCH  26  27
ENDBRANCH   5  26
TORSDOF 5
