REMARK  5 active torsions:
REMARK  status: ('A' for Active; 'I' for Inactive)
REMARK    1  A    between atoms: CAP_16  and  CAF_6 
REMARK    2  A    between atoms: NAG_7  and  CAH_8 
REMARK    3  A    between atoms: CAI_9  and  SAJ_10 
REMARK    4  A    between atoms: SAJ_10  and  NAK_11 
REMARK    5  A    between atoms: CAY_25  and  CAX_24 
ROOT
ATOM      1  NAA 067 d   1      17.315   8.567  12.217  0.00  0.00    -0.130 NA
ATOM      2  NAB 067 d   1      16.712   7.707  12.861  0.00  0.00    -0.061 NA
ATOM      3  CAF 067 d   1      18.577   8.509  12.624  0.00  0.00     0.102 A 
ATOM      4  NAG 067 d   1      17.459   7.109  13.640  0.00  0.00    -0.225 N 
ATOM      5  CAL 067 d   1      18.702   7.577  13.559  0.00  0.00     0.036 A 
ATOM      6  H   067 d   1      19.589   7.274  14.115  0.00  0.00     0.118 H 
ENDROOT
BRANCH   4   7
ATOM      7  CAH 067 d   1      17.012   6.120  14.408  0.00  0.00     0.059 A 
ATOM      8  CAC 067 d   1      17.871   5.097  14.789  0.00  0.00    -0.054 A 
ATOM      9  CAD 067 d   1      17.406   4.051  15.579  0.00  0.00    -0.058 A 
ATOM     10  H   067 d   1      18.913   5.114  14.468  0.00  0.00     0.087 H 
ATOM     11  CAI 067 d   1      16.077   4.027  15.985  0.00  0.00     0.079 A 
ATOM     12  H   067 d   1      18.083   3.251  15.879  0.00  0.00     0.086 H 
ATOM     13  CAN 067 d   1      15.218   5.053  15.609  0.00  0.00    -0.058 A 
ATOM     14  CAM 067 d   1      15.685   6.100  14.822  0.00  0.00    -0.054 A 
ATOM     15  H   067 d   1      14.177   5.037  15.931  0.00  0.00     0.086 H 
ATOM     16  H   067 d   1      15.011   6.905  14.530  0.00  0.00     0.087 H 
BRANCH  11  17
ATOM     17  SAJ 067 d   1      15.492   2.710  16.977  0.00  0.00     0.256 S 
ATOM     18  OAE 067 d   1      13.994   2.755  17.024  0.00  0.00    -0.201 OA
ATOM     19  OAO 067 d   1      16.036   2.843  18.368  0.00  0.00    -0.201 OA
BRANCH  17  20
ATOM     20  NAK 067 d   1      15.973   1.292  16.335  0.00  0.00    -0.324 N 
ATOM     21  H   067 d   1      15.280   0.604  16.040  0.00  0.00     0.169 HD
ATOM     22  H   067 d   1      16.967   1.092  16.228  0.00  0.00     0.169 HD
ENDBRANCH  17  20
ENDBRANCH  11  17
ENDBRANCH   4   7
BRANCH   3  23
ATOM     23  CAP 067 d   1      19.571   9.249  12.139  0.00  0.00    -0.024 C 
ATOM     24  CAQ 067 d   1      20.866   9.087  12.396  0.00  0.00     0.024 A 
ATOM     25  CAR 067 d   1      21.541   9.985  11.683  0.00  0.00     0.005 A 
ATOM     26 RU   067 d   1      20.283  11.150  13.200  0.00  0.00     0.000 Ru
ATOM     27  CAS 067 d   1      20.664  10.702  10.987  0.00  0.00     0.005 A 
ATOM     28  CAT 067 d   1      19.446  10.248  11.269  0.00  0.00     0.024 A 
ATOM     29  CAU 067 d   1      19.300  11.843  15.150  0.00  0.00     0.000 A 
ATOM     30  CAV 067 d   1      19.178  12.841  14.280  0.00  0.00     0.000 A 
ATOM     31  CAW 067 d   1      20.398  13.292  14.001  0.00  0.00     0.000 A 
ATOM     32  CAX 067 d   1      21.273  12.573  14.698  0.00  0.00     0.000 A 
ATOM     33  CAY 067 d   1      20.594  11.676  15.408  0.00  0.00     0.000 A 
ENDBRANCH   3  23
TORSDOF 5
