REMARK WARNING: 32 MAX_TORS EXCEEDED!!!
REMARK  43 active torsions:
REMARK  status: ('A' for Active; 'I' for Inactive)
REMARK    1  A    between atoms: N_1  and  CA_2 
REMARK    2  A    between atoms: CA_2  and  C_3 
REMARK    3  A    between atoms: CA_2  and  CB_5 
REMARK       I    between atoms: C_3  and  N_10 
REMARK    4  A    between atoms: CB_5  and  CG_6 
REMARK    5  A    between atoms: CG_6  and  CD_7 
REMARK    6  A    between atoms: N_10  and  CA_11 
REMARK    7  A    between atoms: CA_11  and  C_12 
REMARK    8  A    between atoms: CA_11  and  CB_14 
REMARK       I    between atoms: C_12  and  N_19 
REMARK    9  A    between atoms: CB_14  and  CG_15 
REMARK   10  A    between atoms: CG_15  and  CD_16 
REMARK   11  A    between atoms: N_19  and  CA_20 
REMARK   12  A    between atoms: CA_20  and  C_21 
REMARK   13  A    between atoms: CA_20  and  CB_23 
REMARK       I    between atoms: C_21  and  N_26 
REMARK   14  A    between atoms: CB_23  and  CG1_24 
REMARK   15  A    between atoms: CB_23  and  CG2_25 
REMARK   16  A    between atoms: N_26  and  CA_27 
REMARK   17  A    between atoms: CA_27  and  C_28 
REMARK   18  A    between atoms: CA_27  and  CB_30 
REMARK       I    between atoms: C_28  and  N_34 
REMARK   19  A    between atoms: CB_30  and  CG_31 
REMARK   20  A    between atoms: N_34  and  CA_35 
REMARK   21  A    between atoms: CA_35  and  C_36 
REMARK   22  A    between atoms: CA_35  and  CB_38 
REMARK       I    between atoms: C_36  and  N_41 
REMARK   23  A    between atoms: CB_38  and  CG1_39 
REMARK   24  A    between atoms: CB_38  and  CG2_40 
REMARK   25  A    between atoms: N_41  and  CA_42 
REMARK   26  A    between atoms: CA_42  and  C_43 
REMARK   27  A    between atoms: CA_42  and  CB_45 
REMARK       I    between atoms: C_43  and  N_48 
REMARK   28  A    between atoms: CB_45  and  OG1_46 
REMARK   29  A    between atoms: CB_45  and  CG2_47 
REMARK   30  A    between atoms: N_48  and  CA_49 
REMARK   31  A    between atoms: CA_49  and  C_50 
REMARK   32  A    between atoms: CA_49  and  CB_52 
REMARK       I    between atoms: C_50  and  N_54 
REMARK   33  A    between atoms: CB_52  and  OG_53 
REMARK   34  A    between atoms: N_54  and  CA_55 
REMARK   35  A    between atoms: CA_55  and  C_56 
REMARK   36  A    between atoms: CA_55  and  CB_58 
REMARK       I    between atoms: C_56  and  N_61 
REMARK   37  A    between atoms: CB_58  and  CG1_59 
REMARK   38  A    between atoms: CB_58  and  CG2_60 
REMARK   39  A    between atoms: N_61  and  CA_62 
REMARK   40  A    between atoms: CA_62  and  C_63 
REMARK   41  A    between atoms: CA_62  and  CB_65 
REMARK   42  A    between atoms: CB_65  and  CG_66 
REMARK   43  A    between atoms: CZ_71  and  OH_72 
ROOT
ATOM      1  CA  VAL d   1      11.155 -20.964  -1.646  0.00  0.00     0.092 C 
ATOM      2  H   VAL d   1      11.028 -21.932  -2.131  0.00  0.00     0.088 H 
ENDROOT
BRANCH   1   3
ATOM      3  N   VAL d   1      11.068 -21.092  -0.205  0.00  0.00    -0.346 N 
ATOM      4  C   ASP d   1      11.296 -22.193   0.498  0.00  0.00     0.241 C 
ATOM      5  O   ASP d   1      11.688 -23.251   0.000  0.00  0.00    -0.271 OA
ATOM      6  H   VAL d   1      10.807 -20.256   0.318  0.00  0.00     0.163 HD
BRANCH   4   7
ATOM      7  CA  ASP d   1      11.035 -22.058   2.003  0.00  0.00     0.098 C 
ATOM      8  H   ASP d   1      10.993 -21.005   2.280  0.00  0.00     0.088 H 
BRANCH   7   9
ATOM      9  N   ASP d   1       9.746 -22.688   2.296  0.00  0.00    -0.345 N 
ATOM     10  C   VAL d   1       8.635 -21.977   2.488  0.00  0.00     0.241 C 
ATOM     11  O   VAL d   1       8.640 -20.750   2.511  0.00  0.00    -0.271 OA
ATOM     12  H   ASP d   1       9.697 -23.705   2.355  0.00  0.00     0.163 HD
BRANCH  10  13
ATOM     13  CA  VAL d   1       7.313 -22.755   2.734  0.00  0.00     0.092 C 
ATOM     14  H   VAL d   1       7.568 -23.801   2.906  0.00  0.00     0.088 H 
BRANCH  13  15
ATOM     15  N   VAL d   1       6.630 -22.190   3.903  0.00  0.00    -0.346 N 
ATOM     16  C   GLU d   1       6.533 -22.730   5.127  0.00  0.00     0.241 C 
ATOM     17  O   GLU d   1       7.028 -23.814   5.437  0.00  0.00    -0.271 OA
ATOM     18  H   VAL d   1       6.178 -21.285   3.770  0.00  0.00     0.163 HD
BRANCH  16  19
ATOM     19  CA  GLU d   1       5.761 -21.903   6.152  0.00  0.00     0.090 C 
ATOM     20  H   GLU d   1       5.191 -21.188   5.559  0.00  0.00     0.087 H 
BRANCH  19  21
ATOM     21  N   GLU d   1       4.736 -22.635   6.909  0.00  0.00    -0.346 N 
ATOM     22  C   GLU d   1       3.597 -23.123   6.371  0.00  0.00     0.249 C 
ATOM     23  O   GLU d   1       3.319 -23.022   5.173  0.00  0.00    -0.271 OA
ATOM     24  H   GLU d   1       4.895 -22.784   7.905  0.00  0.00     0.163 HD
BRANCH  22  25
ATOM     25  CA  GLU d   1       2.618 -23.820   7.337  0.00  0.00     0.176 C 
ATOM     26  H   GLU d   1       3.176 -24.157   8.211  0.00  0.00     0.099 H 
BRANCH  25  27
ATOM     27  N   GLU d   1       1.588 -22.873   7.776  0.00  0.00    -0.066 N 
ATOM     28  H   GLU d   1       2.034 -22.059   8.199  0.00  0.00     0.275 HD
ATOM     29  H   GLU d   1       1.034 -22.578   6.972  0.00  0.00     0.275 HD
ATOM     30  H   GLU d   1       0.982 -23.325   8.461  0.00  0.00     0.275 HD
ENDBRANCH  25  27
BRANCH  25  31
ATOM     31  CB  GLU d   1       1.985 -25.071   6.688  0.00  0.00    -0.021 C 
ATOM     32  H   GLU d   1       2.807 -25.692   6.333  0.00  0.00     0.037 H 
ATOM     33  H   GLU d   1       1.310 -24.715   5.910  0.00  0.00     0.037 H 
BRANCH  31  34
ATOM     34  CG  GLU d   1       1.156 -25.933   7.632  0.00  0.00     0.018 C 
ATOM     35  H   GLU d   1       0.657 -25.239   8.309  0.00  0.00     0.049 H 
ATOM     36  H   GLU d   1       1.853 -26.642   8.078  0.00  0.00     0.049 H 
BRANCH  34  37
ATOM     37  CD  GLU d   1       0.051 -26.772   7.007  0.00  0.00     0.172 C 
ATOM     38  OE1 GLU d   1      -0.239 -26.601   5.800  0.00  0.00    -0.648 OA
ATOM     39  OE2 GLU d   1      -0.555 -27.580   7.747  0.00  0.00    -0.648 OA
ENDBRANCH  34  37
ENDBRANCH  31  34
ENDBRANCH  25  31
ENDBRANCH  22  25
ENDBRANCH  19  21
BRANCH  19  40
ATOM     40  CB  GLU d   1       6.715 -21.131   7.079  0.00  0.00    -0.029 C 
ATOM     41  H   GLU d   1       7.553 -20.786   6.473  0.00  0.00     0.037 H 
ATOM     42  H   GLU d   1       7.008 -21.806   7.883  0.00  0.00     0.037 H 
BRANCH  40  43
ATOM     43  CG  GLU d   1       6.079 -19.903   7.722  0.00  0.00     0.018 C 
ATOM     44  H   GLU d   1       5.951 -20.145   8.777  0.00  0.00     0.049 H 
ATOM     45  H   GLU d   1       5.168 -19.703   7.158  0.00  0.00     0.049 H 
BRANCH  43  46
ATOM     46  CD  GLU d   1       6.894 -18.621   7.678  0.00  0.00     0.172 C 
ATOM     47  OE1 GLU d   1       6.305 -17.544   7.927  0.00  0.00    -0.648 OA
ATOM     48  OE2 GLU d   1       8.113 -18.686   7.395  0.00  0.00    -0.648 OA
ENDBRANCH  43  46
ENDBRANCH  40  43
ENDBRANCH  19  40
ENDBRANCH  16  19
ENDBRANCH  13  15
BRANCH  13  49
ATOM     49  CB  VAL d   1       6.362 -22.693   1.504  0.00  0.00    -0.033 C 
ATOM     50  H   VAL d   1       6.171 -21.638   1.306  0.00  0.00     0.042 H 
BRANCH  49  51
ATOM     51  CG1 VAL d   1       7.000 -23.300   0.269  0.00  0.00    -0.071 C 
ATOM     52  H   VAL d   1       7.911 -22.753   0.026  0.00  0.00     0.028 H 
ATOM     53  H   VAL d   1       7.242 -24.345   0.463  0.00  0.00     0.028 H 
ATOM     54  H   VAL d   1       6.303 -23.237  -0.567  0.00  0.00     0.028 H 
ENDBRANCH  49  51
BRANCH  49  55
ATOM     55  CG2 VAL d   1       5.039 -23.384   1.795  0.00  0.00    -0.071 C 
ATOM     56  H   VAL d   1       5.223 -24.430   2.040  0.00  0.00     0.028 H 
ATOM     57  H   VAL d   1       4.551 -22.893   2.637  0.00  0.00     0.028 H 
ATOM     58  H   VAL d   1       4.398 -23.323   0.916  0.00  0.00     0.028 H 
ENDBRANCH  49  55
ENDBRANCH  13  49
ENDBRANCH  10  13
ENDBRANCH   7   9
BRANCH   7  59
ATOM     59  CB  ASP d   1      12.188 -22.650   2.845  0.00  0.00     0.043 C 
ATOM     60  H   ASP d   1      12.402 -23.639   2.440  0.00  0.00     0.052 H 
ATOM     61  H   ASP d   1      11.857 -22.646   3.884  0.00  0.00     0.052 H 
BRANCH  59  62
ATOM     62  CG  ASP d   1      13.493 -21.854   2.789  0.00  0.00     0.175 C 
ATOM     63  OD1 ASP d   1      13.786 -21.243   1.720  0.00  0.00    -0.648 OA
ATOM     64  OD2 ASP d   1      14.242 -21.869   3.793  0.00  0.00    -0.648 OA
ENDBRANCH  59  62
ENDBRANCH   7  59
ENDBRANCH   4   7
ENDBRANCH   1   3
BRANCH   1  65
ATOM     65  C   VAL d   1      12.561 -20.587  -2.186  0.00  0.00     0.241 C 
ATOM     66  O   VAL d   1      12.832 -20.803  -3.363  0.00  0.00    -0.271 OA
ATOM     67  N   THR d   1      13.467 -20.106  -1.307  0.00  0.00    -0.344 N 
ATOM     68  H   THR d   1      13.200 -20.078  -0.323  0.00  0.00     0.163 HD
BRANCH  67  69
ATOM     69  CA  THR d   1      14.811 -19.619  -1.662  0.00  0.00     0.113 C 
ATOM     70  H   THR d   1      14.800 -19.587  -2.752  0.00  0.00     0.091 H 
BRANCH  69  71
ATOM     71  C   THR d   1      15.991 -20.516  -1.276  0.00  0.00     0.243 C 
ATOM     72  O   THR d   1      17.036 -20.481  -1.957  0.00  0.00    -0.271 OA
ATOM     73  N   SER d   1      15.866 -21.244  -0.146  0.00  0.00    -0.344 N 
ATOM     74  H   SER d   1      14.988 -21.229   0.373  0.00  0.00     0.163 HD
BRANCH  73  75
ATOM     75  CA  SER d   1      16.982 -22.054   0.337  0.00  0.00     0.109 C 
ATOM     76  H   SER d   1      17.839 -21.391   0.219  0.00  0.00     0.090 H 
BRANCH  75  77
ATOM     77  C   SER d   1      17.289 -23.268  -0.484  0.00  0.00     0.243 C 
ATOM     78  O   SER d   1      16.445 -24.161  -0.671  0.00  0.00    -0.271 OA
ATOM     79  N   VAL d   1      18.539 -23.282  -0.958  0.00  0.00    -0.346 N 
ATOM     80  H   VAL d   1      19.116 -22.462  -0.772  0.00  0.00     0.163 HD
BRANCH  79  81
ATOM     81  CA  VAL d   1      19.144 -24.356  -1.710  0.00  0.00     0.092 C 
ATOM     82  H   VAL d   1      18.434 -24.862  -2.364  0.00  0.00     0.088 H 
BRANCH  81  83
ATOM     83  C   VAL d   1      19.695 -25.357  -0.680  0.00  0.00     0.241 C 
ATOM     84  O   VAL d   1      20.300 -24.945   0.311  0.00  0.00    -0.271 OA
ATOM     85  N   TYR d   1      19.461 -26.664  -0.915  0.00  0.00    -0.344 N 
ATOM     86  H   TYR d   1      18.880 -26.893  -1.721  0.00  0.00     0.163 HD
BRANCH  85  87
ATOM     87  CA  TYR d   1      19.965 -27.785  -0.118  0.00  0.00     0.100 C 
ATOM     88  H   TYR d   1      21.028 -27.585   0.015  0.00  0.00     0.090 H 
BRANCH  87  89
ATOM     89  C   TYR d   1      19.835 -29.118  -0.857  0.00  0.00     0.197 C 
ATOM     90  O   TYR d   1      20.730 -29.976  -0.683  0.00  0.00    -0.646 OA
ATOM     91  OXT TYR d   1      18.878 -29.266  -1.653  0.00  0.00    -0.646 OA
ENDBRANCH  87  89
BRANCH  87  92
ATOM     92  CB  TYR d   1      19.393 -27.853   1.311  0.00  0.00    -0.013 C 
ATOM     93  H   TYR d   1      19.615 -26.892   1.774  0.00  0.00     0.043 H 
ATOM     94  H   TYR d   1      19.845 -28.727   1.779  0.00  0.00     0.043 H 
BRANCH  92  95
ATOM     95  CG  TYR d   1      17.900 -28.040   1.422  0.00  0.00    -0.056 A 
ATOM     96  CD1 TYR d   1      17.335 -29.315   1.421  0.00  0.00    -0.074 A 
ATOM     97  CE1 TYR d   1      15.963 -29.500   1.582  0.00  0.00    -0.051 A 
ATOM     98  H   TYR d   1      17.980 -30.184   1.292  0.00  0.00     0.084 H 
ATOM     99  CZ  TYR d   1      15.143 -28.403   1.801  0.00  0.00     0.065 A 
ATOM    100  H   TYR d   1      15.536 -30.502   1.536  0.00  0.00     0.087 H 
ATOM    101  CE2 TYR d   1      15.690 -27.130   1.863  0.00  0.00    -0.051 A 
ATOM    102  CD2 TYR d   1      17.062 -26.957   1.673  0.00  0.00    -0.074 A 
ATOM    103  H   TYR d   1      15.052 -26.269   2.059  0.00  0.00     0.087 H 
ATOM    104  H   TYR d   1      17.486 -25.954   1.722  0.00  0.00     0.084 H 
BRANCH  99 105
ATOM    105  OH  TYR d   1      13.788 -28.572   1.954  0.00  0.00    -0.361 OA
ATOM    106  H   TYR d   1      13.326 -28.085   1.268  0.00  0.00     0.217 HD
ENDBRANCH  99 105
ENDBRANCH  92  95
ENDBRANCH  87  92
ENDBRANCH  85  87
ENDBRANCH  81  83
BRANCH  81 107
ATOM    107  CB  VAL d   1      20.255 -23.774  -2.609  0.00  0.00    -0.033 C 
ATOM    108  H   VAL d   1      20.993 -23.311  -1.954  0.00  0.00     0.042 H 
BRANCH 107 109
ATOM    109  CG1 VAL d   1      20.969 -24.858  -3.403  0.00  0.00    -0.071 C 
ATOM    110  H   VAL d   1      21.424 -25.570  -2.715  0.00  0.00     0.028 H 
ATOM    111  H   VAL d   1      20.250 -25.374  -4.039  0.00  0.00     0.028 H 
ATOM    112  H   VAL d   1      21.743 -24.403  -4.022  0.00  0.00     0.028 H 
ENDBRANCH 107 109
BRANCH 107 113
ATOM    113  CG2 VAL d   1      19.695 -22.706  -3.537  0.00  0.00    -0.071 C 
ATOM    114  H   VAL d   1      18.924 -23.145  -4.170  0.00  0.00     0.028 H 
ATOM    115  H   VAL d   1      19.264 -21.900  -2.943  0.00  0.00     0.028 H 
ATOM    116  H   VAL d   1      20.497 -22.311  -4.160  0.00  0.00     0.028 H 
ENDBRANCH 107 113
ENDBRANCH  81 107
ENDBRANCH  79  81
ENDBRANCH  75  77
BRANCH  75 117
ATOM    117  CB  SER d   1      16.855 -22.420   1.811  0.00  0.00     0.044 C 
ATOM    118  H   SER d   1      17.794 -22.866   2.139  0.00  0.00     0.077 H 
ATOM    119  H   SER d   1      16.023 -23.115   1.924  0.00  0.00     0.077 H 
BRANCH 117 120
ATOM    120  OG  SER d   1      16.598 -21.277   2.609  0.00  0.00    -0.398 OA
ATOM    121  H   SER d   1      15.777 -20.868   2.325  0.00  0.00     0.209 HD
ENDBRANCH 117 120
ENDBRANCH  75 117
ENDBRANCH  73  75
ENDBRANCH  69  71
BRANCH  69 122
ATOM    122  CB  THR d   1      15.043 -18.253  -1.000  0.00  0.00     0.060 C 
ATOM    123  H   THR d   1      16.087 -17.979  -1.154  0.00  0.00     0.086 H 
BRANCH 122 124
ATOM    124  OG1 THR d   1      14.756 -18.354   0.407  0.00  0.00    -0.393 OA
ATOM    125  H   THR d   1      15.336 -19.008   0.805  0.00  0.00     0.210 HD
ENDBRANCH 122 124
BRANCH 122 126
ATOM    126  CG2 THR d   1      14.210 -17.168  -1.620  0.00  0.00    -0.050 C 
ATOM    127  H   THR d   1      14.461 -17.078  -2.677  0.00  0.00     0.031 H 
ATOM    128  H   THR d   1      13.154 -17.418  -1.516  0.00  0.00     0.031 H 
ATOM    129  H   THR d   1      14.412 -16.223  -1.115  0.00  0.00     0.031 H 
ENDBRANCH 122 126
ENDBRANCH  69 122
ENDBRANCH  67  69
ENDBRANCH   1  65
BRANCH   1 130
ATOM    130  CB  VAL d   1       9.998 -20.012  -2.053  0.00  0.00    -0.033 C 
ATOM    131  H   VAL d   1       9.628 -19.574  -1.126  0.00  0.00     0.042 H 
BRANCH 130 132
ATOM    132  CG1 VAL d   1      10.444 -18.821  -2.892  0.00  0.00    -0.071 C 
ATOM    133  H   VAL d   1      11.165 -18.230  -2.327  0.00  0.00     0.028 H 
ATOM    134  H   VAL d   1      10.906 -19.179  -3.812  0.00  0.00     0.028 H 
ATOM    135  H   VAL d   1       9.578 -18.205  -3.135  0.00  0.00     0.028 H 
ENDBRANCH 130 132
BRANCH 130 136
ATOM    136  CG2 VAL d   1       8.855 -20.775  -2.690  0.00  0.00    -0.071 C 
ATOM    137  H   VAL d   1       9.214 -21.286  -3.583  0.00  0.00     0.028 H 
ATOM    138  H   VAL d   1       8.469 -21.507  -1.981  0.00  0.00     0.028 H 
ATOM    139  H   VAL d   1       8.062 -20.078  -2.963  0.00  0.00     0.028 H 
ENDBRANCH 130 136
ENDBRANCH   1 130
TORSDOF 43
