REMARK  3 active torsions:
REMARK  status: ('A' for Active; 'I' for Inactive)
REMARK    1  A    between atoms: C2_7  and  C1_6 
REMARK    2  A    between atoms: C3_8  and  C2_7 
REMARK    3  A    between atoms: C3_8  and  C4_9 
ROOT
ATOM      1  C2  OAA d   1      17.643  35.993 -14.864  0.00  0.00     0.061 C 
ATOM      2  H   OAA d   1      18.070  34.992 -14.925  0.00  0.00     0.054 H 
ATOM      3  H   OAA d   1      18.436  36.731 -14.742  0.00  0.00     0.054 H 
ENDROOT
BRANCH   1   4
ATOM      4  C1  OAA d   1      16.715  36.064 -13.682  0.00  0.00     0.176 C 
ATOM      5  O1  OAA d   1      15.676  36.871 -13.693  0.00  0.00    -0.648 OA
ATOM      6  O2  OAA d   1      16.995  35.304 -12.651  0.00  0.00    -0.648 OA
ENDBRANCH   1   4
BRANCH   1   7
ATOM      7  C3  OAA d   1      16.888  36.285 -16.130  0.00  0.00     0.237 C 
ATOM      8  O3  OAA d   1      15.740  35.707 -16.368  0.00  0.00    -0.212 OA
BRANCH   7   9
ATOM      9  C4  OAA d   1      17.513  37.271 -17.090  0.00  0.00     0.217 C 
ATOM     10  O4  OAA d   1      18.340  36.838 -18.012  0.00  0.00    -0.646 OA
ATOM     11  O5  OAA d   1      17.210  38.539 -16.982  0.00  0.00    -0.646 OA
ENDBRANCH   7   9
ENDBRANCH   1   7
TORSDOF 3
