REMARK  4 active torsions:
REMARK  status: ('A' for Active; 'I' for Inactive)
REMARK    1  A    between atoms: C1_1  and  C2_2 
REMARK    2  A    between atoms: C2_2  and  C3_3 
REMARK    3  A    between atoms: C3_3  and  C4_4 
REMARK    4  A    between atoms: C4_4  and  C5_5 
ROOT
ATOM      1  C3  GUA d   1      15.534  37.183 -14.677  0.00  0.00    -0.047 C 
ATOM      2  H   GUA d   1      15.880  38.212 -14.580  0.00  0.00     0.034 H 
ATOM      3  H   GUA d   1      14.460  37.152 -14.862  0.00  0.00     0.034 H 
ENDROOT
BRANCH   1   4
ATOM      4  C2  GUA d   1      15.831  36.441 -13.382  0.00  0.00     0.016 C 
ATOM      5  H   GUA d   1      16.907  36.489 -13.212  0.00  0.00     0.049 H 
ATOM      6  H   GUA d   1      15.252  36.913 -12.589  0.00  0.00     0.049 H 
BRANCH   4   7
ATOM      7  C1  GUA d   1      15.435  34.971 -13.432  0.00  0.00     0.172 C 
ATOM      8  O1  GUA d   1      14.303  34.643 -13.881  0.00  0.00    -0.648 OA
ATOM      9  O2  GUA d   1      16.258  34.131 -12.985  0.00  0.00    -0.648 OA
ENDBRANCH   4   7
ENDBRANCH   1   4
BRANCH   1  10
ATOM     10  C4  GUA d   1      16.255  36.529 -15.853  0.00  0.00     0.016 C 
ATOM     11  H   GUA d   1      15.656  35.692 -16.212  0.00  0.00     0.049 H 
ATOM     12  H   GUA d   1      17.235  36.187 -15.520  0.00  0.00     0.049 H 
BRANCH  10  13
ATOM     13  C5  GUA d   1      16.440  37.517 -16.983  0.00  0.00     0.172 C 
ATOM     14  O3  GUA d   1      16.177  38.723 -16.814  0.00  0.00    -0.648 OA
ATOM     15  O4  GUA d   1      16.857  37.096 -18.078  0.00  0.00    -0.648 OA
ENDBRANCH  10  13
ENDBRANCH   1  10
TORSDOF 4
