REMARK  3 active torsions:
REMARK  status: ('A' for Active; 'I' for Inactive)
REMARK    1  A    between atoms: OAG_7  and  CAH_8 
REMARK    2  A    between atoms: CAI_9  and  OAG_7 
REMARK    3  A    between atoms: CAI_9  and  CAJ_10 
ROOT
ATOM      1  FAC DSF d   1      46.695  -9.620  46.655  0.00  0.00    -0.210 F 
ATOM      2  CAI DSF d   1      46.996  -8.994  45.507  0.00  0.00     0.268 C 
ATOM      3  H   DSF d   1      48.047  -8.742  45.367  0.00  0.00     0.152 H 
ENDROOT
BRANCH   2   4
ATOM      4  OAG DSF d   1      46.356  -7.705  45.463  0.00  0.00    -0.288 OA
BRANCH   4   5
ATOM      5  CAH DSF d   1      47.032  -6.804  46.354  0.00  0.00     0.308 C 
ATOM      6  FAA DSF d   1      47.942  -6.133  45.645  0.00  0.00    -0.184 F 
ATOM      7  FAB DSF d   1      47.790  -7.435  47.270  0.00  0.00    -0.184 F 
ATOM      8  H   DSF d   1      46.253  -6.207  46.828  0.00  0.00     0.194 H 
ENDBRANCH   4   5
ENDBRANCH   2   4
BRANCH   2   9
ATOM      9  CAJ DSF d   1      46.560 -10.004  44.434  0.00  0.00     0.442 C 
ATOM     10  FAD DSF d   1      47.509 -10.899  44.287  0.00  0.00    -0.166 F 
ATOM     11  FAE DSF d   1      45.414 -10.600  44.754  0.00  0.00    -0.166 F 
ATOM     12  FAF DSF d   1      46.376  -9.419  43.265  0.00  0.00    -0.166 F 
ENDBRANCH   2   9
TORSDOF 3
