REMARK  7 active torsions:
REMARK  status: ('A' for Active; 'I' for Inactive)
REMARK    1  A    between atoms: O1_1  and  C1_2 
REMARK    2  A    between atoms: C2_3  and  C7_6 
REMARK    3  A    between atoms: C6_4  and  C10_9 
REMARK    4  A    between atoms: C7_6  and  C8_10 
REMARK    5  A    between atoms: C7_6  and  C9_11 
REMARK    6  A    between atoms: C10_9  and  C11_12 
REMARK    7  A    between atoms: C10_9  and  C12_13 
ROOT
ATOM      1  C1  PFL d   1      46.320  -5.783  48.820  0.00  0.00     0.079 A 
ATOM      2  C2  PFL d   1      46.250  -5.567  50.270  0.00  0.00    -0.021 A 
ATOM      3  C6  PFL d   1      46.996  -6.964  48.235  0.00  0.00    -0.021 A 
ATOM      4  C3  PFL d   1      46.876  -6.578  51.120  0.00  0.00    -0.074 A 
ATOM      5  C4  PFL d   1      47.532  -7.728  50.566  0.00  0.00    -0.082 A 
ATOM      6  C5  PFL d   1      47.586  -7.910  49.152  0.00  0.00    -0.074 A 
ATOM      7  H   PFL d   1      46.844  -6.455  52.203  0.00  0.00     0.084 H 
ATOM      8  H   PFL d   1      47.990  -8.464  51.227  0.00  0.00     0.083 H 
ATOM      9  H   PFL d   1      48.088  -8.791  48.752  0.00  0.00     0.084 H 
ENDROOT
BRANCH   2  10
ATOM     10  C7  PFL d   1      45.499  -4.304  50.853  0.00  0.00    -0.033 C 
ATOM     11  H   PFL d   1      45.886  -3.397  50.389  0.00  0.00     0.046 H 
BRANCH  10  12
ATOM     12  C8  PFL d   1      43.941  -4.390  50.492  0.00  0.00    -0.069 C 
ATOM     13  H   PFL d   1      43.500  -5.251  50.994  0.00  0.00     0.028 H 
ATOM     14  H   PFL d   1      43.442  -3.479  50.824  0.00  0.00     0.028 H 
ATOM     15  H   PFL d   1      43.825  -4.498  49.414  0.00  0.00     0.028 H 
ENDBRANCH  10  12
BRANCH  10  16
ATOM     16  C9  PFL d   1      45.769  -4.151  52.350  0.00  0.00    -0.069 C 
ATOM     17  H   PFL d   1      45.298  -3.237  52.711  0.00  0.00     0.028 H 
ATOM     18  H   PFL d   1      45.356  -5.008  52.882  0.00  0.00     0.028 H 
ATOM     19  H   PFL d   1      46.844  -4.099  52.520  0.00  0.00     0.028 H 
ENDBRANCH  10  16
ENDBRANCH   2  10
BRANCH   1  20
ATOM     20  O1  PFL d   1      45.715  -4.819  48.068  0.00  0.00    -0.360 OA
ATOM     21  H   PFL d   1      46.130  -3.971  48.242  0.00  0.00     0.217 HD
ENDBRANCH   1  20
BRANCH   3  22
ATOM     22  C10 PFL d   1      47.101  -7.209  46.712  0.00  0.00    -0.033 C 
ATOM     23  H   PFL d   1      48.049  -6.739  46.451  0.00  0.00     0.046 H 
BRANCH  22  24
ATOM     24  C11 PFL d   1      47.033  -8.662  46.438  0.00  0.00    -0.069 C 
ATOM     25  H   PFL d   1      46.040  -9.032  46.693  0.00  0.00     0.028 H 
ATOM     26  H   PFL d   1      47.229  -8.841  45.381  0.00  0.00     0.028 H 
ATOM     27  H   PFL d   1      47.780  -9.179  47.040  0.00  0.00     0.028 H 
ENDBRANCH  22  24
BRANCH  22  28
ATOM     28  C12 PFL d   1      46.045  -6.580  45.847  0.00  0.00    -0.069 C 
ATOM     29  H   PFL d   1      46.258  -6.796  44.800  0.00  0.00     0.028 H 
ATOM     30  H   PFL d   1      45.070  -6.988  46.112  0.00  0.00     0.028 H 
ATOM     31  H   PFL d   1      46.044  -5.501  46.004  0.00  0.00     0.028 H 
ENDBRANCH  22  28
ENDBRANCH   3  22
TORSDOF 7
