REMARK  5 active torsions:
REMARK  status: ('A' for Active; 'I' for Inactive)
REMARK    1  A    between atoms: CAP_16  and  CAF_6 
REMARK    2  A    between atoms: NAG_7  and  CAH_8 
REMARK    3  A    between atoms: CAI_9  and  SAJ_10 
REMARK    4  A    between atoms: SAJ_10  and  NAK_11 
REMARK    5  A    between atoms: CAY_25  and  CAX_24 
ROOT
ATOM      1  NAA 670 d   1      17.395   8.666  12.259  0.00  0.00    -0.130 NA
ATOM      2  NAB 670 d   1      16.777   7.782  12.856  0.00  0.00    -0.061 NA
ATOM      3  CAF 670 d   1      18.647   8.598  12.696  0.00  0.00     0.102 A 
ATOM      4  NAG 670 d   1      17.505   7.157  13.630  0.00  0.00    -0.225 N 
ATOM      5  CAL 670 d   1      18.749   7.629  13.595  0.00  0.00     0.036 A 
ATOM      6  H   670 d   1      19.623   7.304  14.159  0.00  0.00     0.118 H 
ENDROOT
BRANCH   4   7
ATOM      7  CAH 670 d   1      17.033   6.153  14.364  0.00  0.00     0.059 A 
ATOM      8  CAC 670 d   1      17.864   5.092  14.706  0.00  0.00    -0.054 A 
ATOM      9  CAD 670 d   1      17.376   4.041  15.474  0.00  0.00    -0.058 A 
ATOM     10  H   670 d   1      18.901   5.084  14.371  0.00  0.00     0.087 H 
ATOM     11  CAI 670 d   1      16.053   4.046  15.900  0.00  0.00     0.079 A 
ATOM     12  H   670 d   1      18.031   3.212  15.742  0.00  0.00     0.086 H 
ATOM     13  CAN 670 d   1      15.221   5.107  15.561  0.00  0.00    -0.058 A 
ATOM     14  CAM 670 d   1      15.711   6.160  14.795  0.00  0.00    -0.054 A 
ATOM     15  H   670 d   1      14.184   5.114  15.896  0.00  0.00     0.086 H 
ATOM     16  H   670 d   1      15.057   6.992  14.532  0.00  0.00     0.087 H 
BRANCH  11  17
ATOM     17  SAJ 670 d   1      15.449   2.726  16.880  0.00  0.00     0.256 S 
ATOM     18  OAE 670 d   1      13.949   2.754  16.876  0.00  0.00    -0.201 OA
ATOM     19  OAO 670 d   1      15.952   2.875  18.285  0.00  0.00    -0.201 OA
BRANCH  17  20
ATOM     20  NAK 670 d   1      15.963   1.311  16.258  0.00  0.00    -0.324 N 
ATOM     21  H   670 d   1      15.286   0.617  15.943  0.00  0.00     0.169 HD
ATOM     22  H   670 d   1      16.962   1.119  16.184  0.00  0.00     0.169 HD
ENDBRANCH  17  20
ENDBRANCH  11  17
ENDBRANCH   4   7
BRANCH   3  23
ATOM     23  CAP 670 d   1      19.644   9.373  12.278  0.00  0.00    -0.030 C 
ATOM     24  CAQ 670 d   1      20.934   9.225  12.568  0.00  0.00     0.023 A 
ATOM     25  CAR 670 d   1      21.611  10.182  11.939  0.00  0.00     0.004 A 
ATOM     26 FE   670 d   1      20.305  11.048  13.260  0.00  0.00     0.000 Fe
ATOM     27  CAS 670 d   1      20.739  10.923  11.261  0.00  0.00    -0.002 A 
ATOM     28  CAT 670 d   1      19.524  10.423  11.470  0.00  0.00    -0.011 A 
ATOM     29  H   670 d   1      18.737  10.485  10.718  0.00  0.00     0.049 H 
ATOM     30  CAU 670 d   1      19.108  11.603  14.830  0.00  0.00    -0.006 A 
ATOM     31  CAV 670 d   1      19.331  12.664  14.060  0.00  0.00    -0.001 A 
ATOM     32  CAW 670 d   1      20.640  12.906  14.059  0.00  0.00    -0.001 A 
ATOM     33  CAX 670 d   1      21.226  11.992  14.828  0.00  0.00    -0.006 A 
ATOM     34  CAY 670 d   1      20.280  11.187  15.304  0.00  0.00    -0.030 A 
ATOM     35  H   670 d   1      20.369  10.704  16.277  0.00  0.00     0.043 H 
ENDBRANCH   3  23
TORSDOF 5
