REMARK  7 active torsions:
REMARK  status: ('A' for Active; 'I' for Inactive)
REMARK    1  A    between atoms: C2_2  and  C11_11 
REMARK    2  A    between atoms: C3_3  and  N10_10 
REMARK    3  A    between atoms: C5_5  and  C6_6 
REMARK    4  A    between atoms: C6_6  and  C7_7 
REMARK    5  A    between atoms: C6_6  and  C8_8 
REMARK    6  A    between atoms: C6_6  and  C9_9 
REMARK       I    between atoms: N10_10  and  C14_14 
REMARK       I    between atoms: C11_11  and  N13_13 
REMARK    7  A    between atoms: N15_15  and  C17_17 
ROOT
ATOM      1  C1  P5K d   1      49.388  27.334 -16.943  0.00  0.00    -0.051 A 
ATOM      2  C2  P5K d   1      50.599  28.037 -16.765  0.00  0.00     0.067 A 
ATOM      3  C3  P5K d   1      51.090  28.611 -17.958  0.00  0.00     0.093 A 
ATOM      4  S4  P5K d   1      49.889  28.289 -19.201  0.00  0.00    -0.075 SA
ATOM      5  C5  P5K d   1      48.869  27.324 -18.226  0.00  0.00    -0.007 A 
ATOM      6  H   P5K d   1      48.890  26.828 -16.116  0.00  0.00     0.086 H 
ENDROOT
BRANCH   3   7
ATOM      7  N10 P5K d   1      52.215  29.351 -18.084  0.00  0.00    -0.313 N 
ATOM      8  C14 P5K d   1      52.404  30.280 -19.043  0.00  0.00     0.257 C 
ATOM      9  N15 P5K d   1      53.533  30.934 -19.179  0.00  0.00    -0.319 N 
ATOM     10  O16 P5K d   1      51.407  30.502 -19.867  0.00  0.00    -0.151 OA
ATOM     11  H   P5K d   1      54.306  30.608 -18.599  0.00  0.00     0.169 HD
ATOM     12  H   P5K d   1      52.967  29.197 -17.412  0.00  0.00     0.170 HD
BRANCH   9  13
ATOM     13  C17 P5K d   1      53.813  32.004 -20.003  0.00  0.00     0.046 A 
ATOM     14  C18 P5K d   1      53.007  33.139 -19.912  0.00  0.00    -0.056 A 
ATOM     15  C19 P5K d   1      53.262  34.245 -20.769  0.00  0.00    -0.080 A 
ATOM     16  H   P5K d   1      52.190  33.178 -19.191  0.00  0.00     0.086 H 
ATOM     17  C20 P5K d   1      54.347  34.203 -21.648  0.00  0.00    -0.072 A 
ATOM     18  H   P5K d   1      52.614  35.121 -20.740  0.00  0.00     0.083 H 
ATOM     19  C21 P5K d   1      55.164  33.031 -21.777  0.00  0.00    -0.024 A 
ATOM     20  H   P5K d   1      54.578  35.082 -22.250  0.00  0.00     0.084 H 
ATOM     21  C22 P5K d   1      54.914  31.964 -20.939  0.00  0.00     0.001 A 
ATOM     22  C25 P5K d   1      56.219  33.024 -22.703  0.00  0.00    -0.072 A 
ATOM     23  C28 P5K d   1      55.762  30.846 -21.078  0.00  0.00    -0.070 A 
ATOM     24  C27 P5K d   1      56.812  30.840 -22.012  0.00  0.00    -0.082 A 
ATOM     25  H   P5K d   1      55.600  29.970 -20.449  0.00  0.00     0.084 H 
ATOM     26  C26 P5K d   1      57.084  31.930 -22.849  0.00  0.00    -0.082 A 
ATOM     27  H   P5K d   1      57.440  29.952 -22.088  0.00  0.00     0.083 H 
ATOM     28  H   P5K d   1      57.908  31.928 -23.562  0.00  0.00     0.083 H 
ATOM     29  H   P5K d   1      56.371  33.901 -23.332  0.00  0.00     0.084 H 
ENDBRANCH   9  13
ENDBRANCH   3   7
BRANCH   2  30
ATOM     30  C11 P5K d   1      51.361  28.121 -15.440  0.00  0.00     0.256 C 
ATOM     31  O12 P5K d   1      51.733  27.125 -14.956  0.00  0.00    -0.267 OA
ATOM     32  N13 P5K d   1      51.684  29.181 -14.668  0.00  0.00    -0.346 N 
ATOM     33  C23 P5K d   1      51.557  30.584 -15.101  0.00  0.00     0.010 C 
ATOM     34  C24 P5K d   1      52.243  28.924 -13.277  0.00  0.00     0.010 C 
ATOM     35  C29 P5K d   1      50.745  31.328 -14.014  0.00  0.00     0.043 C 
ATOM     36  H   P5K d   1      51.052  30.643 -16.065  0.00  0.00     0.065 H 
ATOM     37  H   P5K d   1      52.540  31.038 -15.223  0.00  0.00     0.065 H 
ATOM     38  S31 P5K d   1      51.654  31.301 -12.532  0.00  0.00     0.147 S 
ATOM     39  H   P5K d   1      49.782  30.839 -13.869  0.00  0.00     0.058 H 
ATOM     40  H   P5K d   1      50.566  32.358 -14.322  0.00  0.00     0.058 H 
ATOM     41  C30 P5K d   1      51.515  29.660 -12.126  0.00  0.00     0.043 C 
ATOM     42  O32 P5K d   1      50.648  32.409 -11.698  0.00  0.00    -0.228 OA
ATOM     43  O33 P5K d   1      53.038  31.931 -13.286  0.00  0.00    -0.228 OA
ATOM     44  H   P5K d   1      51.952  29.438 -11.153  0.00  0.00     0.058 H 
ATOM     45  H   P5K d   1      50.476  29.346 -12.028  0.00  0.00     0.058 H 
ATOM     46  H   P5K d   1      53.270  29.289 -13.281  0.00  0.00     0.065 H 
ATOM     47  H   P5K d   1      52.129  27.857 -13.087  0.00  0.00     0.065 H 
ENDBRANCH   2  30
BRANCH   5  48
ATOM     48  C6  P5K d   1      47.613  26.732 -18.838  0.00  0.00    -0.018 C 
BRANCH  48  49
ATOM     49  C7  P5K d   1      46.792  27.653 -19.715  0.00  0.00    -0.065 C 
ATOM     50  H   P5K d   1      45.887  27.137 -20.035  0.00  0.00     0.028 H 
ATOM     51  H   P5K d   1      46.522  28.545 -19.150  0.00  0.00     0.028 H 
ATOM     52  H   P5K d   1      47.378  27.938 -20.589  0.00  0.00     0.028 H 
ENDBRANCH  48  49
BRANCH  48  53
ATOM     53  C8  P5K d   1      46.681  26.430 -17.689  0.00  0.00    -0.065 C 
ATOM     54  H   P5K d   1      46.414  27.359 -17.185  0.00  0.00     0.028 H 
ATOM     55  H   P5K d   1      45.780  25.950 -18.070  0.00  0.00     0.028 H 
ATOM     56  H   P5K d   1      47.179  25.763 -16.985  0.00  0.00     0.028 H 
ENDBRANCH  48  53
BRANCH  48  57
ATOM     57  C9  P5K d   1      47.983  25.589 -19.759  0.00  0.00    -0.065 C 
ATOM     58  H   P5K d   1      47.075  25.110 -20.124  0.00  0.00     0.028 H 
ATOM     59  H   P5K d   1      48.556  25.974 -20.602  0.00  0.00     0.028 H 
ATOM     60  H   P5K d   1      48.584  24.863 -19.212  0.00  0.00     0.028 H 
ENDBRANCH  48  57
ENDBRANCH   5  48
TORSDOF 7
