REMARK  9 active torsions:
REMARK  status: ('A' for Active; 'I' for Inactive)
REMARK    1  A    between atoms: N1_1  and  C2_2 
REMARK       I    between atoms: N1_1  and  C7_7 
REMARK    2  A    between atoms: C2_2  and  C3_3 
REMARK    3  A    between atoms: C2_2  and  C29_29 
REMARK       I    between atoms: C3_3  and  N5_5 
REMARK    4  A    between atoms: N5_5  and  O6_6 
REMARK       I    between atoms: C7_7  and  N9_9 
REMARK    5  A    between atoms: C12_12  and  C15_15 
REMARK    6  A    between atoms: C18_18  and  C21_21 
REMARK    7  A    between atoms: C22_22  and  C23_23 
REMARK    8  A    between atoms: C29_29  and  C30_30 
REMARK    9  A    between atoms: C29_29  and  O31_31 
ROOT
ATOM      1  N1  P76 d   1      -6.334  20.929  -3.825  0.00  0.00    -0.327 N 
ATOM      2  C7  P76 d   1      -6.888  19.634  -3.703  0.00  0.00     0.319 C 
ATOM      3  O8  P76 d   1      -6.335  18.709  -3.052  0.00  0.00    -0.247 OA
ATOM      4  N9  P76 d   1      -8.105  19.459  -4.360  0.00  0.00    -0.334 N 
ATOM      5  C10 P76 d   1      -8.820  20.506  -5.104  0.00  0.00    -0.000 C 
ATOM      6  C11 P76 d   1      -9.319  19.993  -6.418  0.00  0.00    -0.043 C 
ATOM      7  C12 P76 d   1     -10.324  18.852  -6.188  0.00  0.00    -0.026 C 
ATOM      8  C13 P76 d   1      -9.506  17.723  -5.537  0.00  0.00    -0.043 C 
ATOM      9  C14 P76 d   1      -8.766  18.142  -4.267  0.00  0.00    -0.000 C 
ATOM     10  H1  P76 d   1      -6.812  21.629  -4.355  0.00  0.00     0.165 HD
ATOM     11  H5  P76 d   1      -8.136  21.348  -5.284  0.00  0.00     0.064 H 
ATOM     12  H6  P76 d   1      -9.676  20.850  -4.505  0.00  0.00     0.064 H 
ATOM     13  H7  P76 d   1      -8.470  19.618  -7.009  0.00  0.00     0.036 H 
ATOM     14  H8  P76 d   1      -9.813  20.810  -6.964  0.00  0.00     0.036 H 
ATOM     15  H9  P76 d   1     -11.131  19.189  -5.520  0.00  0.00     0.047 H 
ATOM     16  H10 P76 d   1      -8.764  17.368  -6.268  0.00  0.00     0.036 H 
ATOM     17  H11 P76 d   1     -10.192  16.902  -5.282  0.00  0.00     0.036 H 
ATOM     18  H12 P76 d   1      -9.491  18.177  -3.441  0.00  0.00     0.064 H 
ATOM     19  H13 P76 d   1      -7.998  17.385  -4.049  0.00  0.00     0.064 H 
ENDROOT
BRANCH   7  20
ATOM     20  C15 P76 d   1     -10.928  18.323  -7.485  0.00  0.00    -0.054 A 
ATOM     21  C16 P76 d   1     -11.801  17.188  -7.495  0.00  0.00    -0.075 A 
ATOM     22  C17 P76 d   1     -12.345  16.719  -8.717  0.00  0.00    -0.064 A 
ATOM     23  H14 P76 d   1     -12.046  16.686  -6.566  0.00  0.00     0.084 H 
ATOM     24  C18 P76 d   1     -12.007  17.392  -9.923  0.00  0.00     0.018 A 
ATOM     25  H15 P76 d   1     -13.008  15.861  -8.732  0.00  0.00     0.085 H 
ATOM     26  C19 P76 d   1     -11.166  18.494  -9.934  0.00  0.00    -0.064 A 
ATOM     27  C20 P76 d   1     -10.657  18.940  -8.727  0.00  0.00    -0.075 A 
ATOM     28  H16 P76 d   1     -10.914  18.993 -10.863  0.00  0.00     0.085 H 
ATOM     29  H17 P76 d   1     -10.014  19.812  -8.735  0.00  0.00     0.084 H 
BRANCH  24  30
ATOM     30  C21 P76 d   1     -12.452  16.997 -11.191  0.00  0.00    -0.061 C 
ATOM     31  C22 P76 d   1     -12.609  16.611 -12.299  0.00  0.00    -0.061 C 
BRANCH  31  32
ATOM     32  C23 P76 d   1     -12.791  16.140 -13.618  0.00  0.00     0.018 A 
ATOM     33  C24 P76 d   1     -12.018  15.012 -14.010  0.00  0.00    -0.065 A 
ATOM     34  C25 P76 d   1     -12.155  14.477 -15.309  0.00  0.00    -0.082 A 
ATOM     35  H18 P76 d   1     -11.323  14.563 -13.310  0.00  0.00     0.085 H 
ATOM     36  C26 P76 d   1     -13.058  15.088 -16.213  0.00  0.00    -0.083 A 
ATOM     37  H19 P76 d   1     -11.577  13.611 -15.610  0.00  0.00     0.083 H 
ATOM     38  C27 P76 d   1     -13.819  16.217 -15.814  0.00  0.00    -0.082 A 
ATOM     39  H20 P76 d   1     -13.168  14.691 -17.215  0.00  0.00     0.083 H 
ATOM     40  C28 P76 d   1     -13.692  16.752 -14.503  0.00  0.00    -0.065 A 
ATOM     41  H21 P76 d   1     -14.505  16.677 -16.517  0.00  0.00     0.083 H 
ATOM     42  H22 P76 d   1     -14.277  17.611 -14.195  0.00  0.00     0.085 H 
ENDBRANCH  31  32
ENDBRANCH  24  30
ENDBRANCH   7  20
BRANCH   1  43
ATOM     43  C2  P76 d   1      -5.074  21.243  -3.183  0.00  0.00     0.117 C 
ATOM     44  H2  P76 d   1      -5.109  20.816  -2.170  0.00  0.00     0.091 H 
BRANCH  43  45
ATOM     45  C3  P76 d   1      -5.070  22.747  -3.048  0.00  0.00     0.266 C 
ATOM     46  O4  P76 d   1      -4.971  23.514  -4.016  0.00  0.00    -0.269 OA
ATOM     47  N5  P76 d   1      -5.169  23.121  -1.741  0.00  0.00    -0.236 N 
ATOM     48  H3  P76 d   1      -5.252  22.490  -0.970  0.00  0.00     0.197 HD
BRANCH  47  49
ATOM     49  O6  P76 d   1      -5.138  24.504  -1.636  0.00  0.00    -0.287 OA
ATOM     50  H4  P76 d   1      -5.208  24.753  -0.722  0.00  0.00     0.244 HD
ENDBRANCH  47  49
ENDBRANCH  43  45
BRANCH  43  51
ATOM     51  C29 P76 d   1      -3.804  20.662  -3.830  0.00  0.00     0.060 C 
ATOM     52  H23 P76 d   1      -3.838  19.567  -3.737  0.00  0.00     0.086 H 
BRANCH  51  53
ATOM     53  C30 P76 d   1      -3.617  21.007  -5.302  0.00  0.00    -0.050 C 
ATOM     54  H24 P76 d   1      -2.687  20.549  -5.671  0.00  0.00     0.031 H 
ATOM     55  H25 P76 d   1      -3.559  22.099  -5.418  0.00  0.00     0.031 H 
ATOM     56  H26 P76 d   1      -4.470  20.622  -5.880  0.00  0.00     0.031 H 
ENDBRANCH  51  53
BRANCH  51  57
ATOM     57  O31 P76 d   1      -2.675  21.178  -3.093  0.00  0.00    -0.393 OA
ATOM     58  H27 P76 d   1      -2.631  22.121  -3.203  0.00  0.00     0.210 HD
ENDBRANCH  51  57
ENDBRANCH  43  51
ENDBRANCH   1  43
TORSDOF 9
