REMARK  7 active torsions:
REMARK  status: ('A' for Active; 'I' for Inactive)
REMARK    1  A    between atoms: C1_1  and  C6_9 
REMARK    2  A    between atoms: C3_6  and  N12_17 
REMARK    3  A    between atoms: C10_13  and  C4_7 
REMARK    4  A    between atoms: C6_9  and  C7_10 
REMARK    5  A    between atoms: C6_9  and  C8_11 
REMARK    6  A    between atoms: C6_9  and  C9_12 
REMARK       I    between atoms: N26_28  and  C10_13 
REMARK       I    between atoms: N12_17  and  C13_18 
REMARK    7  A    between atoms: N15_21  and  C16_22 
ROOT
ATOM      1  C1  P78 d   1      49.047  27.176 -18.087  0.00  0.00    -0.007 A 
ATOM      2  S2  P78 d   1      50.177  28.074 -19.022  0.00  0.00    -0.075 SA
ATOM      3  C3  P78 d   1      51.336  28.307 -17.770  0.00  0.00     0.093 A 
ATOM      4  C4  P78 d   1      50.770  27.660 -16.658  0.00  0.00     0.067 A 
ATOM      5  C5  P78 d   1      49.538  27.038 -16.792  0.00  0.00    -0.051 A 
ATOM      6  H2  P78 d   1      49.023  26.511 -15.990  0.00  0.00     0.086 H 
ENDROOT
BRANCH   3   7
ATOM      7  N12 P78 d   1      52.562  28.943 -17.806  0.00  0.00    -0.313 N 
ATOM      8  C13 P78 d   1      52.811  29.874 -18.763  0.00  0.00     0.257 C 
ATOM      9  O14 P78 d   1      51.827  30.213 -19.636  0.00  0.00    -0.151 OA
ATOM     10  N15 P78 d   1      53.993  30.417 -18.816  0.00  0.00    -0.320 N 
ATOM     11  H16 P78 d   1      54.631  30.118 -18.106  0.00  0.00     0.169 HD
ATOM     12  H14 P78 d   1      53.264  28.719 -17.130  0.00  0.00     0.170 HD
BRANCH  10  13
ATOM     13  C16 P78 d   1      54.487  31.324 -19.686  0.00  0.00     0.036 A 
ATOM     14  C17 P78 d   1      53.970  32.599 -19.927  0.00  0.00    -0.056 A 
ATOM     15  C18 P78 d   1      54.622  33.432 -20.843  0.00  0.00    -0.070 A 
ATOM     16  H17 P78 d   1      53.078  32.938 -19.413  0.00  0.00     0.086 H 
ATOM     17  C19 P78 d   1      55.792  33.029 -21.528  0.00  0.00    -0.026 A 
ATOM     18  H18 P78 d   1      54.217  34.419 -21.034  0.00  0.00     0.084 H 
ATOM     19  C11 P78 d   1      56.440  33.888 -22.453  0.00  0.00    -0.072 A 
ATOM     20  C20 P78 d   1      56.318  31.760 -21.288  0.00  0.00    -0.024 A 
ATOM     21  C12 P78 d   1      57.595  33.462 -23.150  0.00  0.00    -0.082 A 
ATOM     22  H12 P78 d   1      56.045  34.882 -22.628  0.00  0.00     0.084 H 
ATOM     23  C14 P78 d   1      58.138  32.178 -22.922  0.00  0.00    -0.082 A 
ATOM     24  H13 P78 d   1      58.067  34.126 -23.865  0.00  0.00     0.083 H 
ATOM     25  C2  P78 d   1      57.469  31.338 -21.982  0.00  0.00    -0.072 A 
ATOM     26  H15 P78 d   1      59.029  31.843 -23.441  0.00  0.00     0.083 H 
ATOM     27  H1  P78 d   1      57.859  30.344 -21.796  0.00  0.00     0.084 H 
ATOM     28  C21 P78 d   1      55.652  30.927 -20.368  0.00  0.00    -0.046 A 
ATOM     29  H19 P78 d   1      56.054  29.938 -20.177  0.00  0.00     0.088 H 
ENDBRANCH  10  13
ENDBRANCH   3   7
BRANCH   4  30
ATOM     30  C10 P78 d   1      51.603  27.651 -15.395  0.00  0.00     0.256 C 
ATOM     31  O11 P78 d   1      52.815  27.582 -15.551  0.00  0.00    -0.267 OA
ATOM     32  N26 P78 d   1      51.125  27.649 -14.114  0.00  0.00    -0.346 N 
ATOM     33  C27 P78 d   1      49.914  28.348 -13.706  0.00  0.00     0.010 C 
ATOM     34  C32 P78 d   1      52.131  27.361 -13.073  0.00  0.00     0.010 C 
ATOM     35  C28 P78 d   1      50.317  29.717 -13.110  0.00  0.00     0.043 C 
ATOM     36  H20 P78 d   1      49.381  27.756 -12.948  0.00  0.00     0.065 H 
ATOM     37  H21 P78 d   1      49.261  28.500 -14.578  0.00  0.00     0.065 H 
ATOM     38  S1  P78 d   1      51.542  29.707 -11.896  0.00  0.00     0.147 S 
ATOM     39  H22 P78 d   1      50.674  30.348 -13.937  0.00  0.00     0.058 H 
ATOM     40  H23 P78 d   1      49.415  30.166 -12.669  0.00  0.00     0.058 H 
ATOM     41  O1  P78 d   1      52.253  31.236 -11.768  0.00  0.00    -0.228 OA
ATOM     42  C31 P78 d   1      52.746  28.665 -12.541  0.00  0.00     0.043 C 
ATOM     43  O33 P78 d   1      50.822  28.779 -10.675  0.00  0.00    -0.228 OA
ATOM     44  H24 P78 d   1      53.471  28.422 -11.750  0.00  0.00     0.058 H 
ATOM     45  H25 P78 d   1      53.261  29.180 -13.365  0.00  0.00     0.058 H 
ATOM     46  H26 P78 d   1      52.927  26.735 -13.502  0.00  0.00     0.065 H 
ATOM     47  H27 P78 d   1      51.649  26.823 -12.243  0.00  0.00     0.065 H 
ENDBRANCH   4  30
BRANCH   1  48
ATOM     48  C6  P78 d   1      47.752  26.704 -18.656  0.00  0.00    -0.018 C 
BRANCH  48  49
ATOM     49  C7  P78 d   1      48.022  25.578 -19.632  0.00  0.00    -0.065 C 
ATOM     50  H3  P78 d   1      47.071  25.224 -20.056  0.00  0.00     0.028 H 
ATOM     51  H4  P78 d   1      48.520  24.749 -19.107  0.00  0.00     0.028 H 
ATOM     52  H5  P78 d   1      48.671  25.942 -20.442  0.00  0.00     0.028 H 
ENDBRANCH  48  49
BRANCH  48  53
ATOM     53  C8  P78 d   1      46.643  26.466 -17.624  0.00  0.00    -0.065 C 
ATOM     54  H6  P78 d   1      46.546  27.352 -16.979  0.00  0.00     0.028 H 
ATOM     55  H7  P78 d   1      46.897  25.590 -17.009  0.00  0.00     0.028 H 
ATOM     56  H8  P78 d   1      45.691  26.285 -18.144  0.00  0.00     0.028 H 
ENDBRANCH  48  53
BRANCH  48  57
ATOM     57  C9  P78 d   1      47.229  27.666 -19.718  0.00  0.00    -0.065 C 
ATOM     58  H9  P78 d   1      48.014  27.847 -20.467  0.00  0.00     0.028 H 
ATOM     59  H10 P78 d   1      46.948  28.618 -19.244  0.00  0.00     0.028 H 
ATOM     60  H11 P78 d   1      46.348  27.227 -20.209  0.00  0.00     0.028 H 
ENDBRANCH  48  57
ENDBRANCH   1  48
TORSDOF 7
