REMARK  8 active torsions:
REMARK  status: ('A' for Active; 'I' for Inactive)
REMARK    1  A    between atoms: C2_2  and  C5_5 
REMARK    2  A    between atoms: N3_3  and  C7_7 
REMARK    3  A    between atoms: C5_5  and  C21_21 
REMARK    4  A    between atoms: C5_5  and  C22_22 
REMARK    5  A    between atoms: C5_5  and  C23_23 
REMARK    6  A    between atoms: N20_20  and  C6_6 
REMARK    7  A    between atoms: C7_7  and  C8_8 
REMARK       I    between atoms: C8_8  and  N9_9 
REMARK       I    between atoms: C11_11  and  N20_20 
REMARK    8  A    between atoms: N12_12  and  C14_14 
ROOT
ATOM      1  C1  P79 d   1      50.069  28.086 -18.821  0.00  0.00    -0.013 A 
ATOM      2  C2  P79 d   1      48.943  27.470 -18.270  0.00  0.00     0.066 A 
ATOM      3  N3  P79 d   1      50.019  28.306 -16.615  0.00  0.00    -0.245 N 
ATOM      4  N4  P79 d   1      48.900  27.626 -16.933  0.00  0.00    -0.174 NA
ATOM      5  C6  P79 d   1      50.744  28.639 -17.731  0.00  0.00     0.129 A 
ATOM      6  H1  P79 d   1      50.357  28.126 -19.870  0.00  0.00     0.092 H 
ENDROOT
BRANCH   5   7
ATOM      7  N20 P79 d   1      51.956  29.340 -17.619  0.00  0.00    -0.305 N 
ATOM      8  C11 P79 d   1      52.424  30.097 -18.641  0.00  0.00     0.258 C 
ATOM      9  N12 P79 d   1      53.681  30.452 -18.715  0.00  0.00    -0.320 N 
ATOM     10  O13 P79 d   1      51.603  30.512 -19.599  0.00  0.00    -0.151 OA
ATOM     11  H4  P79 d   1      54.310  30.002 -18.082  0.00  0.00     0.169 HD
ATOM     12  H8  P79 d   1      52.482  29.279 -16.771  0.00  0.00     0.171 HD
BRANCH   9  13
ATOM     13  C14 P79 d   1      54.217  31.357 -19.551  0.00  0.00     0.036 A 
ATOM     14  C15 P79 d   1      53.715  32.625 -19.790  0.00  0.00    -0.056 A 
ATOM     15  C16 P79 d   1      54.380  33.514 -20.658  0.00  0.00    -0.070 A 
ATOM     16  H5  P79 d   1      52.798  32.938 -19.303  0.00  0.00     0.086 H 
ATOM     17  C17 P79 d   1      55.526  33.052 -21.323  0.00  0.00    -0.026 A 
ATOM     18  H6  P79 d   1      54.017  34.525 -20.808  0.00  0.00     0.084 H 
ATOM     19  C18 P79 d   1      56.016  31.770 -21.102  0.00  0.00    -0.024 A 
ATOM     20  C24 P79 d   1      56.176  33.938 -22.221  0.00  0.00    -0.072 A 
ATOM     21  C19 P79 d   1      55.392  30.905 -20.182  0.00  0.00    -0.046 A 
ATOM     22  C27 P79 d   1      57.201  31.311 -21.717  0.00  0.00    -0.072 A 
ATOM     23  H7  P79 d   1      55.802  29.925 -19.967  0.00  0.00     0.088 H 
ATOM     24  C26 P79 d   1      57.859  32.178 -22.640  0.00  0.00    -0.082 A 
ATOM     25  H21 P79 d   1      57.600  30.328 -21.494  0.00  0.00     0.084 H 
ATOM     26  C25 P79 d   1      57.346  33.479 -22.874  0.00  0.00    -0.082 A 
ATOM     27  H20 P79 d   1      58.749  31.843 -23.161  0.00  0.00     0.083 H 
ATOM     28  H19 P79 d   1      57.860  34.136 -23.567  0.00  0.00     0.083 H 
ATOM     29  H18 P79 d   1      55.789  34.934 -22.401  0.00  0.00     0.084 H 
ENDBRANCH   9  13
ENDBRANCH   5   7
BRANCH   3  30
ATOM     30  C7  P79 d   1      50.335  28.738 -15.227  0.00  0.00     0.092 C 
ATOM     31  H2  P79 d   1      49.453  28.553 -14.596  0.00  0.00     0.082 H 
ATOM     32  H3  P79 d   1      50.556  29.815 -15.241  0.00  0.00     0.082 H 
BRANCH  30  33
ATOM     33  C8  P79 d   1      51.498  28.027 -14.629  0.00  0.00     0.239 C 
ATOM     34  N9  P79 d   1      51.553  27.891 -13.296  0.00  0.00    -0.349 N 
ATOM     35  C28 P79 d   1      50.572  28.502 -12.409  0.00  0.00     0.010 C 
ATOM     36  C32 P79 d   1      52.484  26.981 -12.642  0.00  0.00     0.010 C 
ATOM     37  C29 P79 d   1      51.287  29.462 -11.445  0.00  0.00     0.043 C 
ATOM     38  H22 P79 d   1      50.059  27.718 -11.833  0.00  0.00     0.065 H 
ATOM     39  H23 P79 d   1      49.836  29.061 -13.005  0.00  0.00     0.065 H 
ATOM     40  S30 P79 d   1      52.508  28.622 -10.603  0.00  0.00     0.147 S 
ATOM     41  H24 P79 d   1      50.560  29.868 -10.726  0.00  0.00     0.058 H 
ATOM     42  H25 P79 d   1      51.738  30.287 -12.017  0.00  0.00     0.058 H 
ATOM     43  C31 P79 d   1      53.440  27.855 -11.826  0.00  0.00     0.043 C 
ATOM     44  O33 P79 d   1      51.823  27.380  -9.760  0.00  0.00    -0.228 OA
ATOM     45  O34 P79 d   1      53.481  29.818  -9.921  0.00  0.00    -0.228 OA
ATOM     46  H26 P79 d   1      54.223  27.232 -11.368  0.00  0.00     0.058 H 
ATOM     47  H27 P79 d   1      53.906  28.611 -12.475  0.00  0.00     0.058 H 
ATOM     48  H28 P79 d   1      53.043  26.404 -13.393  0.00  0.00     0.065 H 
ATOM     49  H29 P79 d   1      51.940  26.291 -11.980  0.00  0.00     0.065 H 
ATOM     50  O10 P79 d   1      52.342  27.549 -15.362  0.00  0.00    -0.271 OA
ENDBRANCH  30  33
ENDBRANCH   3  30
BRANCH   2  51
ATOM     51  C5  P79 d   1      47.758  26.765 -18.928  0.00  0.00    -0.005 C 
BRANCH  51  52
ATOM     52  C21 P79 d   1      46.679  26.509 -17.865  0.00  0.00    -0.064 C 
ATOM     53  H9  P79 d   1      45.821  26.001 -18.329  0.00  0.00     0.028 H 
ATOM     54  H10 P79 d   1      46.351  27.468 -17.438  0.00  0.00     0.028 H 
ATOM     55  H11 P79 d   1      47.093  25.875 -17.067  0.00  0.00     0.028 H 
ENDBRANCH  51  52
BRANCH  51  56
ATOM     56  C22 P79 d   1      48.117  25.584 -19.809  0.00  0.00    -0.064 C 
ATOM     57  H12 P79 d   1      48.895  25.885 -20.527  0.00  0.00     0.028 H 
ATOM     58  H13 P79 d   1      47.223  25.249 -20.356  0.00  0.00     0.028 H 
ATOM     59  H14 P79 d   1      48.494  24.761 -19.184  0.00  0.00     0.028 H 
ENDBRANCH  51  56
BRANCH  51  60
ATOM     60  C23 P79 d   1      47.093  27.755 -19.848  0.00  0.00    -0.064 C 
ATOM     61  H15 P79 d   1      46.801  28.648 -19.276  0.00  0.00     0.028 H 
ATOM     62  H16 P79 d   1      46.198  27.297 -20.295  0.00  0.00     0.028 H 
ATOM     63  H17 P79 d   1      47.794  28.043 -20.645  0.00  0.00     0.028 H 
ENDBRANCH  51  60
ENDBRANCH   2  51
TORSDOF 8
