REMARK  7 active torsions:
REMARK  status: ('A' for Active; 'I' for Inactive)
REMARK       I    between atoms: C1_1  and  N2_6 
REMARK    1  A    between atoms: N1_2  and  C2_5 
REMARK    2  A    between atoms: N2_6  and  C3_9 
REMARK    3  A    between atoms: C10_17  and  N9_16 
REMARK    4  A    between atoms: C13_18  and  C16_20 
REMARK    5  A    between atoms: C16_20  and  C17_21 
REMARK    6  A    between atoms: C16_20  and  C18_22 
REMARK    7  A    between atoms: C16_20  and  C19_23 
ROOT
ATOM      1  S1  P7A d   1      46.899  29.318 -15.771  0.00  0.00    -0.074 SA
ATOM      2  C2  P7A d   1      48.345  30.294 -15.863  0.00  0.00     0.099 A 
ATOM      3  C10 P7A d   1      48.625  30.596 -17.219  0.00  0.00     0.070 A 
ATOM      4  C13 P7A d   1      46.669  29.281 -17.495  0.00  0.00    -0.005 A 
ATOM      5  C14 P7A d   1      47.695  30.030 -18.095  0.00  0.00    -0.041 A 
ATOM      6  H   P7A d   1      47.761  30.161 -19.175  0.00  0.00     0.088 H 
ENDROOT
BRANCH   3   7
ATOM      7  N9  P7A d   1      49.688  31.344 -17.629  0.00  0.00    -0.318 N 
ATOM      8  C1  P7A d   1      49.825  32.311 -18.577  0.00  0.00     0.257 C 
ATOM      9  O1  P7A d   1      48.758  32.789 -19.233  0.00  0.00    -0.151 OA
ATOM     10  N2  P7A d   1      51.018  32.754 -18.853  0.00  0.00    -0.319 N 
ATOM     11  H   P7A d   1      51.774  32.178 -18.481  0.00  0.00     0.169 HD
ATOM     12  H   P7A d   1      50.551  31.139 -17.126  0.00  0.00     0.169 HD
BRANCH  10  13
ATOM     13  C3  P7A d   1      51.441  33.851 -19.551  0.00  0.00     0.046 A 
ATOM     14  C4  P7A d   1      52.623  33.850 -20.324  0.00  0.00     0.001 A 
ATOM     15  C5  P7A d   1      53.016  35.015 -21.013  0.00  0.00    -0.024 A 
ATOM     16  C31 P7A d   1      53.452  32.731 -20.461  0.00  0.00    -0.070 A 
ATOM     17  C6  P7A d   1      52.227  36.176 -20.930  0.00  0.00    -0.072 A 
ATOM     18  C34 P7A d   1      54.173  35.080 -21.799  0.00  0.00    -0.072 A 
ATOM     19  C7  P7A d   1      51.056  36.194 -20.170  0.00  0.00    -0.080 A 
ATOM     20  H   P7A d   1      52.534  37.074 -21.466  0.00  0.00     0.084 H 
ATOM     21  C8  P7A d   1      50.681  35.036 -19.483  0.00  0.00    -0.056 A 
ATOM     22  H   P7A d   1      50.445  37.095 -20.113  0.00  0.00     0.083 H 
ATOM     23  H   P7A d   1      49.775  35.050 -18.877  0.00  0.00     0.086 H 
ATOM     24  C33 P7A d   1      54.983  33.946 -21.918  0.00  0.00    -0.082 A 
ATOM     25  H   P7A d   1      54.439  36.004 -22.312  0.00  0.00     0.084 H 
ATOM     26  C32 P7A d   1      54.618  32.776 -21.239  0.00  0.00    -0.082 A 
ATOM     27  H   P7A d   1      55.885  33.972 -22.530  0.00  0.00     0.083 H 
ATOM     28  H   P7A d   1      55.248  31.890 -21.316  0.00  0.00     0.083 H 
ATOM     29  H   P7A d   1      53.186  31.805 -19.952  0.00  0.00     0.084 H 
ENDBRANCH  10  13
ENDBRANCH   3   7
BRANCH   2  30
ATOM     30  N1  P7A d   1      49.010  30.666 -14.729  0.00  0.00    -0.372 N 
ATOM     31  C20 P7A d   1      49.674  31.973 -14.644  0.00  0.00     0.008 C 
ATOM     32  C21 P7A d   1      49.284  32.812 -13.412  0.00  0.00     0.043 C 
ATOM     33  H   P7A d   1      49.372  32.541 -15.524  0.00  0.00     0.065 H 
ATOM     34  H   P7A d   1      50.745  31.782 -14.572  0.00  0.00     0.065 H 
ATOM     35  S2  P7A d   1      49.180  32.033 -11.877  0.00  0.00     0.147 S 
ATOM     36  H   P7A d   1      50.084  33.544 -13.304  0.00  0.00     0.058 H 
ATOM     37  H   P7A d   1      48.274  33.166 -13.619  0.00  0.00     0.058 H 
ATOM     38  O2  P7A d   1      48.572  33.273 -10.853  0.00  0.00    -0.228 OA
ATOM     39  O3  P7A d   1      50.613  31.378 -11.241  0.00  0.00    -0.228 OA
ATOM     40  C23 P7A d   1      48.197  30.701 -12.314  0.00  0.00     0.043 C 
ATOM     41  C24 P7A d   1      48.797  29.891 -13.483  0.00  0.00     0.008 C 
ATOM     42  H   P7A d   1      47.227  31.085 -12.630  0.00  0.00     0.058 H 
ATOM     43  H   P7A d   1      48.117  30.041 -11.450  0.00  0.00     0.058 H 
ATOM     44  H   P7A d   1      49.776  29.540 -13.156  0.00  0.00     0.065 H 
ATOM     45  H   P7A d   1      48.085  29.100 -13.719  0.00  0.00     0.065 H 
ENDBRANCH   2  30
BRANCH   4  46
ATOM     46  C16 P7A d   1      45.557  28.569 -18.263  0.00  0.00    -0.018 C 
BRANCH  46  47
ATOM     47  C17 P7A d   1      45.151  29.370 -19.500  0.00  0.00    -0.065 C 
ATOM     48  H   P7A d   1      44.793  30.353 -19.194  0.00  0.00     0.028 H 
ATOM     49  H   P7A d   1      46.014  29.485 -20.156  0.00  0.00     0.028 H 
ATOM     50  H   P7A d   1      44.358  28.842 -20.029  0.00  0.00     0.028 H 
ENDBRANCH  46  47
BRANCH  46  51
ATOM     51  C18 P7A d   1      44.242  28.322 -17.526  0.00  0.00    -0.065 C 
ATOM     52  H   P7A d   1      44.430  27.704 -16.648  0.00  0.00     0.028 H 
ATOM     53  H   P7A d   1      43.816  29.276 -17.216  0.00  0.00     0.028 H 
ATOM     54  H   P7A d   1      43.545  27.810 -18.190  0.00  0.00     0.028 H 
ENDBRANCH  46  51
BRANCH  46  55
ATOM     55  C19 P7A d   1      46.108  27.218 -18.741  0.00  0.00    -0.065 C 
ATOM     56  H   P7A d   1      46.968  27.387 -19.389  0.00  0.00     0.028 H 
ATOM     57  H   P7A d   1      46.412  26.625 -17.878  0.00  0.00     0.028 H 
ATOM     58  H   P7A d   1      45.334  26.686 -19.294  0.00  0.00     0.028 H 
ENDBRANCH  46  55
ENDBRANCH   4  46
TORSDOF 7
