REMARK  7 active torsions:
REMARK  status: ('A' for Active; 'I' for Inactive)
REMARK    1  A    between atoms: C1_1  and  C6_6 
REMARK    2  A    between atoms: C3_3  and  N12_12 
REMARK    3  A    between atoms: C4_4  and  C10_10 
REMARK    4  A    between atoms: C6_6  and  C7_7 
REMARK    5  A    between atoms: C6_6  and  C8_8 
REMARK    6  A    between atoms: C6_6  and  C9_9 
REMARK       I    between atoms: C10_10  and  N26_26 
REMARK       I    between atoms: N12_12  and  C13_13 
REMARK       I    between atoms: C13_13  and  N15_15 
REMARK    7  A    between atoms: N15_15  and  C16_16 
ROOT
ATOM      1  C1  P7B d   1      49.110  27.254 -18.119  0.00  0.00    -0.007 A 
ATOM      2  S2  P7B d   1      50.095  28.264 -19.098  0.00  0.00    -0.075 SA
ATOM      3  C3  P7B d   1      51.281  28.551 -17.846  0.00  0.00     0.093 A 
ATOM      4  C4  P7B d   1      50.763  27.917 -16.699  0.00  0.00     0.067 A 
ATOM      5  C5  P7B d   1      49.589  27.190 -16.810  0.00  0.00    -0.051 A 
ATOM      6  H1  P7B d   1      49.110  26.648 -15.995  0.00  0.00     0.086 H 
ENDROOT
BRANCH   3   7
ATOM      7  N12 P7B d   1      52.409  29.314 -17.928  0.00  0.00    -0.313 N 
ATOM      8  C13 P7B d   1      52.636  30.232 -18.903  0.00  0.00     0.257 C 
ATOM      9  O14 P7B d   1      51.693  30.548 -19.768  0.00  0.00    -0.151 OA
ATOM     10  N15 P7B d   1      53.775  30.826 -19.004  0.00  0.00    -0.319 N 
ATOM     11  H12 P7B d   1      54.490  30.496 -18.387  0.00  0.00     0.169 HD
ATOM     12  H11 P7B d   1      53.112  29.190 -17.227  0.00  0.00     0.170 HD
BRANCH  10  13
ATOM     13  C16 P7B d   1      54.142  31.848 -19.841  0.00  0.00     0.046 A 
ATOM     14  C17 P7B d   1      53.422  33.060 -19.666  0.00  0.00    -0.056 A 
ATOM     15  C18 P7B d   1      53.751  34.161 -20.477  0.00  0.00    -0.080 A 
ATOM     16  H13 P7B d   1      52.636  33.135 -18.923  0.00  0.00     0.086 H 
ATOM     17  C19 P7B d   1      54.824  34.059 -21.354  0.00  0.00    -0.072 A 
ATOM     18  H14 P7B d   1      53.175  35.077 -20.419  0.00  0.00     0.083 H 
ATOM     19  C20 P7B d   1      55.544  32.874 -21.549  0.00  0.00    -0.024 A 
ATOM     20  H15 P7B d   1      55.118  34.939 -21.914  0.00  0.00     0.084 H 
ATOM     21  C21 P7B d   1      55.223  31.743 -20.771  0.00  0.00     0.001 A 
ATOM     22  C22 P7B d   1      56.585  32.887 -22.520  0.00  0.00    -0.072 A 
ATOM     23  C25 P7B d   1      56.008  30.590 -20.964  0.00  0.00    -0.070 A 
ATOM     24  C24 P7B d   1      57.024  30.629 -21.937  0.00  0.00    -0.082 A 
ATOM     25  H19 P7B d   1      55.834  29.695 -20.378  0.00  0.00     0.084 H 
ATOM     26  C23 P7B d   1      57.354  31.746 -22.702  0.00  0.00    -0.082 A 
ATOM     27  H18 P7B d   1      57.593  29.721 -22.104  0.00  0.00     0.083 H 
ATOM     28  H17 P7B d   1      58.176  31.725 -23.409  0.00  0.00     0.083 H 
ATOM     29  H16 P7B d   1      56.775  33.777 -23.110  0.00  0.00     0.084 H 
ENDBRANCH  10  13
ENDBRANCH   3   7
BRANCH   4  30
ATOM     30  C10 P7B d   1      51.534  28.018 -15.434  0.00  0.00     0.256 C 
ATOM     31  O11 P7B d   1      52.645  28.501 -15.511  0.00  0.00    -0.267 OA
ATOM     32  N26 P7B d   1      51.075  27.629 -14.229  0.00  0.00    -0.346 N 
ATOM     33  C27 P7B d   1      49.717  28.117 -13.908  0.00  0.00     0.013 C 
ATOM     34  C32 P7B d   1      52.046  27.411 -13.122  0.00  0.00     0.006 C 
ATOM     35  C28 P7B d   1      49.058  27.539 -12.652  0.00  0.00     0.010 C 
ATOM     36  H20 P7B d   1      49.067  27.882 -14.764  0.00  0.00     0.066 H 
ATOM     37  H21 P7B d   1      49.776  29.208 -13.781  0.00  0.00     0.066 H 
ATOM     38  N29 P7B d   1      49.654  28.148 -11.435  0.00  0.00    -0.359 N 
ATOM     39  H22 P7B d   1      49.214  26.450 -12.628  0.00  0.00     0.066 H 
ATOM     40  H23 P7B d   1      47.980  27.754 -12.675  0.00  0.00     0.066 H 
ATOM     41  C30 P7B d   1      50.938  28.235 -10.965  0.00  0.00     0.219 C 
ATOM     42  H24 P7B d   1      48.981  28.583 -10.837  0.00  0.00     0.162 HD
ATOM     43  C31 P7B d   1      52.024  28.486 -12.021  0.00  0.00     0.024 C 
ATOM     44  O33 P7B d   1      51.208  27.675  -9.882  0.00  0.00    -0.274 OA
ATOM     45  H25 P7B d   1      53.004  28.497 -11.521  0.00  0.00     0.049 H 
ATOM     46  H26 P7B d   1      51.840  29.464 -12.489  0.00  0.00     0.049 H 
ATOM     47  H27 P7B d   1      53.057  27.385 -13.554  0.00  0.00     0.065 H 
ATOM     48  H28 P7B d   1      51.821  26.440 -12.656  0.00  0.00     0.065 H 
ENDBRANCH   4  30
BRANCH   1  49
ATOM     49  C6  P7B d   1      47.861  26.674 -18.730  0.00  0.00    -0.018 C 
BRANCH  49  50
ATOM     50  C7  P7B d   1      48.268  25.502 -19.586  0.00  0.00    -0.065 C 
ATOM     51  H2  P7B d   1      47.374  25.057 -20.047  0.00  0.00     0.028 H 
ATOM     52  H3  P7B d   1      48.772  24.750 -18.962  0.00  0.00     0.028 H 
ATOM     53  H4  P7B d   1      48.955  25.845 -20.374  0.00  0.00     0.028 H 
ENDBRANCH  49  50
BRANCH  49  54
ATOM     54  C8  P7B d   1      46.806  26.407 -17.676  0.00  0.00    -0.065 C 
ATOM     55  H5  P7B d   1      46.598  27.334 -17.122  0.00  0.00     0.028 H 
ATOM     56  H6  P7B d   1      47.170  25.638 -16.979  0.00  0.00     0.028 H 
ATOM     57  H7  P7B d   1      45.884  26.055 -18.161  0.00  0.00     0.028 H 
ENDBRANCH  49  54
BRANCH  49  58
ATOM     58  C9  P7B d   1      47.325  27.644 -19.765  0.00  0.00    -0.065 C 
ATOM     59  H8  P7B d   1      48.097  27.832 -20.526  0.00  0.00     0.028 H 
ATOM     60  H9  P7B d   1      47.055  28.591 -19.275  0.00  0.00     0.028 H 
ATOM     61  H10 P7B d   1      46.434  27.213 -20.245  0.00  0.00     0.028 H 
ENDBRANCH  49  58
ENDBRANCH   1  49
TORSDOF 7
