REMARK  12 active torsions:
REMARK  status: ('A' for Active; 'I' for Inactive)
REMARK    1  A    between atoms: C36_34  and  N2_2 
REMARK    2  A    between atoms: N2_2  and  C37_35 
REMARK    3  A    between atoms: N2_2  and  C38_36 
REMARK    4  A    between atoms: C3_5  and  N12_13 
REMARK    5  A    between atoms: C10_10  and  C4_6 
REMARK    6  A    between atoms: C14_15  and  C7_8 
REMARK    7  A    between atoms: C14_15  and  C8_9 
REMARK       I    between atoms: N26_27  and  C10_10 
REMARK    8  A    between atoms: C11_11  and  C14_15 
REMARK       I    between atoms: N12_13  and  C13_14 
REMARK    9  A    between atoms: C14_15  and  C22_22 
REMARK   10  A    between atoms: N15_17  and  C16_18 
REMARK   11  A    between atoms: C35_33  and  N29_29 
REMARK   12  A    between atoms: C35_33  and  C36_34 
ROOT
ATOM      1  S2  P7C d   1      49.238  28.329 -19.576  0.00  0.00    -0.075 SA
ATOM      2  C3  P7C d   1      50.389  28.568 -18.316  0.00  0.00     0.093 A 
ATOM      3  C4  P7C d   1      49.910  27.815 -17.204  0.00  0.00     0.067 A 
ATOM      4  C5  P7C d   1      48.769  27.069 -17.431  0.00  0.00    -0.051 A 
ATOM      5  C11 P7C d   1      48.253  27.243 -18.707  0.00  0.00    -0.007 A 
ATOM      6  H2  P7C d   1      48.322  26.413 -16.686  0.00  0.00     0.086 H 
ENDROOT
BRANCH   3   7
ATOM      7  C10 P7C d   1      50.716  27.772 -15.947  0.00  0.00     0.256 C 
ATOM      8  O11 P7C d   1      51.908  27.755 -16.145  0.00  0.00    -0.267 OA
ATOM      9  N26 P7C d   1      50.273  27.677 -14.664  0.00  0.00    -0.346 N 
ATOM     10  C25 P7C d   1      48.965  28.113 -14.170  0.00  0.00     0.013 C 
ATOM     11  C34 P7C d   1      51.174  26.978 -13.740  0.00  0.00     0.006 C 
ATOM     12  C28 P7C d   1      49.142  29.156 -13.074  0.00  0.00     0.013 C 
ATOM     13  H17 P7C d   1      48.422  27.247 -13.764  0.00  0.00     0.066 H 
ATOM     14  H18 P7C d   1      48.390  28.550 -14.999  0.00  0.00     0.066 H 
ATOM     15  N29 P7C d   1      49.330  28.555 -11.744  0.00  0.00    -0.349 N 
ATOM     16  H19 P7C d   1      48.247  29.795 -13.048  0.00  0.00     0.066 H 
ATOM     17  H20 P7C d   1      50.024  29.769 -13.311  0.00  0.00     0.066 H 
ATOM     18  C26 P7C d   1      50.589  28.111 -11.431  0.00  0.00     0.221 C 
ATOM     19  C33 P7C d   1      51.619  27.888 -12.556  0.00  0.00     0.024 C 
ATOM     20  O33 P7C d   1      50.816  27.680 -10.297  0.00  0.00    -0.273 OA
ATOM     21  H21 P7C d   1      52.513  27.434 -12.104  0.00  0.00     0.049 H 
ATOM     22  H22 P7C d   1      51.878  28.873 -12.971  0.00  0.00     0.049 H 
ATOM     23  H23 P7C d   1      52.068  26.653 -14.293  0.00  0.00     0.065 H 
ATOM     24  H24 P7C d   1      50.654  26.098 -13.335  0.00  0.00     0.065 H 
BRANCH  15  25
ATOM     25  C35 P7C d   1      48.447  29.131 -10.702  0.00  0.00     0.020 C 
ATOM     26  H25 P7C d   1      48.314  30.195 -10.949  0.00  0.00     0.066 H 
ATOM     27  H26 P7C d   1      48.982  29.041  -9.745  0.00  0.00     0.066 H 
BRANCH  25  28
ATOM     28  C36 P7C d   1      47.038  28.542 -10.485  0.00  0.00     0.097 C 
ATOM     29  H27 P7C d   1      46.638  28.936  -9.540  0.00  0.00     0.078 H 
ATOM     30  H28 P7C d   1      46.395  28.862 -11.318  0.00  0.00     0.078 H 
BRANCH  28  31
ATOM     31  N2  P7C d   1      47.020  27.041 -10.420  0.00  0.00    -0.077 N 
ATOM     32  H1  P7C d   1      47.874  26.785 -10.891  0.00  0.00     0.279 HD
BRANCH  31  33
ATOM     33  C37 P7C d   1      47.198  26.478  -9.044  0.00  0.00     0.066 C 
ATOM     34  H29 P7C d   1      47.172  25.379  -9.091  0.00  0.00     0.068 H 
ATOM     35  H30 P7C d   1      46.387  26.836  -8.393  0.00  0.00     0.068 H 
ATOM     36  H31 P7C d   1      48.166  26.805  -8.637  0.00  0.00     0.068 H 
ENDBRANCH  31  33
BRANCH  31  37
ATOM     37  C38 P7C d   1      45.967  26.341 -11.226  0.00  0.00     0.066 C 
ATOM     38  H32 P7C d   1      45.895  26.808 -12.219  0.00  0.00     0.068 H 
ATOM     39  H33 P7C d   1      44.998  26.421 -10.712  0.00  0.00     0.068 H 
ATOM     40  H34 P7C d   1      46.236  25.280 -11.338  0.00  0.00     0.068 H 
ENDBRANCH  31  37
ENDBRANCH  28  31
ENDBRANCH  25  28
ENDBRANCH  15  25
ENDBRANCH   3   7
BRANCH   2  41
ATOM     41  N12 P7C d   1      51.481  29.374 -18.403  0.00  0.00    -0.313 N 
ATOM     42  C13 P7C d   1      51.769  30.249 -19.394  0.00  0.00     0.257 C 
ATOM     43  O14 P7C d   1      50.796  30.518 -20.256  0.00  0.00    -0.151 OA
ATOM     44  N15 P7C d   1      52.955  30.809 -19.522  0.00  0.00    -0.319 N 
ATOM     45  H10 P7C d   1      53.634  30.526 -18.844  0.00  0.00     0.169 HD
ATOM     46  H9  P7C d   1      52.142  29.314 -17.655  0.00  0.00     0.170 HD
BRANCH  44  47
ATOM     47  C16 P7C d   1      53.401  31.727 -20.451  0.00  0.00     0.059 A 
ATOM     48  C17 P7C d   1      52.642  32.845 -20.819  0.00  0.00    -0.055 A 
ATOM     49  C23 P7C d   1      53.070  33.792 -21.754  0.00  0.00    -0.079 A 
ATOM     50  H11 P7C d   1      51.672  32.983 -20.355  0.00  0.00     0.087 H 
ATOM     51  C19 P7C d   1      54.308  33.635 -22.396  0.00  0.00    -0.060 A 
ATOM     52  H16 P7C d   1      52.445  34.648 -21.983  0.00  0.00     0.083 H 
ATOM     53  C20 P7C d   1      55.092  32.535 -22.050  0.00  0.00     0.058 A 
ATOM     54  H12 P7C d   1      54.645  34.348 -23.139  0.00  0.00     0.086 H 
ATOM     55 CL2  P7C d   1      56.605  32.344 -22.908  0.00  0.00    -0.082 Cl
ATOM     56  C24 P7C d   1      54.628  31.618 -21.102  0.00  0.00     0.082 A 
ATOM     57 CL1  P7C d   1      55.666  30.267 -20.758  0.00  0.00    -0.080 Cl
ENDBRANCH  44  47
ENDBRANCH   2  41
BRANCH   5  58
ATOM     58  C14 P7C d   1      46.965  26.612 -19.203  0.00  0.00    -0.018 C 
BRANCH  58  59
ATOM     59  C7  P7C d   1      47.368  25.550 -20.211  0.00  0.00    -0.065 C 
ATOM     60  H3  P7C d   1      46.467  25.058 -20.605  0.00  0.00     0.028 H 
ATOM     61  H4  P7C d   1      48.009  24.803 -19.720  0.00  0.00     0.028 H 
ATOM     62  H5  P7C d   1      47.920  26.020 -21.038  0.00  0.00     0.028 H 
ENDBRANCH  58  59
BRANCH  58  63
ATOM     63  C8  P7C d   1      45.998  26.389 -18.055  0.00  0.00    -0.065 C 
ATOM     64  H6  P7C d   1      45.886  27.322 -17.483  0.00  0.00     0.028 H 
ATOM     65  H7  P7C d   1      46.387  25.599 -17.396  0.00  0.00     0.028 H 
ATOM     66  H8  P7C d   1      45.019  26.084 -18.454  0.00  0.00     0.028 H 
ENDBRANCH  58  63
BRANCH  58  67
ATOM     67  C22 P7C d   1      46.147  27.536 -20.124  0.00  0.00    -0.065 C 
ATOM     68  H13 P7C d   1      46.741  27.783 -21.016  0.00  0.00     0.028 H 
ATOM     69  H14 P7C d   1      45.894  28.461 -19.584  0.00  0.00     0.028 H 
ATOM     70  H15 P7C d   1      45.222  27.024 -20.429  0.00  0.00     0.028 H 
ENDBRANCH  58  67
ENDBRANCH   5  58
TORSDOF 12
