REMARK  12 active torsions:
REMARK  status: ('A' for Active; 'I' for Inactive)
REMARK    1  A    between atoms: CA_3  and  C_1 
REMARK    2  A    between atoms: CA_3  and  N_2 
REMARK    3  A    between atoms: CB_4  and  CA_3 
REMARK    4  A    between atoms: CG_7  and  CB_4 
REMARK    5  A    between atoms: NE_6  and  CD_5 
REMARK    6  A    between atoms: CD_5  and  CG_7 
REMARK    7  A    between atoms: CZ_8  and  NE_6 
REMARK    8  A    between atoms: CH1_11  and  CZ_8 
REMARK    9  A    between atoms: CZ_8  and  NH2_12 
REMARK   10  A    between atoms: CT1_15  and  CH1_11 
REMARK   11  A    between atoms: CI1_13  and  CK1_14 
REMARK   12  A    between atoms: CI1_13  and  CT1_15 
ROOT
ATOM      1  NE  LN7 d   1     -25.448  19.749 -17.461  0.00  0.00    -0.046 N 
ATOM      2  H   LN7 d   1     -25.138  18.782 -17.365  0.00  0.00     0.279 HD
ATOM      3  H   LN7 d   1     -26.428  19.904 -17.227  0.00  0.00     0.279 HD
ENDROOT
BRANCH   1   4
ATOM      4  CD  LN7 d   1     -25.280  20.117 -18.876  0.00  0.00     0.084 C 
ATOM      5  H   LN7 d   1     -24.266  19.883 -19.202  0.00  0.00     0.075 H 
ATOM      6  H   LN7 d   1     -25.450  21.186 -19.003  0.00  0.00     0.075 H 
BRANCH   4   7
ATOM      7  CG  LN7 d   1     -26.297  19.321 -19.717  0.00  0.00    -0.040 C 
ATOM      8  H   LN7 d   1     -26.090  18.257 -19.606  0.00  0.00     0.035 H 
ATOM      9  H   LN7 d   1     -27.303  19.556 -19.369  0.00  0.00     0.035 H 
BRANCH   7  10
ATOM     10  CB  LN7 d   1     -26.186  19.695 -21.196  0.00  0.00    -0.027 C 
ATOM     11  H   LN7 d   1     -26.397  20.761 -21.288  0.00  0.00     0.036 H 
ATOM     12  H   LN7 d   1     -25.183  19.433 -21.533  0.00  0.00     0.036 H 
BRANCH  10  13
ATOM     13  CA  LN7 d   1     -27.187  18.941 -22.073  0.00  0.00     0.182 C 
ATOM     14  H   LN7 d   1     -27.038  17.867 -21.965  0.00  0.00     0.101 H 
BRANCH  13  15
ATOM     15  C   LN7 d   1     -28.611  19.324 -21.637  0.00  0.00     0.204 C 
ATOM     16  OA1 LN7 d   1     -29.120  18.668 -20.696  0.00  0.00    -0.646 OA
ATOM     17  OA2 LN7 d   1     -29.149  20.279 -22.251  0.00  0.00    -0.646 OA
ENDBRANCH  13  15
BRANCH  13  18
ATOM     18  N   LN7 d   1     -26.990  19.321 -23.491  0.00  0.00    -0.065 N 
ATOM     19  H   LN7 d   1     -27.659  18.817 -24.073  0.00  0.00     0.275 HD
ATOM     20  H   LN7 d   1     -27.136  20.325 -23.596  0.00  0.00     0.275 HD
ATOM     21  H   LN7 d   1     -26.041  19.082 -23.777  0.00  0.00     0.275 HD
ENDBRANCH  13  18
ENDBRANCH  10  13
ENDBRANCH   7  10
ENDBRANCH   4   7
ENDBRANCH   1   4
BRANCH   1  22
ATOM     22  CZ  LN7 d   1     -24.645  20.556 -16.519  0.00  0.00     0.250 C 
ATOM     23  H   LN7 d   1     -23.564  20.462 -16.624  0.00  0.00     0.130 H 
BRANCH  22  24
ATOM     24  CH1 LN7 d   1     -25.028  22.026 -16.791  0.00  0.00    -0.014 C 
ATOM     25  H   LN7 d   1     -24.829  22.210 -17.847  0.00  0.00     0.038 H 
ATOM     26  H   LN7 d   1     -24.449  22.633 -16.095  0.00  0.00     0.038 H 
BRANCH  24  27
ATOM     27  CT1 LN7 d   1     -26.494  22.372 -16.556  0.00  0.00    -0.062 C 
ATOM     28  H   LN7 d   1     -27.146  21.757 -17.176  0.00  0.00     0.033 H 
ATOM     29  H   LN7 d   1     -26.701  23.407 -16.828  0.00  0.00     0.033 H 
BRANCH  27  30
ATOM     30  CI1 LN7 d   1     -26.758  22.131 -15.076  0.00  0.00    -0.068 C 
ATOM     31  H   LN7 d   1     -27.790  22.398 -14.850  0.00  0.00     0.032 H 
ATOM     32  H   LN7 d   1     -26.582  21.079 -14.849  0.00  0.00     0.032 H 
BRANCH  30  33
ATOM     33  CK1 LN7 d   1     -25.819  22.992 -14.223  0.00  0.00    -0.077 C 
ATOM     34  H   LN7 d   1     -24.785  22.732 -14.448  0.00  0.00     0.027 H 
ATOM     35  H   LN7 d   1     -25.988  24.045 -14.449  0.00  0.00     0.027 H 
ATOM     36  H   LN7 d   1     -26.019  22.809 -13.167  0.00  0.00     0.027 H 
ENDBRANCH  30  33
ENDBRANCH  27  30
ENDBRANCH  24  27
ENDBRANCH  22  24
BRANCH  22  37
ATOM     37  NH2 LN7 d   1     -25.013  20.092 -15.175  0.00  0.00    -0.050 N 
ATOM     38  H   LN7 d   1     -24.732  19.118 -15.064  0.00  0.00     0.276 HD
ATOM     39  H   LN7 d   1     -24.539  20.665 -14.477  0.00  0.00     0.276 HD
ATOM     40  H   LN7 d   1     -26.023  20.172 -15.054  0.00  0.00     0.276 HD
ENDBRANCH  22  37
ENDBRANCH   1  22
TORSDOF 12
