REMARK  2 active torsions:
REMARK  status: ('A' for Active; 'I' for Inactive)
REMARK    1  A    between atoms: C5_5  and  C7_7 
REMARK       I    between atoms: C7_7  and  N10_10 
REMARK    2  A    between atoms: C15_15  and  N16_16 
ROOT
ATOM      1  C7  P8H d   1      21.139  30.503 -13.097  0.00  0.00     0.255 C 
ATOM      2  O9  P8H d   1      21.276  31.474 -12.359  0.00  0.00    -0.267 OA
ATOM      3  N10 P8H d   1      22.107  30.219 -13.978  0.00  0.00    -0.348 N 
ATOM      4  C11 P8H d   1      22.014  29.059 -14.885  0.00  0.00    -0.000 C 
ATOM      5  C12 P8H d   1      23.139  28.117 -14.436  0.00  0.00    -0.021 C 
ATOM      6  C13 P8H d   1      23.385  30.994 -13.980  0.00  0.00    -0.000 C 
ATOM      7  C14 P8H d   1      24.561  30.047 -13.654  0.00  0.00    -0.021 C 
ATOM      8  C15 P8H d   1      24.525  28.793 -14.534  0.00  0.00     0.138 C 
ATOM      9  H   P8H d   1      22.123  29.352 -15.929  0.00  0.00     0.064 H 
ATOM     10  H   P8H d   1      21.037  28.579 -14.830  0.00  0.00     0.064 H 
ATOM     11  H   P8H d   1      23.136  27.244 -15.088  0.00  0.00     0.038 H 
ATOM     12  H   P8H d   1      22.963  27.844 -13.396  0.00  0.00     0.038 H 
ATOM     13  H   P8H d   1      23.334  31.782 -13.229  0.00  0.00     0.064 H 
ATOM     14  H   P8H d   1      23.539  31.439 -14.963  0.00  0.00     0.064 H 
ATOM     15  H   P8H d   1      24.482  29.742 -12.611  0.00  0.00     0.038 H 
ATOM     16  H   P8H d   1      25.495  30.576 -13.841  0.00  0.00     0.038 H 
ATOM     17  H   P8H d   1      24.706  29.099 -15.564  0.00  0.00     0.088 H 
ENDROOT
BRANCH   8  18
ATOM     18  N16 P8H d   1      25.573  27.843 -14.149  0.00  0.00     0.093 N 
ATOM     19  C17 P8H d   1      25.736  26.783 -15.169  0.00  0.00     0.114 C 
ATOM     20  C18 P8H d   1      27.185  26.287 -14.997  0.00  0.00    -0.038 C 
ATOM     21  H   P8H d   1      25.553  27.159 -16.176  0.00  0.00     0.079 H 
ATOM     22  H   P8H d   1      25.014  25.978 -15.035  0.00  0.00     0.079 H 
ATOM     23  C19 P8H d   1      27.829  27.276 -14.029  0.00  0.00    -0.038 C 
ATOM     24  H   P8H d   1      27.715  26.250 -15.949  0.00  0.00     0.035 H 
ATOM     25  H   P8H d   1      27.220  25.267 -14.615  0.00  0.00     0.035 H 
ATOM     26  C20 P8H d   1      26.900  28.481 -14.080  0.00  0.00     0.114 C 
ATOM     27  H   P8H d   1      28.853  27.526 -14.307  0.00  0.00     0.035 H 
ATOM     28  H   P8H d   1      27.930  26.869 -13.023  0.00  0.00     0.035 H 
ATOM     29  H   P8H d   1      27.013  29.150 -13.227  0.00  0.00     0.079 H 
ATOM     30  H   P8H d   1      27.103  29.147 -14.919  0.00  0.00     0.079 H 
ENDBRANCH   8  18
BRANCH   1  31
ATOM     31  C5  P8H d   1      19.812  29.753 -13.076  0.00  0.00     0.051 A 
ATOM     32  C4  P8H d   1      18.682  30.424 -13.547  0.00  0.00     0.017 A 
ATOM     33  N3  P8H d   1      17.494  29.839 -13.560  0.00  0.00    -0.271 NA
ATOM     34  H   P8H d   1      18.779  31.447 -13.910  0.00  0.00     0.116 H 
ATOM     35  C2  P8H d   1      17.337  28.599 -13.127  0.00  0.00     0.019 A 
ATOM     36  C1  P8H d   1      18.421  27.882 -12.639  0.00  0.00     0.029 A 
ATOM     37  H   P8H d   1      16.350  28.137 -13.153  0.00  0.00     0.116 H 
ATOM     38  C6  P8H d   1      19.689  28.454 -12.601  0.00  0.00    -0.048 A 
ATOM     39 BR8  P8H d   1      18.137  26.124 -12.017  0.00  0.00    -0.050 Br
ATOM     40  H   P8H d   1      20.549  27.906 -12.215  0.00  0.00     0.087 H 
ENDBRANCH   1  31
TORSDOF 2
