REMARK WARNING: 32 MAX_TORS EXCEEDED!!!
REMARK  35 active torsions:
REMARK  status: ('A' for Active; 'I' for Inactive)
REMARK    1  A    between atoms: C_1  and  CH3_3 
REMARK       I    between atoms: N_4  and  C_1 
REMARK    2  A    between atoms: C_6  and  CA_5 
REMARK       I    between atoms: N_11  and  C_6 
REMARK    3  A    between atoms: CA_12  and  N_11 
REMARK    4  A    between atoms: C_13  and  CA_12 
REMARK    5  A    between atoms: CA_12  and  CB_15 
REMARK       I    between atoms: N_21  and  C_13 
REMARK    6  A    between atoms: CB_15  and  CG_16 
REMARK    7  A    between atoms: CG_16  and  CD_17 
REMARK    8  A    between atoms: CA_31  and  C_20 
REMARK       I    between atoms: C_20  and  N_40 
REMARK    9  A    between atoms: N1_23  and  O2_24 
REMARK   10  A    between atoms: O2_24  and  CG_34 
REMARK   11  A    between atoms: O4_26  and  C4_25 
REMARK   12  A    between atoms: C7_29  and  O4_26 
REMARK   13  A    between atoms: C6_28  and  O5_27 
REMARK   14  A    between atoms: O5_27  and  C14_39 
REMARK   15  A    between atoms: C12_37  and  C13_38 
REMARK   16  A    between atoms: N_40  and  CA_41 
REMARK   17  A    between atoms: CA_41  and  C_42 
REMARK   18  A    between atoms: CA_41  and  CB_44 
REMARK       I    between atoms: C_42  and  N_47 
REMARK   19  A    between atoms: CB_44  and  OG1_45 
REMARK   20  A    between atoms: CB_44  and  CG2_46 
REMARK   21  A    between atoms: N_47  and  CA_48 
REMARK   22  A    between atoms: CA_48  and  C_49 
REMARK   23  A    between atoms: CA_48  and  CB_51 
REMARK       I    between atoms: C_49  and  N_52 
REMARK   24  A    between atoms: CA_53  and  C_54 
REMARK       I    between atoms: C_54  and  N_59 
REMARK   25  A    between atoms: CA_60  and  C_61 
REMARK       I    between atoms: C_61  and  N_66 
REMARK   26  A    between atoms: N_66  and  CA_67 
REMARK   27  A    between atoms: CA_67  and  C_68 
REMARK   28  A    between atoms: CA_67  and  CB_70 
REMARK       I    between atoms: C_68  and  N_75 
REMARK   29  A    between atoms: CB_70  and  CG_71 
REMARK   30  A    between atoms: CG_71  and  CD_72 
REMARK   31  A    between atoms: N_75  and  CA_76 
REMARK   32  A    between atoms: CA_76  and  C_77 
REMARK   33  A    between atoms: CA_76  and  CB_79 
REMARK       I    between atoms: C_77  and  N_84 
REMARK   34  A    between atoms: CB_79  and  CG_80 
REMARK   35  A    between atoms: CG_80  and  CD_81 
ROOT
ATOM      1  CA  THR d   1      -1.496   7.616   2.083  0.00  0.00     0.113 C 
ATOM      2  H   THR d   1      -0.480   7.709   1.699  0.00  0.00     0.091 H 
ENDROOT
BRANCH   1   3
ATOM      3  N   THR d   1      -1.825   6.190   2.066  0.00  0.00    -0.344 N 
ATOM      4  C   ZYJ d   1      -1.199   5.343   1.255  0.00  0.00     0.241 C 
ATOM      5  O   ZYJ d   1      -0.347   5.710   0.448  0.00  0.00    -0.271 OA
ATOM      6  H   THR d   1      -2.551   5.838   2.690  0.00  0.00     0.163 HD
BRANCH   4   7
ATOM      7  CA  ZYJ d   1      -1.603   3.870   1.348  0.00  0.00     0.094 C 
ATOM      8  N   ZYJ d   1      -2.018   3.321   0.054  0.00  0.00    -0.334 N 
ATOM      9  C   GLU d   1      -2.638   4.108  -0.837  0.00  0.00     0.243 C 
ATOM     10  CD  ZYJ d   1      -1.366   2.020  -0.196  0.00  0.00     0.025 C 
ATOM     11  O   GLU d   1      -2.907   5.286  -0.605  0.00  0.00    -0.271 OA
ATOM     12  CG  ZYJ d   1      -0.855   1.638   1.184  0.00  0.00     0.085 C 
ATOM     13  H   ZYJ d   1      -0.575   2.075  -0.944  0.00  0.00     0.068 H 
ATOM     14  H   ZYJ d   1      -2.042   1.278  -0.622  0.00  0.00     0.068 H 
ATOM     15  CB  ZYJ d   1      -0.437   2.967   1.739  0.00  0.00    -0.010 C 
ATOM     16  H   ZYJ d   1      -0.028   0.928   1.183  0.00  0.00     0.089 H 
ATOM     17  H   ZYJ d   1      -0.257   2.943   2.814  0.00  0.00     0.040 H 
ATOM     18  H   ZYJ d   1       0.520   3.312   1.347  0.00  0.00     0.040 H 
ATOM     19  H   ZYJ d   1      -2.404   3.874   2.087  0.00  0.00     0.088 H 
BRANCH   9  20
ATOM     20  CA  GLU d   1      -3.039   3.487  -2.158  0.00  0.00     0.090 C 
ATOM     21  H   GLU d   1      -2.823   2.420  -2.206  0.00  0.00     0.087 H 
BRANCH  20  22
ATOM     22  N   GLU d   1      -4.470   3.754  -2.277  0.00  0.00    -0.346 N 
ATOM     23  C   PRO d   1      -5.325   2.821  -2.673  0.00  0.00     0.241 C 
ATOM     24  O   PRO d   1      -4.976   1.699  -3.007  0.00  0.00    -0.271 OA
ATOM     25  H   GLU d   1      -4.822   4.684  -2.049  0.00  0.00     0.163 HD
BRANCH  23  26
ATOM     26  CA  PRO d   1      -6.793   3.233  -2.721  0.00  0.00     0.091 C 
ATOM     27  N   PRO d   1      -7.469   2.825  -3.953  0.00  0.00    -0.339 N 
ATOM     28  C   ACE d   1      -6.866   2.885  -5.154  0.00  0.00     0.216 C 
ATOM     29  CD  PRO d   1      -8.818   2.313  -3.655  0.00  0.00    -0.001 C 
ATOM     30  O   ACE d   1      -5.700   3.268  -5.284  0.00  0.00    -0.274 OA
ATOM     31  CG  PRO d   1      -9.019   2.745  -2.205  0.00  0.00    -0.048 C 
ATOM     32  H   PRO d   1      -8.908   1.236  -3.797  0.00  0.00     0.064 H 
ATOM     33  H   PRO d   1      -9.582   2.703  -4.328  0.00  0.00     0.064 H 
ATOM     34  CB  PRO d   1      -7.638   2.572  -1.643  0.00  0.00    -0.036 C 
ATOM     35  H   PRO d   1      -9.406   3.759  -2.103  0.00  0.00     0.035 H 
ATOM     36  H   PRO d   1      -9.778   2.165  -1.680  0.00  0.00     0.035 H 
ATOM     37  H   PRO d   1      -7.509   3.012  -0.654  0.00  0.00     0.036 H 
ATOM     38  H   PRO d   1      -7.370   1.533  -1.451  0.00  0.00     0.036 H 
ATOM     39  H   PRO d   1      -6.732   4.316  -2.609  0.00  0.00     0.087 H 
BRANCH  28  40
ATOM     40  CH3 ACE d   1      -7.666   2.441  -6.349  0.00  0.00    -0.003 C 
ATOM     41  H   ACE d   1      -7.743   3.264  -7.059  0.00  0.00     0.040 H 
ATOM     42  H   ACE d   1      -7.169   1.595  -6.824  0.00  0.00     0.040 H 
ATOM     43  H   ACE d   1      -8.664   2.143  -6.026  0.00  0.00     0.040 H 
ENDBRANCH  28  40
ENDBRANCH  23  26
ENDBRANCH  20  22
BRANCH  20  44
ATOM     44  CB  GLU d   1      -2.259   4.155  -3.304  0.00  0.00    -0.029 C 
ATOM     45  H   GLU d   1      -2.557   5.203  -3.321  0.00  0.00     0.037 H 
ATOM     46  H   GLU d   1      -2.492   3.598  -4.212  0.00  0.00     0.037 H 
BRANCH  44  47
ATOM     47  CG  GLU d   1      -0.729   4.129  -3.145  0.00  0.00     0.018 C 
ATOM     48  H   GLU d   1      -0.398   3.107  -3.328  0.00  0.00     0.049 H 
ATOM     49  H   GLU d   1      -0.498   4.488  -2.142  0.00  0.00     0.049 H 
BRANCH  47  50
ATOM     50  CD  GLU d   1       0.005   5.036  -4.140  0.00  0.00     0.172 C 
ATOM     51  OE1 GLU d   1      -0.207   4.912  -5.368  0.00  0.00    -0.648 OA
ATOM     52  OE2 GLU d   1       0.813   5.879  -3.697  0.00  0.00    -0.648 OA
ENDBRANCH  47  50
ENDBRANCH  44  47
ENDBRANCH  20  44
ENDBRANCH   9  20
BRANCH  12  53
ATOM     53  O2  ZYJ d   1      -1.791   0.911   1.941  0.00  0.00    -0.249 OA
BRANCH  53  54
ATOM     54  N1  ZYJ d   1      -1.267   0.074   2.824  0.00  0.00    -0.145 NA
ATOM     55  C13 ZYJ d   1      -0.357  -0.734   2.548  0.00  0.00     0.038 C 
ATOM     56  H   ZYJ d   1       0.078  -0.750   1.549  0.00  0.00     0.119 H 
BRANCH  55  57
ATOM     57  C12 ZYJ d   1       0.203  -1.817   3.748  0.00  0.00    -0.014 A 
ATOM     58  C10 ZYJ d   1       1.541  -1.756   4.209  0.00  0.00    -0.037 A 
ATOM     59  C7  ZYJ d   1       1.990  -2.632   5.234  0.00  0.00     0.102 A 
ATOM     60  H   ZYJ d   1       2.231  -1.032   3.775  0.00  0.00     0.089 H 
ATOM     61  C6  ZYJ d   1       1.090  -3.576   5.800  0.00  0.00     0.101 A 
ATOM     62  C9  ZYJ d   1      -0.250  -3.637   5.333  0.00  0.00    -0.047 A 
ATOM     63  C11 ZYJ d   1      -0.692  -2.761   4.310  0.00  0.00    -0.069 A 
ATOM     64  H   ZYJ d   1      -0.942  -4.361   5.763  0.00  0.00     0.087 H 
ATOM     65  H   ZYJ d   1      -1.721  -2.814   3.955  0.00  0.00     0.085 H 
BRANCH  59  66
ATOM     66  O4  ZYJ d   1       3.326  -2.532   5.703  0.00  0.00    -0.353 OA
BRANCH  66  67
ATOM     67  C4  ZYJ d   1       4.304  -2.554   4.670  0.00  0.00     0.010 C 
ATOM     68  H   ZYJ d   1       4.225  -3.490   4.117  0.00  0.00     0.066 H 
ATOM     69  H   ZYJ d   1       4.136  -1.716   3.994  0.00  0.00     0.066 H 
ATOM     70  H   ZYJ d   1       5.298  -2.473   5.111  0.00  0.00     0.066 H 
ENDBRANCH  66  67
ENDBRANCH  59  66
BRANCH  61  71
ATOM     71  O5  ZYJ d   1       1.519  -4.443   6.841  0.00  0.00    -0.353 OA
BRANCH  71  72
ATOM     72  C14 ZYJ d   1       1.697  -5.789   6.419  0.00  0.00     0.010 C 
ATOM     73  H   ZYJ d   1       0.752  -6.177   6.038  0.00  0.00     0.066 H 
ATOM     74  H   ZYJ d   1       2.450  -5.825   5.632  0.00  0.00     0.066 H 
ATOM     75  H   ZYJ d   1       2.025  -6.393   7.265  0.00  0.00     0.066 H 
ENDBRANCH  71  72
ENDBRANCH  61  71
ENDBRANCH  55  57
ENDBRANCH  53  54
ENDBRANCH  12  53
ENDBRANCH   4   7
ENDBRANCH   1   3
BRANCH   1  76
ATOM     76  C   THR d   1      -1.604   8.150   3.505  0.00  0.00     0.243 C 
ATOM     77  O   THR d   1      -2.419   7.671   4.293  0.00  0.00    -0.271 OA
ATOM     78  N   ALA d   1      -0.777   9.139   3.822  0.00  0.00    -0.346 N 
ATOM     79  H   ALA d   1      -0.126   9.484   3.116  0.00  0.00     0.163 HD
BRANCH  78  80
ATOM     80  CA  ALA d   1      -0.770   9.747   5.145  0.00  0.00     0.086 C 
ATOM     81  H   ALA d   1      -1.718   9.544   5.643  0.00  0.00     0.086 H 
BRANCH  80  82
ATOM     82  C   ALA d   1      -0.581  11.251   5.001  0.00  0.00     0.243 C 
ATOM     83  O   ALA d   1       0.007  11.717   4.026  0.00  0.00    -0.271 OA
ATOM     84  N   PRO d   1      -1.085  12.031   5.971  0.00  0.00    -0.337 N 
ATOM     85  CA  PRO d   1      -0.961  13.492   5.938  0.00  0.00     0.092 C 
ATOM     86  CD  PRO d   1      -1.804  11.593   7.182  0.00  0.00    -0.001 C 
ATOM     87  CB  PRO d   1      -1.843  13.934   7.102  0.00  0.00    -0.036 C 
ATOM     88  H   PRO d   1      -1.268  13.926   4.986  0.00  0.00     0.087 H 
ATOM     89  CG  PRO d   1      -1.693  12.807   8.078  0.00  0.00    -0.048 C 
ATOM     90  H   PRO d   1      -2.878  14.106   6.808  0.00  0.00     0.036 H 
ATOM     91  H   PRO d   1      -1.547  14.897   7.517  0.00  0.00     0.036 H 
ATOM     92  H   PRO d   1      -2.438  12.824   8.873  0.00  0.00     0.035 H 
ATOM     93  H   PRO d   1      -0.759  12.844   8.638  0.00  0.00     0.035 H 
ATOM     94  H   PRO d   1      -1.385  10.691   7.628  0.00  0.00     0.064 H 
ATOM     95  H   PRO d   1      -2.834  11.297   6.986  0.00  0.00     0.064 H 
BRANCH  85  96
ATOM     96  C   PRO d   1       0.489  13.956   6.089  0.00  0.00     0.243 C 
ATOM     97  O   PRO d   1       1.296  13.294   6.734  0.00  0.00    -0.271 OA
ATOM     98  N   PRO d   1       0.836  15.104   5.487  0.00  0.00    -0.337 N 
ATOM     99  CA  PRO d   1       2.205  15.622   5.580  0.00  0.00     0.091 C 
ATOM    100  CD  PRO d   1      -0.020  16.020   4.714  0.00  0.00    -0.001 C 
ATOM    101  CB  PRO d   1       2.165  16.865   4.693  0.00  0.00    -0.036 C 
ATOM    102  H   PRO d   1       2.955  14.900   5.257  0.00  0.00     0.087 H 
ATOM    103  CG  PRO d   1       0.747  17.318   4.804  0.00  0.00    -0.048 C 
ATOM    104  H   PRO d   1       2.461  16.657   3.665  0.00  0.00     0.036 H 
ATOM    105  H   PRO d   1       2.876  17.629   5.007  0.00  0.00     0.036 H 
ATOM    106  H   PRO d   1       0.466  18.034   4.032  0.00  0.00     0.035 H 
ATOM    107  H   PRO d   1       0.546  17.870   5.722  0.00  0.00     0.035 H 
ATOM    108  H   PRO d   1      -1.036  16.091   5.102  0.00  0.00     0.064 H 
ATOM    109  H   PRO d   1      -0.191  15.690   3.689  0.00  0.00     0.064 H 
BRANCH  99 110
ATOM    110  C   PRO d   1       2.615  15.933   7.015  0.00  0.00     0.241 C 
ATOM    111  O   PRO d   1       1.805  16.401   7.815  0.00  0.00    -0.271 OA
ATOM    112  N   GLU d   1       3.877  15.668   7.338  0.00  0.00    -0.346 N 
ATOM    113  H   GLU d   1       4.506  15.288   6.631  0.00  0.00     0.163 HD
BRANCH 112 114
ATOM    114  CA  GLU d   1       4.377  15.911   8.683  0.00  0.00     0.090 C 
ATOM    115  H   GLU d   1       3.822  15.261   9.360  0.00  0.00     0.087 H 
BRANCH 114 116
ATOM    116  C   GLU d   1       4.153  17.357   9.098  0.00  0.00     0.241 C 
ATOM    117  O   GLU d   1       4.318  18.280   8.299  0.00  0.00    -0.271 OA
ATOM    118  N   GLU d   1       3.775  17.541  10.357  0.00  0.00    -0.346 N 
ATOM    119  H   GLU d   1       3.661  16.727  10.961  0.00  0.00     0.163 HD
BRANCH 118 120
ATOM    120  CA  GLU d   1       3.517  18.864  10.906  0.00  0.00     0.089 C 
ATOM    121  H   GLU d   1       3.715  19.606  10.133  0.00  0.00     0.087 H 
BRANCH 120 122
ATOM    122  C   GLU d   1       4.434  19.144  12.091  0.00  0.00     0.238 C 
ATOM    123  O   GLU d   1       4.722  20.297  12.409  0.00  0.00    -0.271 OA
ATOM    124  N   NH2 d   1       4.898  18.092  12.756  0.00  0.00    -0.368 N 
ATOM    125  H   NH2 d   1       5.514  18.227  13.558  0.00  0.00     0.159 HD
ATOM    126  H   NH2 d   1       4.639  17.149  12.465  0.00  0.00     0.159 HD
ENDBRANCH 120 122
BRANCH 120 127
ATOM    127  CB  GLU d   1       2.058  18.961  11.348  0.00  0.00    -0.029 C 
ATOM    128  H   GLU d   1       1.929  19.935  11.820  0.00  0.00     0.037 H 
ATOM    129  H   GLU d   1       1.865  18.115  12.008  0.00  0.00     0.037 H 
BRANCH 127 130
ATOM    130  CG  GLU d   1       1.058  18.879  10.211  0.00  0.00     0.018 C 
ATOM    131  H   GLU d   1       1.340  18.041   9.574  0.00  0.00     0.049 H 
ATOM    132  H   GLU d   1       1.074  19.830   9.679  0.00  0.00     0.049 H 
BRANCH 130 133
ATOM    133  CD  GLU d   1      -0.357  18.640  10.701  0.00  0.00     0.172 C 
ATOM    134  OE1 GLU d   1      -0.611  18.846  11.906  0.00  0.00    -0.648 OA
ATOM    135  OE2 GLU d   1      -1.216  18.253   9.880  0.00  0.00    -0.648 OA
ENDBRANCH 130 133
ENDBRANCH 127 130
ENDBRANCH 120 127
ENDBRANCH 118 120
ENDBRANCH 114 116
BRANCH 114 136
ATOM    136  CB  GLU d   1       5.870  15.578   8.777  0.00  0.00    -0.029 C 
ATOM    137  H   GLU d   1       6.406  16.286   8.145  0.00  0.00     0.037 H 
ATOM    138  H   GLU d   1       5.997  14.541   8.466  0.00  0.00     0.037 H 
BRANCH 136 139
ATOM    139  CG  GLU d   1       6.427  15.707  10.190  0.00  0.00     0.018 C 
ATOM    140  H   GLU d   1       6.134  16.683  10.577  0.00  0.00     0.049 H 
ATOM    141  H   GLU d   1       7.509  15.583  10.136  0.00  0.00     0.049 H 
BRANCH 139 142
ATOM    142  CD  GLU d   1       5.883  14.648  11.134  0.00  0.00     0.172 C 
ATOM    143  OE1 GLU d   1       5.925  14.867  12.365  0.00  0.00    -0.648 OA
ATOM    144  OE2 GLU d   1       5.427  13.591  10.648  0.00  0.00    -0.648 OA
ENDBRANCH 139 142
ENDBRANCH 136 139
ENDBRANCH 114 136
ENDBRANCH 112 114
ENDBRANCH  99 110
ENDBRANCH  85  96
ENDBRANCH  80  82
BRANCH  80 145
ATOM    145  CB  ALA d   1       0.353   9.159   5.985  0.00  0.00    -0.049 C 
ATOM    146  H   ALA d   1       0.205   8.084   6.086  0.00  0.00     0.030 H 
ATOM    147  H   ALA d   1       1.309   9.351   5.497  0.00  0.00     0.030 H 
ATOM    148  H   ALA d   1       0.347   9.622   6.972  0.00  0.00     0.030 H 
ENDBRANCH  80 145
ENDBRANCH  78  80
ENDBRANCH   1  76
BRANCH   1 149
ATOM    149  CB  THR d   1      -2.439   8.452   1.187  0.00  0.00     0.060 C 
ATOM    150  H   THR d   1      -2.164   9.502   1.282  0.00  0.00     0.086 H 
BRANCH 149 151
ATOM    151  OG1 THR d   1      -3.795   8.273   1.611  0.00  0.00    -0.393 OA
ATOM    152  H   THR d   1      -4.375   8.794   1.051  0.00  0.00     0.210 HD
ENDBRANCH 149 151
BRANCH 149 153
ATOM    153  CG2 THR d   1      -2.297   8.049  -0.273  0.00  0.00    -0.050 C 
ATOM    154  H   THR d   1      -1.269   8.213  -0.596  0.00  0.00     0.031 H 
ATOM    155  H   THR d   1      -2.550   6.995  -0.384  0.00  0.00     0.031 H 
ATOM    156  H   THR d   1      -2.971   8.652  -0.882  0.00  0.00     0.031 H 
ENDBRANCH 149 153
ENDBRANCH   1 149
TORSDOF 35
