REMARK  4 active torsions:
REMARK  status: ('A' for Active; 'I' for Inactive)
REMARK    1  A    between atoms: N2_2  and  C11_11 
REMARK    2  A    between atoms: C9_9  and  N17_17 
REMARK    3  A    between atoms: N17_17  and  C18_18 
REMARK    4  A    between atoms: C20_20  and  C23_23 
ROOT
ATOM      1  C1  P9J d   1      -4.145  32.571  -2.707  0.00  0.00     0.278 C 
ATOM      2  N2  P9J d   1      -4.736  31.756  -3.692  0.00  0.00    -0.218 N 
ATOM      3  C3  P9J d   1      -3.333  33.612  -3.102  0.00  0.00     0.048 A 
ATOM      4  C4  P9J d   1      -2.780  34.471  -2.167  0.00  0.00    -0.067 A 
ATOM      5  C5  P9J d   1      -1.966  35.513  -2.595  0.00  0.00    -0.082 A 
ATOM      6  C6  P9J d   1      -1.706  35.681  -3.950  0.00  0.00    -0.082 A 
ATOM      7  C7  P9J d   1      -2.267  34.808  -4.880  0.00  0.00    -0.068 A 
ATOM      8  C8  P9J d   1      -3.085  33.769  -4.451  0.00  0.00     0.027 A 
ATOM      9  C9  P9J d   1      -3.656  32.860  -5.342  0.00  0.00     0.156 C 
ATOM     10  N10 P9J d   1      -4.418  31.859  -4.878  0.00  0.00    -0.273 N 
ATOM     11  O24 P9J d   1      -4.372  32.419  -1.508  0.00  0.00    -0.265 OA
ATOM     12  H   P9J d   1      -2.981  34.331  -1.105  0.00  0.00     0.085 H 
ATOM     13  H   P9J d   1      -1.531  36.199  -1.868  0.00  0.00     0.083 H 
ATOM     14  H   P9J d   1      -1.063  36.495  -4.285  0.00  0.00     0.083 H 
ATOM     15  H   P9J d   1      -2.065  34.940  -5.943  0.00  0.00     0.085 H 
ATOM     16  H   P9J d   1      -4.749  31.152  -5.535  0.00  0.00     0.189 HD
ENDROOT
BRANCH   9  17
ATOM     17  N17 P9J d   1      -3.461  33.022  -6.649  0.00  0.00    -0.208 NA
BRANCH  17  18
ATOM     18  C18 P9J d   1      -3.938  32.242  -7.623  0.00  0.00     0.173 A 
ATOM     19  C19 P9J d   1      -4.701  31.159  -7.505  0.00  0.00    -0.012 A 
ATOM     20  C20 P9J d   1      -4.917  30.803  -8.768  0.00  0.00     0.028 A 
ATOM     21  H   P9J d   1      -5.061  30.680  -6.595  0.00  0.00     0.092 H 
ATOM     22  N21 P9J d   1      -4.338  31.667  -9.593  0.00  0.00    -0.281 N 
ATOM     23  N22 P9J d   1      -3.771  32.529  -8.915  0.00  0.00    -0.154 NA
ATOM     24  H   P9J d   1      -4.358  31.626 -10.612  0.00  0.00     0.189 HD
BRANCH  20  25
ATOM     25  C23 P9J d   1      -5.711  29.588  -9.236  0.00  0.00    -0.036 C 
ATOM     26  H   P9J d   1      -5.248  28.681  -8.847  0.00  0.00     0.035 H 
ATOM     27  H   P9J d   1      -6.735  29.661  -8.869  0.00  0.00     0.035 H 
ATOM     28  H   P9J d   1      -5.716  29.556 -10.325  0.00  0.00     0.035 H 
ENDBRANCH  20  25
ENDBRANCH  17  18
ENDBRANCH   9  17
BRANCH   2  29
ATOM     29  C11 P9J d   1      -5.465  30.648  -3.287  0.00  0.00     0.060 A 
ATOM     30  C12 P9J d   1      -5.931  30.556  -1.987  0.00  0.00    -0.055 A 
ATOM     31  C13 P9J d   1      -6.688  29.463  -1.597  0.00  0.00    -0.081 A 
ATOM     32  H   P9J d   1      -5.702  31.344  -1.270  0.00  0.00     0.087 H 
ATOM     33  C14 P9J d   1      -7.012  28.472  -2.508  0.00  0.00    -0.083 A 
ATOM     34  H   P9J d   1      -7.031  29.383  -0.566  0.00  0.00     0.083 H 
ATOM     35  C15 P9J d   1      -6.574  28.579  -3.820  0.00  0.00    -0.081 A 
ATOM     36  H   P9J d   1      -7.607  27.614  -2.196  0.00  0.00     0.083 H 
ATOM     37  C16 P9J d   1      -5.841  29.690  -4.217  0.00  0.00    -0.055 A 
ATOM     38  H   P9J d   1      -6.805  27.792  -4.538  0.00  0.00     0.083 H 
ATOM     39  H   P9J d   1      -5.560  29.809  -5.263  0.00  0.00     0.087 H 
ENDBRANCH   2  29
TORSDOF 4
