REMARK  3 active torsions:
REMARK  status: ('A' for Active; 'I' for Inactive)
REMARK    1  A    between atoms: C6_3  and  O17_17 
REMARK    2  A    between atoms: O7_13  and  C5_4 
REMARK    3  A    between atoms: C8_10  and  O7_13 
ROOT
ATOM      1  C1  TCL d   1     -22.289  -3.462  27.335  0.00  0.00    -0.027 A 
ATOM      2  C2  TCL d   1     -22.680  -2.360  28.044  0.00  0.00     0.036 A 
ATOM      3  C6  TCL d   1     -21.227  -4.211  27.793  0.00  0.00     0.101 A 
ATOM      4  C5  TCL d   1     -20.557  -3.798  29.060  0.00  0.00     0.109 A 
ATOM      5  C4  TCL d   1     -20.996  -2.681  29.734  0.00  0.00    -0.046 A 
ATOM      6  C3  TCL d   1     -22.061  -1.975  29.219  0.00  0.00    -0.059 A 
ATOM      7 CL14 TCL d   1     -24.048  -1.397  27.430  0.00  0.00    -0.084 Cl
ATOM      8  H1  TCL d   1     -22.807  -3.742  26.425  0.00  0.00     0.090 H 
ATOM      9  H2  TCL d   1     -20.514  -2.363  30.651  0.00  0.00     0.087 H 
ATOM     10  H3  TCL d   1     -22.421  -1.099  29.746  0.00  0.00     0.086 H 
ENDROOT
BRANCH   4  11
ATOM     11  O7  TCL d   1     -19.517  -4.478  29.626  0.00  0.00    -0.306 OA
BRANCH  11  12
ATOM     12  C8  TCL d   1     -18.241  -4.216  29.264  0.00  0.00     0.098 A 
ATOM     13  C9  TCL d   1     -17.242  -5.149  29.806  0.00  0.00     0.069 A 
ATOM     14  C10 TCL d   1     -15.907  -4.994  29.491  0.00  0.00    -0.038 A 
ATOM     15 CL16 TCL d   1     -17.877  -6.432  30.864  0.00  0.00    -0.081 Cl
ATOM     16  C11 TCL d   1     -15.571  -3.923  28.641  0.00  0.00     0.035 A 
ATOM     17  H4  TCL d   1     -15.151  -5.667  29.881  0.00  0.00     0.088 H 
ATOM     18  C12 TCL d   1     -16.518  -3.029  28.124  0.00  0.00    -0.059 A 
ATOM     19 CL15 TCL d   1     -13.853  -3.725  28.206  0.00  0.00    -0.084 Cl
ATOM     20  C13 TCL d   1     -17.867  -3.168  28.430  0.00  0.00    -0.047 A 
ATOM     21  H5  TCL d   1     -16.195  -2.220  27.478  0.00  0.00     0.086 H 
ATOM     22  H6  TCL d   1     -18.604  -2.481  28.031  0.00  0.00     0.087 H 
ENDBRANCH  11  12
ENDBRANCH   4  11
BRANCH   3  23
ATOM     23  O17 TCL d   1     -20.899  -5.319  27.048  0.00  0.00    -0.358 OA
ATOM     24  H7  TCL d   1     -21.467  -5.368  26.288  0.00  0.00     0.217 HD
ENDBRANCH   3  23
TORSDOF 3
