REMARK  4 active torsions:
REMARK  status: ('A' for Active; 'I' for Inactive)
REMARK    1  A    between atoms: C02_2  and  C11_11 
REMARK    2  A    between atoms: C06_6  and  C12_12 
REMARK    3  A    between atoms: C09_9  and  N10_10 
REMARK    4  A    between atoms: N10_10  and  C13_13 
REMARK       I    between atoms: C12_12  and  N25_25 
ROOT
ATOM      1  C01 C70 d   1      18.705  -2.968  10.439  0.00  0.00    -0.051 A 
ATOM      2  C02 C70 d   1      19.221  -2.043   9.533  0.00  0.00     0.017 A 
ATOM      3  S03 C70 d   1      18.040  -0.913   9.041  0.00  0.00    -0.086 SA
ATOM      4  C04 C70 d   1      16.821  -1.610  10.037  0.00  0.00     0.056 A 
ATOM      5  C05 C70 d   1      17.337  -2.704  10.740  0.00  0.00     0.032 A 
ATOM      6  C06 C70 d   1      15.554  -1.223  10.196  0.00  0.00     0.164 A 
ATOM      7  N07 C70 d   1      14.748  -1.908  11.065  0.00  0.00    -0.141 NA
ATOM      8  N08 C70 d   1      15.230  -2.948  11.776  0.00  0.00    -0.131 NA
ATOM      9  C09 C70 d   1      16.475  -3.375  11.667  0.00  0.00     0.158 A 
ATOM     10  H1  C70 d   1      19.277  -3.791  10.865  0.00  0.00     0.087 H 
ENDROOT
BRANCH   9  11
ATOM     11  N10 C70 d   1      16.949  -4.426  12.428  0.00  0.00    -0.366 N 
ATOM     12  H2  C70 d   1      17.822  -4.905  12.163  0.00  0.00     0.161 HD
BRANCH  11  13
ATOM     13  C13 C70 d   1      16.210  -4.851  13.603  0.00  0.00     0.034 C 
ATOM     14  C14 C70 d   1      16.607  -3.923  14.804  0.00  0.00     0.100 C 
ATOM     15  N15 C70 d   1      15.971  -4.376  16.076  0.00  0.00    -0.073 N 
ATOM     16  H4  C70 d   1      16.279  -2.896  14.586  0.00  0.00     0.078 H 
ATOM     17  H5  C70 d   1      17.700  -3.941  14.924  0.00  0.00     0.078 H 
ATOM     18  C16 C70 d   1      16.414  -5.744  16.402  0.00  0.00     0.082 C 
ATOM     19  H6  C70 d   1      14.969  -4.366  15.970  0.00  0.00     0.277 HD
ATOM     20  H7  C70 d   1      16.236  -3.752  16.822  0.00  0.00     0.277 HD
ATOM     21  C17 C70 d   1      15.974  -6.704  15.275  0.00  0.00    -0.041 C 
ATOM     22  H8  C70 d   1      15.960  -6.061  17.353  0.00  0.00     0.075 H 
ATOM     23  H9  C70 d   1      17.510  -5.763  16.494  0.00  0.00     0.075 H 
ATOM     24  C18 C70 d   1      16.655  -6.270  13.955  0.00  0.00    -0.043 C 
ATOM     25  H10 C70 d   1      14.881  -6.661  15.159  0.00  0.00     0.035 H 
ATOM     26  H11 C70 d   1      16.276  -7.732  15.526  0.00  0.00     0.035 H 
ATOM     27  H12 C70 d   1      17.748  -6.293  14.080  0.00  0.00     0.036 H 
ATOM     28  H13 C70 d   1      16.364  -6.958  13.147  0.00  0.00     0.036 H 
ATOM     29  H3  C70 d   1      15.126  -4.812  13.418  0.00  0.00     0.075 H 
ENDBRANCH  11  13
ENDBRANCH   9  11
BRANCH   2  30
ATOM     30  C11 C70 d   1      20.539  -2.044   8.938  0.00  0.00    -0.019 A 
ATOM     31  C19 C70 d   1      21.384  -3.177   9.030  0.00  0.00    -0.070 A 
ATOM     32  C20 C70 d   1      22.620  -3.173   8.383  0.00  0.00    -0.061 A 
ATOM     33  H14 C70 d   1      21.072  -4.044   9.601  0.00  0.00     0.084 H 
ATOM     34  C21 C70 d   1      23.006  -2.045   7.678  0.00  0.00     0.034 A 
ATOM     35  H15 C70 d   1      23.269  -4.040   8.431  0.00  0.00     0.086 H 
ATOM     36  C22 C70 d   1      22.176  -0.921   7.572  0.00  0.00    -0.061 A 
ATOM     37 CL24 C70 d   1      24.551  -2.056   6.836  0.00  0.00    -0.084 Cl
ATOM     38  C23 C70 d   1      20.927  -0.913   8.208  0.00  0.00    -0.070 A 
ATOM     39  H16 C70 d   1      22.499  -0.059   6.999  0.00  0.00     0.086 H 
ATOM     40  H17 C70 d   1      20.275  -0.050   8.136  0.00  0.00     0.084 H 
ENDBRANCH   2  30
BRANCH   6  41
ATOM     41  C12 C70 d   1      15.055  -0.050   9.555  0.00  0.00     0.271 C 
ATOM     42  N25 C70 d   1      13.832   0.367   9.899  0.00  0.00    -0.365 N 
ATOM     43  H18 C70 d   1      13.445   1.185   9.474  0.00  0.00     0.159 HD
ATOM     44  H19 C70 d   1      13.305  -0.139  10.582  0.00  0.00     0.159 HD
ATOM     45  O26 C70 d   1      15.731   0.590   8.736  0.00  0.00    -0.266 OA
ENDBRANCH   6  41
TORSDOF 4
