REMARK  4 active torsions:
REMARK  status: ('A' for Active; 'I' for Inactive)
REMARK    1  A    between atoms: C02_2  and  C11_11 
REMARK    2  A    between atoms: C06_6  and  C12_12 
REMARK    3  A    between atoms: C09_9  and  N10_10 
REMARK    4  A    between atoms: N10_10  and  C13_13 
REMARK       I    between atoms: C12_12  and  N25_25 
ROOT
ATOM      1  C01 C72 d   1      18.363  -2.974  10.418  0.00  0.00    -0.051 A 
ATOM      2  C02 C72 d   1      18.858  -2.037   9.515  0.00  0.00     0.017 A 
ATOM      3  S03 C72 d   1      17.657  -0.936   9.066  0.00  0.00    -0.088 SA
ATOM      4  C04 C72 d   1      16.468  -1.652  10.072  0.00  0.00     0.036 A 
ATOM      5  C05 C72 d   1      16.986  -2.755  10.743  0.00  0.00     0.029 A 
ATOM      6  C06 C72 d   1      15.129  -1.236  10.272  0.00  0.00     0.067 A 
ATOM      7  C07 C72 d   1      14.371  -1.981  11.115  0.00  0.00     0.021 A 
ATOM      8  N08 C72 d   1      14.812  -3.040  11.749  0.00  0.00    -0.242 NA
ATOM      9  C09 C72 d   1      16.106  -3.440  11.661  0.00  0.00     0.135 A 
ATOM     10  H   C72 d   1      18.959  -3.787  10.833  0.00  0.00     0.087 H 
ATOM     11  H   C72 d   1      13.335  -1.682  11.274  0.00  0.00     0.116 H 
ENDROOT
BRANCH   9  12
ATOM     12  N10 C72 d   1      16.534  -4.527  12.387  0.00  0.00    -0.368 N 
ATOM     13  H   C72 d   1      17.335  -5.073  12.070  0.00  0.00     0.161 HD
BRANCH  12  14
ATOM     14  C13 C72 d   1      15.828  -4.896  13.623  0.00  0.00     0.034 C 
ATOM     15  C14 C72 d   1      16.222  -3.931  14.784  0.00  0.00     0.100 C 
ATOM     16  N15 C72 d   1      15.635  -4.433  16.070  0.00  0.00    -0.073 N 
ATOM     17  H   C72 d   1      15.838  -2.933  14.574  0.00  0.00     0.078 H 
ATOM     18  H   C72 d   1      17.308  -3.890  14.871  0.00  0.00     0.078 H 
ATOM     19  C16 C72 d   1      16.117  -5.783  16.405  0.00  0.00     0.082 C 
ATOM     20  H   C72 d   1      14.621  -4.473  15.964  0.00  0.00     0.277 HD
ATOM     21  H   C72 d   1      15.916  -3.799  16.818  0.00  0.00     0.277 HD
ATOM     22  C17 C72 d   1      15.675  -6.789  15.328  0.00  0.00    -0.041 C 
ATOM     23  H   C72 d   1      15.698  -6.083  17.366  0.00  0.00     0.075 H 
ATOM     24  H   C72 d   1      17.206  -5.770  16.455  0.00  0.00     0.075 H 
ATOM     25  C18 C72 d   1      16.270  -6.338  13.976  0.00  0.00    -0.043 C 
ATOM     26  H   C72 d   1      14.587  -6.821  15.268  0.00  0.00     0.035 H 
ATOM     27  H   C72 d   1      16.030  -7.788  15.580  0.00  0.00     0.035 H 
ATOM     28  H   C72 d   1      17.357  -6.361  14.049  0.00  0.00     0.036 H 
ATOM     29  H   C72 d   1      15.914  -7.012  13.197  0.00  0.00     0.036 H 
ATOM     30  H   C72 d   1      14.749  -4.831  13.484  0.00  0.00     0.075 H 
ENDBRANCH  12  14
ENDBRANCH   9  12
BRANCH   2  31
ATOM     31  C11 C72 d   1      20.220  -1.970   8.936  0.00  0.00    -0.019 A 
ATOM     32  C19 C72 d   1      20.632  -0.845   8.219  0.00  0.00    -0.070 A 
ATOM     33  C20 C72 d   1      21.909  -0.793   7.675  0.00  0.00    -0.061 A 
ATOM     34  H   C72 d   1      19.950  -0.005   8.086  0.00  0.00     0.084 H 
ATOM     35  C21 C72 d   1      22.767  -1.873   7.862  0.00  0.00     0.034 A 
ATOM     36  H   C72 d   1      22.234   0.081   7.110  0.00  0.00     0.086 H 
ATOM     37  C22 C72 d   1      22.373  -3.002   8.563  0.00  0.00    -0.061 A 
ATOM     38 CL24 C72 d   1      24.362  -1.810   7.174  0.00  0.00    -0.084 Cl
ATOM     39  C23 C72 d   1      21.090  -3.044   9.115  0.00  0.00    -0.070 A 
ATOM     40  H   C72 d   1      23.054  -3.845   8.682  0.00  0.00     0.086 H 
ATOM     41  H   C72 d   1      20.770  -3.916   9.685  0.00  0.00     0.084 H 
ENDBRANCH   2  31
BRANCH   6  42
ATOM     42  C12 C72 d   1      14.593  -0.075   9.578  0.00  0.00     0.252 C 
ATOM     43  N25 C72 d   1      13.345   0.387   9.993  0.00  0.00    -0.366 N 
ATOM     44  H   C72 d   1      12.928   1.203   9.545  0.00  0.00     0.159 HD
ATOM     45  H   C72 d   1      12.848  -0.091  10.745  0.00  0.00     0.159 HD
ATOM     46  O26 C72 d   1      15.235   0.480   8.662  0.00  0.00    -0.268 OA
ENDBRANCH   6  42
TORSDOF 4
