REMARK  4 active torsions:
REMARK  status: ('A' for Active; 'I' for Inactive)
REMARK    1  A    between atoms: C02_2  and  N06_6 
REMARK    2  A    between atoms: C03_3  and  C10_10 
REMARK    3  A    between atoms: C05_5  and  C19_19 
REMARK       I    between atoms: N06_6  and  C07_7 
REMARK       I    between atoms: C07_7  and  N08_8 
REMARK       I    between atoms: C10_10  and  N12_12 
REMARK    4  A    between atoms: N12_12  and  C13_13 
ROOT
ATOM      1  S01 C73 d   1      17.589  -0.946   9.038  0.00  0.00    -0.071 SA
ATOM      2  C02 C73 d   1      16.389  -1.560  10.086  0.00  0.00     0.094 A 
ATOM      3  C03 C73 d   1      16.859  -2.589  10.849  0.00  0.00     0.067 A 
ATOM      4  C04 C73 d   1      18.195  -2.904  10.527  0.00  0.00    -0.048 A 
ATOM      5  C05 C73 d   1      18.724  -2.073   9.530  0.00  0.00     0.018 A 
ATOM      6  H   C73 d   1      18.757  -3.708  11.003  0.00  0.00     0.087 H 
ENDROOT
BRANCH   3   7
ATOM      7  C10 C73 d   1      15.987  -3.212  11.827  0.00  0.00     0.254 C 
ATOM      8  O11 C73 d   1      14.851  -2.840  11.922  0.00  0.00    -0.268 OA
ATOM      9  N12 C73 d   1      16.534  -4.249  12.544  0.00  0.00    -0.351 N 
ATOM     10  H   C73 d   1      17.476  -4.575  12.328  0.00  0.00     0.163 HD
BRANCH   9  11
ATOM     11  C13 C73 d   1      15.762  -4.894  13.628  0.00  0.00     0.035 C 
ATOM     12  C14 C73 d   1      16.118  -3.977  14.878  0.00  0.00     0.100 C 
ATOM     13  N15 C73 d   1      15.552  -4.476  16.166  0.00  0.00    -0.073 N 
ATOM     14  H   C73 d   1      15.690  -2.992  14.693  0.00  0.00     0.078 H 
ATOM     15  H   C73 d   1      17.203  -3.970  14.979  0.00  0.00     0.078 H 
ATOM     16  C16 C73 d   1      16.032  -5.827  16.470  0.00  0.00     0.082 C 
ATOM     17  H   C73 d   1      14.536  -4.503  16.085  0.00  0.00     0.277 HD
ATOM     18  H   C73 d   1      15.848  -3.850  16.915  0.00  0.00     0.277 HD
ATOM     19  C17 C73 d   1      15.749  -6.804  15.320  0.00  0.00    -0.041 C 
ATOM     20  H   C73 d   1      15.512  -6.184  17.359  0.00  0.00     0.075 H 
ATOM     21  H   C73 d   1      17.110  -5.781  16.624  0.00  0.00     0.075 H 
ATOM     22  C18 C73 d   1      16.303  -6.279  13.959  0.00  0.00    -0.043 C 
ATOM     23  H   C73 d   1      14.669  -6.919  15.227  0.00  0.00     0.035 H 
ATOM     24  H   C73 d   1      16.241  -7.750  15.547  0.00  0.00     0.035 H 
ATOM     25  H   C73 d   1      17.389  -6.216  14.031  0.00  0.00     0.036 H 
ATOM     26  H   C73 d   1      15.991  -6.967  13.173  0.00  0.00     0.036 H 
ATOM     27  H   C73 d   1      14.708  -4.993  13.369  0.00  0.00     0.075 H 
ENDBRANCH   9  11
ENDBRANCH   3   7
BRANCH   2  28
ATOM     28  N06 C73 d   1      15.117  -1.014  10.186  0.00  0.00    -0.302 N 
ATOM     29  C07 C73 d   1      14.672   0.038   9.482  0.00  0.00     0.318 C 
ATOM     30  N08 C73 d   1      13.384   0.381   9.794  0.00  0.00    -0.352 N 
ATOM     31  O09 C73 d   1      15.317   0.645   8.603  0.00  0.00    -0.247 OA
ATOM     32  H   C73 d   1      12.928   1.150   9.303  0.00  0.00     0.160 HD
ATOM     33  H   C73 d   1      12.880  -0.133  10.517  0.00  0.00     0.160 HD
ATOM     34  H   C73 d   1      14.470  -1.446  10.846  0.00  0.00     0.171 HD
ENDBRANCH   2  28
BRANCH   5  35
ATOM     35  C19 C73 d   1      20.067  -2.067   8.980  0.00  0.00    -0.019 A 
ATOM     36  C20 C73 d   1      20.548  -0.953   8.274  0.00  0.00    -0.070 A 
ATOM     37  C21 C73 d   1      21.832  -0.938   7.777  0.00  0.00    -0.061 A 
ATOM     38  H   C73 d   1      19.899  -0.091   8.118  0.00  0.00     0.084 H 
ATOM     39  C22 C73 d   1      22.678  -2.022   8.001  0.00  0.00     0.034 A 
ATOM     40  H   C73 d   1      22.186  -0.078   7.208  0.00  0.00     0.086 H 
ATOM     41  C23 C73 d   1      22.226  -3.124   8.717  0.00  0.00    -0.061 A 
ATOM     42 CL25 C73 d   1      24.294  -2.010   7.369  0.00  0.00    -0.084 Cl
ATOM     43  C24 C73 d   1      20.923  -3.136   9.213  0.00  0.00    -0.070 A 
ATOM     44  H   C73 d   1      22.886  -3.974   8.890  0.00  0.00     0.086 H 
ATOM     45  H   C73 d   1      20.573  -3.992   9.789  0.00  0.00     0.084 H 
ENDBRANCH   5  35
TORSDOF 4
