REMARK WARNING: 32 MAX_TORS EXCEEDED!!!
REMARK  43 active torsions:
REMARK  status: ('A' for Active; 'I' for Inactive)
REMARK    1  A    between atoms: N_1  and  CA_2 
REMARK    2  A    between atoms: CA_2  and  C_3 
REMARK    3  A    between atoms: CA_2  and  CB_5 
REMARK       I    between atoms: C_3  and  N_10 
REMARK    4  A    between atoms: CB_5  and  CG_6 
REMARK    5  A    between atoms: CG_6  and  CD_7 
REMARK    6  A    between atoms: N_10  and  CA_11 
REMARK    7  A    between atoms: CA_11  and  C_12 
REMARK    8  A    between atoms: CA_11  and  CB_14 
REMARK       I    between atoms: C_12  and  N_18 
REMARK    9  A    between atoms: CB_14  and  CG1_15 
REMARK   10  A    between atoms: CB_14  and  CG2_16 
REMARK   11  A    between atoms: CG1_15  and  CD1_17 
REMARK   12  A    between atoms: N_18  and  CA_19 
REMARK   13  A    between atoms: CA_19  and  C_20 
REMARK   14  A    between atoms: CA_19  and  CB_22 
REMARK       I    between atoms: C_20  and  N_26 
REMARK   15  A    between atoms: CB_22  and  CG1_23 
REMARK   16  A    between atoms: CB_22  and  CG2_24 
REMARK   17  A    between atoms: CG1_23  and  CD1_25 
REMARK   18  A    between atoms: N_26  and  CA_27 
REMARK   19  A    between atoms: CA_27  and  C_28 
REMARK   20  A    between atoms: CA_27  and  CB_30 
REMARK       I    between atoms: C_28  and  N_34 
REMARK   21  A    between atoms: CB_30  and  CG_31 
REMARK       I    between atoms: CG_31  and  ND2_33 
REMARK   22  A    between atoms: N_34  and  CA_35 
REMARK   23  A    between atoms: CA_35  and  C_36 
REMARK   24  A    between atoms: CA_35  and  CB_38 
REMARK       I    between atoms: C_36  and  N_45 
REMARK   25  A    between atoms: CB_38  and  CG_39 
REMARK   26  A    between atoms: N_45  and  CA_46 
REMARK   27  A    between atoms: CA_46  and  C_47 
REMARK   28  A    between atoms: CA_46  and  CB_49 
REMARK       I    between atoms: C_47  and  N_54 
REMARK   29  A    between atoms: CB_49  and  CG_50 
REMARK   30  A    between atoms: CG_50  and  CD_51 
REMARK   31  A    between atoms: N_54  and  CA_55 
REMARK   32  A    between atoms: CA_55  and  C_56 
REMARK   33  A    between atoms: CA_55  and  CB_58 
REMARK       I    between atoms: C_56  and  N_63 
REMARK   34  A    between atoms: CB_58  and  CG_59 
REMARK   35  A    between atoms: CG_59  and  CD_60 
REMARK   36  A    between atoms: CD_60  and  CE_61 
REMARK   37  A    between atoms: CE_61  and  NZ_62 
REMARK   38  A    between atoms: N_63  and  CA_64 
REMARK   39  A    between atoms: CA_64  and  C_65 
REMARK   40  A    between atoms: CA_64  and  CB_67 
REMARK   41  A    between atoms: CB_67  and  CG_68 
REMARK   42  A    between atoms: CG_68  and  CD1_69 
REMARK   43  A    between atoms: CG_68  and  CD2_70 
ROOT
ATOM      1  CA  PHE d   1     -16.779  87.514  30.664  0.00  0.00     0.093 C 
ATOM      2  H   PHE d   1     -16.073  87.788  31.448  0.00  0.00     0.088 H 
ENDROOT
BRANCH   1   3
ATOM      3  N   PHE d   1     -17.201  86.145  30.889  0.00  0.00    -0.346 N 
ATOM      4  C   ASN d   1     -17.278  85.665  32.123  0.00  0.00     0.241 C 
ATOM      5  O   ASN d   1     -17.075  86.363  33.121  0.00  0.00    -0.271 OA
ATOM      6  H   PHE d   1     -17.439  85.549  30.096  0.00  0.00     0.163 HD
BRANCH   4   7
ATOM      7  CA  ASN d   1     -17.667  84.206  32.274  0.00  0.00     0.097 C 
ATOM      8  H   ASN d   1     -17.725  83.699  31.311  0.00  0.00     0.088 H 
BRANCH   7   9
ATOM      9  N   ASN d   1     -16.653  83.501  33.064  0.00  0.00    -0.346 N 
ATOM     10  C   ILE d   1     -15.510  83.073  32.528  0.00  0.00     0.241 C 
ATOM     11  O   ILE d   1     -15.347  82.972  31.318  0.00  0.00    -0.271 OA
ATOM     12  H   ASN d   1     -16.828  83.333  34.055  0.00  0.00     0.163 HD
BRANCH  10  13
ATOM     13  CA  ILE d   1     -14.382  82.717  33.503  0.00  0.00     0.092 C 
ATOM     14  H   ILE d   1     -14.796  82.119  34.315  0.00  0.00     0.088 H 
BRANCH  13  15
ATOM     15  N   ILE d   1     -13.332  81.887  32.912  0.00  0.00    -0.346 N 
ATOM     16  C   ILE d   1     -13.509  80.617  32.558  0.00  0.00     0.241 C 
ATOM     17  O   ILE d   1     -14.530  79.991  32.792  0.00  0.00    -0.271 OA
ATOM     18  H   ILE d   1     -12.414  82.305  32.763  0.00  0.00     0.163 HD
BRANCH  16  19
ATOM     19  CA  ILE d   1     -12.355  79.953  31.818  0.00  0.00     0.092 C 
ATOM     20  H   ILE d   1     -11.410  80.362  32.175  0.00  0.00     0.088 H 
BRANCH  19  21
ATOM     21  N   ILE d   1     -12.321  78.511  32.080  0.00  0.00    -0.346 N 
ATOM     22  C   GLU d   1     -11.949  78.001  33.252  0.00  0.00     0.249 C 
ATOM     23  O   GLU d   1     -11.623  78.700  34.219  0.00  0.00    -0.271 OA
ATOM     24  H   ILE d   1     -12.594  77.872  31.333  0.00  0.00     0.163 HD
BRANCH  22  25
ATOM     25  CA  GLU d   1     -11.951  76.476  33.357  0.00  0.00     0.176 C 
ATOM     26  H   GLU d   1     -12.346  76.072  32.425  0.00  0.00     0.099 H 
BRANCH  25  27
ATOM     27  N   GLU d   1     -10.600  75.967  33.548  0.00  0.00    -0.066 N 
ATOM     28  H   GLU d   1     -10.012  76.267  32.770  0.00  0.00     0.275 HD
ATOM     29  H   GLU d   1     -10.221  76.331  34.422  0.00  0.00     0.275 HD
ATOM     30  H   GLU d   1     -10.624  74.948  33.585  0.00  0.00     0.275 HD
ENDBRANCH  25  27
BRANCH  25  31
ATOM     31  CB  GLU d   1     -12.838  76.030  34.520  0.00  0.00    -0.021 C 
ATOM     32  H   GLU d   1     -12.483  76.548  35.411  0.00  0.00     0.037 H 
ATOM     33  H   GLU d   1     -12.771  74.944  34.576  0.00  0.00     0.037 H 
BRANCH  31  34
ATOM     34  CG  GLU d   1     -14.296  76.376  34.357  0.00  0.00     0.018 C 
ATOM     35  H   GLU d   1     -14.652  75.924  33.431  0.00  0.00     0.049 H 
ATOM     36  H   GLU d   1     -14.389  77.462  34.344  0.00  0.00     0.049 H 
BRANCH  34  37
ATOM     37  CD  GLU d   1     -15.142  75.841  35.502  0.00  0.00     0.172 C 
ATOM     38  OE1 GLU d   1     -14.992  74.644  35.844  0.00  0.00    -0.648 OA
ATOM     39  OE2 GLU d   1     -15.945  76.619  36.065  0.00  0.00    -0.648 OA
ENDBRANCH  34  37
ENDBRANCH  31  34
ENDBRANCH  25  31
ENDBRANCH  22  25
ENDBRANCH  19  21
BRANCH  19  40
ATOM     40  CB  ILE d   1     -12.503  80.250  30.283  0.00  0.00    -0.030 C 
ATOM     41  H   ILE d   1     -11.881  79.531  29.749  0.00  0.00     0.043 H 
BRANCH  40  42
ATOM     42  CG1 ILE d   1     -12.017  81.656  29.943  0.00  0.00    -0.063 C 
ATOM     43  H   ILE d   1     -11.039  81.784  30.408  0.00  0.00     0.033 H 
ATOM     44  H   ILE d   1     -12.770  82.357  30.304  0.00  0.00     0.033 H 
BRANCH  42  45
ATOM     45  CD1 ILE d   1     -11.844  81.905  28.430  0.00  0.00    -0.076 C 
ATOM     46  H   ILE d   1     -11.113  81.203  28.029  0.00  0.00     0.027 H 
ATOM     47  H   ILE d   1     -12.801  81.762  27.928  0.00  0.00     0.027 H 
ATOM     48  H   ILE d   1     -11.496  82.925  28.268  0.00  0.00     0.027 H 
ENDBRANCH  42  45
ENDBRANCH  40  42
BRANCH  40  49
ATOM     49  CG2 ILE d   1     -13.954  80.079  29.834  0.00  0.00    -0.071 C 
ATOM     50  H   ILE d   1     -14.274  79.055  30.027  0.00  0.00     0.028 H 
ATOM     51  H   ILE d   1     -14.588  80.770  30.389  0.00  0.00     0.028 H 
ATOM     52  H   ILE d   1     -14.030  80.290  28.767  0.00  0.00     0.028 H 
ENDBRANCH  40  49
ENDBRANCH  19  40
ENDBRANCH  16  19
ENDBRANCH  13  15
BRANCH  13  53
ATOM     53  CB  ILE d   1     -13.783  84.061  33.998  0.00  0.00    -0.030 C 
ATOM     54  H   ILE d   1     -12.829  83.829  34.471  0.00  0.00     0.043 H 
BRANCH  53  55
ATOM     55  CG1 ILE d   1     -14.697  84.734  35.020  0.00  0.00    -0.063 C 
ATOM     56  H   ILE d   1     -14.955  83.988  35.772  0.00  0.00     0.033 H 
ATOM     57  H   ILE d   1     -15.562  85.123  34.482  0.00  0.00     0.033 H 
BRANCH  55  58
ATOM     58  CD1 ILE d   1     -14.042  85.901  35.738  0.00  0.00    -0.076 C 
ATOM     59  H   ILE d   1     -13.158  85.549  36.270  0.00  0.00     0.027 H 
ATOM     60  H   ILE d   1     -13.752  86.658  35.009  0.00  0.00     0.027 H 
ATOM     61  H   ILE d   1     -14.748  86.331  36.449  0.00  0.00     0.027 H 
ENDBRANCH  55  58
ENDBRANCH  53  55
BRANCH  53  62
ATOM     62  CG2 ILE d   1     -13.555  85.015  32.839  0.00  0.00    -0.071 C 
ATOM     63  H   ILE d   1     -12.862  84.563  32.129  0.00  0.00     0.028 H 
ATOM     64  H   ILE d   1     -14.505  85.216  32.344  0.00  0.00     0.028 H 
ATOM     65  H   ILE d   1     -13.135  85.948  33.215  0.00  0.00     0.028 H 
ENDBRANCH  53  62
ENDBRANCH  13  53
ENDBRANCH  10  13
ENDBRANCH   7   9
BRANCH   7  66
ATOM     66  CB  ASN d   1     -19.039  84.185  32.960  0.00  0.00     0.036 C 
ATOM     67  H   ASN d   1     -19.767  84.594  32.259  0.00  0.00     0.051 H 
ATOM     68  H   ASN d   1     -18.960  84.766  33.879  0.00  0.00     0.051 H 
BRANCH  66  69
ATOM     69  CG  ASN d   1     -19.488  82.803  33.330  0.00  0.00     0.217 C 
ATOM     70  OD1 ASN d   1     -20.085  82.090  32.517  0.00  0.00    -0.274 OA
ATOM     71  ND2 ASN d   1     -19.218  82.413  34.569  0.00  0.00    -0.370 N 
ATOM     72  H   ASN d   1     -19.506  81.488  34.887  0.00  0.00     0.159 HD
ATOM     73  H   ASN d   1     -18.722  83.038  35.204  0.00  0.00     0.159 HD
ENDBRANCH  66  69
ENDBRANCH   7  66
ENDBRANCH   4   7
ENDBRANCH   1   3
BRANCH   1  74
ATOM     74  C   PHE d   1     -17.951  88.459  30.757  0.00  0.00     0.241 C 
ATOM     75  O   PHE d   1     -19.087  88.078  30.498  0.00  0.00    -0.271 OA
ATOM     76  N   GLU d   1     -17.663  89.695  31.135  0.00  0.00    -0.346 N 
ATOM     77  H   GLU d   1     -16.688  89.953  31.285  0.00  0.00     0.163 HD
BRANCH  76  78
ATOM     78  CA  GLU d   1     -18.695  90.693  31.342  0.00  0.00     0.090 C 
ATOM     79  H   GLU d   1     -19.678  90.229  31.268  0.00  0.00     0.087 H 
BRANCH  78  80
ATOM     80  C   GLU d   1     -18.553  91.769  30.282  0.00  0.00     0.241 C 
ATOM     81  O   GLU d   1     -17.455  92.019  29.784  0.00  0.00    -0.271 OA
ATOM     82  N   LYS d   1     -19.666  92.405  29.944  0.00  0.00    -0.346 N 
ATOM     83  H   LYS d   1     -20.528  92.192  30.446  0.00  0.00     0.163 HD
BRANCH  82  84
ATOM     84  CA  LYS d   1     -19.697  93.399  28.878  0.00  0.00     0.089 C 
ATOM     85  H   LYS d   1     -19.430  92.881  27.957  0.00  0.00     0.087 H 
BRANCH  84  86
ATOM     86  C   LYS d   1     -18.678  94.518  29.081  0.00  0.00     0.241 C 
ATOM     87  O   LYS d   1     -18.438  94.959  30.206  0.00  0.00    -0.271 OA
ATOM     88  N   LEU d   1     -18.080  94.962  27.981  0.00  0.00    -0.345 N 
ATOM     89  H   LEU d   1     -18.231  94.468  27.101  0.00  0.00     0.163 HD
BRANCH  88  90
ATOM     90  CA  LEU d   1     -17.215  96.134  27.995  0.00  0.00     0.096 C 
ATOM     91  H   LEU d   1     -16.602  96.109  28.896  0.00  0.00     0.089 H 
BRANCH  90  92
ATOM     92  C   LEU d   1     -18.077  97.381  27.970  0.00  0.00     0.196 C 
ATOM     93  O   LEU d   1     -19.260  97.315  27.623  0.00  0.00    -0.646 OA
ATOM     94  OXT LEU d   1     -17.610  98.476  28.280  0.00  0.00    -0.646 OA
ENDBRANCH  90  92
BRANCH  90  95
ATOM     95  CB  LEU d   1     -16.293  96.141  26.772  0.00  0.00    -0.034 C 
ATOM     96  H   LEU d   1     -15.635  97.000  26.905  0.00  0.00     0.037 H 
ATOM     97  H   LEU d   1     -16.954  96.144  25.905  0.00  0.00     0.037 H 
BRANCH  95  98
ATOM     98  CG  LEU d   1     -15.371  94.943  26.581  0.00  0.00    -0.059 C 
ATOM     99  H   LEU d   1     -15.976  94.049  26.434  0.00  0.00     0.038 H 
BRANCH  98 100
ATOM    100  CD1 LEU d   1     -14.503  95.156  25.361  0.00  0.00    -0.073 C 
ATOM    101  H   LEU d   1     -15.136  95.269  24.481  0.00  0.00     0.028 H 
ATOM    102  H   LEU d   1     -13.903  96.056  25.496  0.00  0.00     0.028 H 
ATOM    103  H   LEU d   1     -13.846  94.296  25.230  0.00  0.00     0.028 H 
ENDBRANCH  98 100
BRANCH  98 104
ATOM    104  CD2 LEU d   1     -14.506  94.741  27.816  0.00  0.00    -0.073 C 
ATOM    105  H   LEU d   1     -13.902  95.632  27.985  0.00  0.00     0.028 H 
ATOM    106  H   LEU d   1     -15.145  94.565  28.681  0.00  0.00     0.028 H 
ATOM    107  H   LEU d   1     -13.853  93.882  27.664  0.00  0.00     0.028 H 
ENDBRANCH  98 104
ENDBRANCH  95  98
ENDBRANCH  90  95
ENDBRANCH  88  90
ENDBRANCH  84  86
BRANCH  84 108
ATOM    108  CB  LYS d   1     -21.102  93.999  28.759  0.00  0.00    -0.038 C 
ATOM    109  H   LYS d   1     -21.086  94.691  27.917  0.00  0.00     0.036 H 
ATOM    110  H   LYS d   1     -21.334  94.465  29.716  0.00  0.00     0.036 H 
BRANCH 108 111
ATOM    111  CG  LYS d   1     -22.200  92.974  28.479  0.00  0.00    -0.061 C 
ATOM    112  H   LYS d   1     -23.154  93.500  28.471  0.00  0.00     0.033 H 
ATOM    113  H   LYS d   1     -22.148  92.208  29.253  0.00  0.00     0.033 H 
BRANCH 111 114
ATOM    114  CD  LYS d   1     -22.034  92.286  27.128  0.00  0.00    -0.043 C 
ATOM    115  H   LYS d   1     -21.060  91.798  27.098  0.00  0.00     0.035 H 
ATOM    116  H   LYS d   1     -22.114  93.034  26.339  0.00  0.00     0.035 H 
BRANCH 114 117
ATOM    117  CE  LYS d   1     -23.124  91.229  26.921  0.00  0.00     0.080 C 
ATOM    118  H   LYS d   1     -23.281  90.711  27.867  0.00  0.00     0.075 H 
ATOM    119  H   LYS d   1     -22.796  90.550  26.134  0.00  0.00     0.075 H 
BRANCH 117 120
ATOM    120  NZ  LYS d   1     -24.410  91.834  26.505  0.00  0.00    -0.079 N 
ATOM    121  H   LYS d   1     -25.105  91.099  26.379  0.00  0.00     0.274 HD
ATOM    122  H   LYS d   1     -24.727  92.484  27.225  0.00  0.00     0.274 HD
ATOM    123  H   LYS d   1     -24.280  92.335  25.626  0.00  0.00     0.274 HD
ENDBRANCH 117 120
ENDBRANCH 114 117
ENDBRANCH 111 114
ENDBRANCH 108 111
ENDBRANCH  84 108
ENDBRANCH  82  84
ENDBRANCH  78  80
BRANCH  78 124
ATOM    124  CB  GLU d   1     -18.547  91.312  32.734  0.00  0.00    -0.029 C 
ATOM    125  H   GLU d   1     -17.671  91.960  32.708  0.00  0.00     0.037 H 
ATOM    126  H   GLU d   1     -18.471  90.490  33.446  0.00  0.00     0.037 H 
BRANCH 124 127
ATOM    127  CG  GLU d   1     -19.726  92.168  33.159  0.00  0.00     0.018 C 
ATOM    128  H   GLU d   1     -20.132  92.642  32.265  0.00  0.00     0.049 H 
ATOM    129  H   GLU d   1     -19.366  92.887  33.895  0.00  0.00     0.049 H 
BRANCH 127 130
ATOM    130  CD  GLU d   1     -20.844  91.361  33.805  0.00  0.00     0.172 C 
ATOM    131  OE1 GLU d   1     -20.997  90.154  33.504  0.00  0.00    -0.648 OA
ATOM    132  OE2 GLU d   1     -21.569  91.945  34.631  0.00  0.00    -0.648 OA
ENDBRANCH 127 130
ENDBRANCH 124 127
ENDBRANCH  78 124
ENDBRANCH  76  78
ENDBRANCH   1  74
BRANCH   1 133
ATOM    133  CB  PHE d   1     -16.055  87.647  29.324  0.00  0.00    -0.014 C 
ATOM    134  H   PHE d   1     -15.831  88.703  29.170  0.00  0.00     0.043 H 
ATOM    135  H   PHE d   1     -16.705  87.234  28.552  0.00  0.00     0.043 H 
BRANCH 133 136
ATOM    136  CG  PHE d   1     -14.765  86.897  29.283  0.00  0.00    -0.056 A 
ATOM    137  CD1 PHE d   1     -13.626  87.430  29.870  0.00  0.00    -0.077 A 
ATOM    138  CE1 PHE d   1     -12.418  86.736  29.859  0.00  0.00    -0.082 A 
ATOM    139  H   PHE d   1     -13.677  88.408  30.348  0.00  0.00     0.084 H 
ATOM    140  CZ  PHE d   1     -12.353  85.498  29.266  0.00  0.00    -0.083 A 
ATOM    141  H   PHE d   1     -11.530  87.172  30.318  0.00  0.00     0.083 H 
ATOM    142  CE2 PHE d   1     -13.492  84.944  28.683  0.00  0.00    -0.082 A 
ATOM    143  H   PHE d   1     -11.411  84.949  29.251  0.00  0.00     0.083 H 
ATOM    144  CD2 PHE d   1     -14.693  85.643  28.702  0.00  0.00    -0.077 A 
ATOM    145  H   PHE d   1     -13.440  83.962  28.212  0.00  0.00     0.083 H 
ATOM    146  H   PHE d   1     -15.584  85.201  28.256  0.00  0.00     0.084 H 
ENDBRANCH 133 136
ENDBRANCH   1 133
TORSDOF 43
