REMARK  2 active torsions:
REMARK  status: ('A' for Active; 'I' for Inactive)
REMARK    1  A    between atoms: C1_8  and  C1'_5 
REMARK    2  A    between atoms: C3_10  and  O3_14 
ROOT
ATOM      1  H1  3HB d   1      16.309  11.013  39.584  0.00  0.00     0.089 H 
ATOM      2  H2  3HB d   1      12.869   9.350  41.513  0.00  0.00     0.087 H 
ATOM      3  H3  3HB d   1      12.303  11.608  42.428  0.00  0.00     0.083 H 
ATOM      4  H4  3HB d   1      13.689  13.574  41.880  0.00  0.00     0.085 H 
ATOM      5  C1  3HB d   1      15.107  12.424  40.705  0.00  0.00     0.043 A 
ATOM      6  C2  3HB d   1      15.428  11.142  40.203  0.00  0.00    -0.035 A 
ATOM      7  C3  3HB d   1      14.623  10.041  40.496  0.00  0.00     0.066 A 
ATOM      8  C4  3HB d   1      13.500  10.201  41.285  0.00  0.00    -0.051 A 
ATOM      9  C5  3HB d   1      13.176  11.490  41.797  0.00  0.00    -0.079 A 
ATOM     10  C6  3HB d   1      13.957  12.594  41.503  0.00  0.00    -0.066 A 
ENDROOT
BRANCH   5  11
ATOM     11  C1' 3HB d   1      16.026  13.604  40.371  0.00  0.00     0.209 C 
ATOM     12  O2' 3HB d   1      15.807  14.755  40.785  0.00  0.00    -0.644 OA
ATOM     13  O1' 3HB d   1      17.040  13.372  39.673  0.00  0.00    -0.644 OA
ENDBRANCH   5  11
BRANCH   7  14
ATOM     14  O3  3HB d   1      14.983   8.825  39.979  0.00  0.00    -0.361 OA
ATOM     15  H5  3HB d   1      14.355   8.167  40.253  0.00  0.00     0.217 HD
ENDBRANCH   7  14
TORSDOF 2
