REMARK  2 active torsions:
REMARK  status: ('A' for Active; 'I' for Inactive)
REMARK    1  A    between atoms: C1_8  and  C1'_5 
REMARK    2  A    between atoms: C4_11  and  O4_14 
ROOT
ATOM      1  H1  PHB d   1      16.491  11.724  39.525  0.00  0.00     0.085 H 
ATOM      2  H2  PHB d   1      15.620   9.367  39.636  0.00  0.00     0.087 H 
ATOM      3  H3  PHB d   1      12.629  10.633  42.449  0.00  0.00     0.087 H 
ATOM      4  H4  PHB d   1      13.461  12.962  42.323  0.00  0.00     0.085 H 
ATOM      5  C1  PHB d   1      15.067  12.480  40.964  0.00  0.00     0.041 A 
ATOM      6  C2  PHB d   1      15.654  11.482  40.170  0.00  0.00    -0.064 A 
ATOM      7  C3  PHB d   1      15.151  10.156  40.213  0.00  0.00    -0.050 A 
ATOM      8  C4  PHB d   1      14.038   9.887  41.015  0.00  0.00     0.065 A 
ATOM      9  C5  PHB d   1      13.461  10.876  41.798  0.00  0.00    -0.050 A 
ATOM     10  C6  PHB d   1      13.948  12.180  41.751  0.00  0.00    -0.064 A 
ENDROOT
BRANCH   5  11
ATOM     11  C1' PHB d   1      15.649  13.899  40.931  0.00  0.00     0.209 C 
ATOM     12  O2' PHB d   1      15.156  14.784  41.634  0.00  0.00    -0.644 OA
ATOM     13  O1' PHB d   1      16.581  14.247  40.237  0.00  0.00    -0.644 OA
ENDBRANCH   5  11
BRANCH   8  14
ATOM     14  O4  PHB d   1      13.583   8.640  41.040  0.00  0.00    -0.361 OA
ATOM     15  H5  PHB d   1      12.830   8.590  41.617  0.00  0.00     0.217 HD
ENDBRANCH   8  14
TORSDOF 2
