REMARK  2 active torsions:
REMARK  status: ('A' for Active; 'I' for Inactive)
REMARK    1  A    between atoms: C1_5  and  C7_13 
REMARK    2  A    between atoms: C4_9  and  O4_10 
ROOT
ATOM      1  H1  CHB d   1      16.233  11.806  39.203  0.00  0.00     0.087 H 
ATOM      2  H3  CHB d   1      12.514  10.738  42.316  0.00  0.00     0.087 H 
ATOM      3  H4  CHB d   1      13.337  13.073  42.136  0.00  0.00     0.085 H 
ATOM      4  C1  CHB d   1      14.843  12.598  40.678  0.00  0.00     0.042 A 
ATOM      5  C2  CHB d   1      15.410  11.577  39.871  0.00  0.00    -0.043 A 
ATOM      6  C3  CHB d   1      14.913  10.300  39.939  0.00  0.00     0.068 A 
ATOM      7 CL3  CHB d   1      15.696   9.059  39.019  0.00  0.00    -0.081 Cl
ATOM      8  C4  CHB d   1      13.872   9.989  40.804  0.00  0.00     0.087 A 
ATOM      9  C5  CHB d   1      13.310  10.984  41.623  0.00  0.00    -0.048 A 
ATOM     10  C6  CHB d   1      13.788  12.292  41.535  0.00  0.00    -0.064 A 
ENDROOT
BRANCH   4  11
ATOM     11  C7  CHB d   1      15.435  14.005  40.553  0.00  0.00     0.209 C 
ATOM     12  O1  CHB d   1      16.383  14.243  39.788  0.00  0.00    -0.644 OA
ATOM     13  O2  CHB d   1      14.932  14.871  41.286  0.00  0.00    -0.644 OA
ENDBRANCH   4  11
BRANCH   8  14
ATOM     14  O4  CHB d   1      13.456   8.689  40.855  0.00  0.00    -0.359 OA
ATOM     15  H2  CHB d   1      12.745   8.610  41.480  0.00  0.00     0.217 HD
ENDBRANCH   8  14
TORSDOF 2
