REMARK  10 active torsions:
REMARK  status: ('A' for Active; 'I' for Inactive)
REMARK    1  A    between atoms: CAQ_17  and  CAB_2 
REMARK    2  A    between atoms: CAY_25  and  CAC_3 
REMARK    3  A    between atoms: CAY_25  and  CAD_4 
REMARK    4  A    between atoms: CAZ_26  and  CAE_5 
REMARK    5  A    between atoms: CAZ_26  and  CAF_6 
REMARK    6  A    between atoms: CAY_25  and  CAI_9 
REMARK    7  A    between atoms: OAN_14  and  CAQ_17 
REMARK    8  A    between atoms: CAZ_26  and  OAN_14 
REMARK    9  A    between atoms: CAT_20  and  CAY_25 
REMARK   10  A    between atoms: CAX_24  and  CAZ_26 
ROOT
ATOM      1  OAH LX8 d   1     -19.373  -2.165   2.531  0.00  0.00    -0.259 OA
ATOM      2  CAJ LX8 d   1     -18.720   2.978   3.668  0.00  0.00    -0.061 A 
ATOM      3  CAK LX8 d   1     -18.961   2.196   0.982  0.00  0.00    -0.017 A 
ATOM      4  CAL LX8 d   1     -18.857   0.778   4.374  0.00  0.00    -0.057 A 
ATOM      5  CAM LX8 d   1     -18.643   5.369   2.737  0.00  0.00    -0.011 C 
ATOM      6  OAO LX8 d   1     -18.817   4.724   0.581  0.00  0.00    -0.342 OA
ATOM      7  OAP LX8 d   1     -19.084  -0.101   1.727  0.00  0.00    -0.274 OA
ATOM      8  CAR LX8 d   1     -18.725   3.901   2.656  0.00  0.00    -0.021 A 
ATOM      9  CAS LX8 d   1     -18.846   3.555   1.313  0.00  0.00     0.078 A 
ATOM     10  CAT LX8 d   1     -19.082  -0.553   4.128  0.00  0.00     0.030 A 
ATOM     11  CAU LX8 d   1     -19.191  -0.977   2.790  0.00  0.00     0.295 A 
ATOM     12  CAV LX8 d   1     -18.812   1.653   3.328  0.00  0.00    -0.001 A 
ATOM     13  CAW LX8 d   1     -18.960   1.235   2.006  0.00  0.00     0.092 A 
ATOM     14  CAX LX8 d   1     -19.369   5.737   1.481  0.00  0.00     0.079 C 
ATOM     15  H   LX8 d   1     -18.645   3.287   4.711  0.00  0.00     0.085 H 
ATOM     16  H   LX8 d   1     -19.050   1.889  -0.060  0.00  0.00     0.092 H 
ATOM     17  H   LX8 d   1     -18.716   1.133   5.395  0.00  0.00     0.086 H 
ATOM     18  H   LX8 d   1     -17.628   5.761   2.803  0.00  0.00     0.044 H 
ATOM     19  H   LX8 d   1     -19.068   5.795   3.646  0.00  0.00     0.044 H 
ATOM     20  H   LX8 d   1     -20.429   5.744   1.227  0.00  0.00     0.089 H 
ENDROOT
BRANCH  14  21
ATOM     21  CAZ LX8 d   1     -18.817   7.156   1.587  0.00  0.00     0.090 C 
BRANCH  21  22
ATOM     22  CAE LX8 d   1     -18.848   7.499   3.084  0.00  0.00    -0.045 C 
ATOM     23  H   LX8 d   1     -18.420   8.489   3.237  0.00  0.00     0.031 H 
ATOM     24  H   LX8 d   1     -19.879   7.489   3.436  0.00  0.00     0.031 H 
ATOM     25  H   LX8 d   1     -18.267   6.761   3.637  0.00  0.00     0.031 H 
ENDBRANCH  21  22
BRANCH  21  26
ATOM     26  CAF LX8 d   1     -17.410   7.188   1.017  0.00  0.00    -0.045 C 
ATOM     27  H   LX8 d   1     -17.445   6.955  -0.047  0.00  0.00     0.031 H 
ATOM     28  H   LX8 d   1     -16.984   8.181   1.159  0.00  0.00     0.031 H 
ATOM     29  H   LX8 d   1     -16.794   6.451   1.532  0.00  0.00     0.031 H 
ENDBRANCH  21  26
BRANCH  21  30
ATOM     30  OAN LX8 d   1     -19.586   8.138   0.882  0.00  0.00    -0.308 OA
BRANCH  30  31
ATOM     31  CAQ LX8 d   1     -19.632   9.328   1.562  0.00  0.00     0.255 C 
ATOM     32  OAG LX8 d   1     -18.632  10.038   1.710  0.00  0.00    -0.266 OA
BRANCH  31  33
ATOM     33  CAB LX8 d   1     -20.967   9.758   2.132  0.00  0.00     0.004 C 
ATOM     34  H   LX8 d   1     -20.881   9.865   3.213  0.00  0.00     0.041 H 
ATOM     35  H   LX8 d   1     -21.258  10.712   1.693  0.00  0.00     0.041 H 
ATOM     36  H   LX8 d   1     -21.720   9.005   1.899  0.00  0.00     0.041 H 
ENDBRANCH  31  33
ENDBRANCH  30  31
ENDBRANCH  21  30
ENDBRANCH  14  21
BRANCH  10  37
ATOM     37  CAY LX8 d   1     -19.184  -1.442   5.384  0.00  0.00     0.003 C 
BRANCH  37  38
ATOM     38  CAC LX8 d   1     -20.669  -1.717   5.644  0.00  0.00    -0.062 C 
ATOM     39  H   LX8 d   1     -20.771  -2.346   6.528  0.00  0.00     0.029 H 
ATOM     40  H   LX8 d   1     -21.189  -0.773   5.806  0.00  0.00     0.029 H 
ATOM     41  H   LX8 d   1     -21.099  -2.227   4.782  0.00  0.00     0.029 H 
ENDBRANCH  37  38
BRANCH  37  42
ATOM     42  CAD LX8 d   1     -18.411  -2.737   5.191  0.00  0.00    -0.062 C 
ATOM     43  H   LX8 d   1     -17.363  -2.508   4.997  0.00  0.00     0.029 H 
ATOM     44  H   LX8 d   1     -18.491  -3.344   6.093  0.00  0.00     0.029 H 
ATOM     45  H   LX8 d   1     -18.827  -3.284   4.345  0.00  0.00     0.029 H 
ENDBRANCH  37  42
BRANCH  37  46
ATOM     46  CAI LX8 d   1     -18.607  -0.786   6.479  0.00  0.00    -0.100 C 
ATOM     47  CAA LX8 d   1     -19.325  -0.032   7.408  0.00  0.00    -0.124 C 
ATOM     48  H   LX8 d   1     -20.405   0.074   7.306  0.00  0.00     0.066 H 
ATOM     49  H   LX8 d   1     -18.806   0.451   8.236  0.00  0.00     0.066 H 
ATOM     50  H   LX8 d   1     -17.529  -0.870   6.614  0.00  0.00     0.077 H 
ENDBRANCH  37  46
ENDBRANCH  10  37
TORSDOF 10
