REMARK  10 active torsions:
REMARK  status: ('A' for Active; 'I' for Inactive)
REMARK    1  A    between atoms: C5'_2  and  O5'_1 
REMARK    2  A    between atoms: C4'_3  and  C5'_2 
REMARK    3  A    between atoms: C1'_5  and  N9_6 
REMARK    4  A    between atoms: C6_11  and  N6_12 
REMARK    5  A    between atoms: C2'_16  and  O2'_17 
REMARK    6  A    between atoms: N8_19  and  C3'_18 
REMARK    7  A    between atoms: CA_21  and  N_20 
REMARK    8  A    between atoms: CA_21  and  CB_22 
REMARK    9  A    between atoms: CA_21  and  C_24 
REMARK   10  A    between atoms: CB_22  and  OG_23 
ROOT
ATOM      1  C4' A3S d   1       7.099   6.788 -16.852  0.00  0.00     0.083 C 
ATOM      2  O4' A3S d   1       7.843   7.290 -17.977  0.00  0.00    -0.354 OA
ATOM      3  C1' A3S d   1       9.090   6.577 -18.076  0.00  0.00     0.139 C 
ATOM      4  C2' A3S d   1       8.960   5.364 -17.152  0.00  0.00     0.100 C 
ATOM      5  C3' A3S d   1       8.086   5.946 -16.045  0.00  0.00     0.067 C 
ATOM      6  H   A3S d   1       6.231   6.209 -17.167  0.00  0.00     0.090 H 
ATOM      7  H   A3S d   1       9.324   6.214 -19.077  0.00  0.00     0.122 H 
ATOM      8  H   A3S d   1       9.904   4.936 -16.814  0.00  0.00     0.093 H 
ATOM      9  H   A3S d   1       8.647   6.492 -15.286  0.00  0.00     0.080 H 
ENDROOT
BRANCH   5  10
ATOM     10  N8  A3S d   1       7.360   4.886 -15.326  0.00  0.00    -0.360 N 
ATOM     11  C   A3S d   1       7.845   4.238 -14.273  0.00  0.00     0.184 C 
ATOM     12  O   A3S d   1       9.058   4.487 -13.709  0.00  0.00    -0.175 OA
ATOM     13  H   A3S d   1       6.428   4.634 -15.656  0.00  0.00     0.162 HD
BRANCH  11  14
ATOM     14  CA  A3S d   1       6.970   3.146 -13.654  0.00  0.00     0.183 C 
ATOM     15  H   A3S d   1       6.424   2.638 -14.449  0.00  0.00     0.100 H 
BRANCH  14  16
ATOM     16  N   A3S d   1       7.815   2.173 -12.946  0.00  0.00    -0.066 N 
ATOM     17  H   A3S d   1       8.482   1.764 -13.601  0.00  0.00     0.275 HD
ATOM     18  H   A3S d   1       8.319   2.645 -12.195  0.00  0.00     0.275 HD
ATOM     19  H   A3S d   1       7.228   1.437 -12.553  0.00  0.00     0.275 HD
ENDBRANCH  14  16
BRANCH  14  20
ATOM     20  CB  A3S d   1       5.966   3.765 -12.679  0.00  0.00     0.050 C 
ATOM     21  H   A3S d   1       5.381   4.530 -13.190  0.00  0.00     0.077 H 
ATOM     22  H   A3S d   1       6.497   4.224 -11.845  0.00  0.00     0.077 H 
BRANCH  20  23
ATOM     23  OG  A3S d   1       5.098   2.738 -12.192  0.00  0.00    -0.398 OA
ATOM     24  H   A3S d   1       4.465   3.119 -11.579  0.00  0.00     0.209 HD
ENDBRANCH  20  23
ENDBRANCH  14  20
ENDBRANCH  11  14
ENDBRANCH   5  10
BRANCH   1  25
ATOM     25  C5' A3S d   1       6.608   7.957 -15.996  0.00  0.00     0.043 C 
ATOM     26  H   A3S d   1       5.936   8.580 -16.587  0.00  0.00     0.078 H 
ATOM     27  H   A3S d   1       6.080   7.570 -15.125  0.00  0.00     0.078 H 
BRANCH  25  28
ATOM     28  O5' A3S d   1       7.724   8.741 -15.564  0.00  0.00    -0.398 OA
ATOM     29  H   A3S d   1       8.191   9.082 -16.331  0.00  0.00     0.209 HD
ENDBRANCH  25  28
ENDBRANCH   1  25
BRANCH   4  30
ATOM     30  O2' A3S d   1       8.251   4.323 -17.830  0.00  0.00    -0.389 OA
ATOM     31  H   A3S d   1       8.170   3.562 -17.250  0.00  0.00     0.210 HD
ENDBRANCH   4  30
BRANCH   3  32
ATOM     32  N9  A3S d   1      10.182   7.511 -17.712  0.00  0.00    -0.294 N 
ATOM     33  C4  A3S d   1      11.425   7.194 -17.355  0.00  0.00     0.167 A 
ATOM     34  N3  A3S d   1      12.050   6.032 -17.111  0.00  0.00    -0.222 NA
ATOM     35  C5  A3S d   1      12.125   8.386 -17.239  0.00  0.00     0.149 A 
ATOM     36  C2  A3S d   1      13.325   6.007 -16.761  0.00  0.00     0.091 A 
ATOM     37  N1  A3S d   1      14.022   7.125 -16.644  0.00  0.00    -0.222 NA
ATOM     38  H   A3S d   1      13.809   5.050 -16.566  0.00  0.00     0.146 H 
ATOM     39  C6  A3S d   1      13.465   8.323 -16.875  0.00  0.00     0.155 A 
ATOM     40  N7  A3S d   1      11.288   9.380 -17.518  0.00  0.00    -0.236 NA
ATOM     41  C8  A3S d   1      10.105   8.836 -17.801  0.00  0.00     0.071 A 
ATOM     42  H   A3S d   1       9.207   9.394 -18.066  0.00  0.00     0.144 H 
BRANCH  39  43
ATOM     43  N6  A3S d   1      14.186   9.438 -16.783  0.00  0.00    -0.382 N 
ATOM     44  H   A3S d   1      13.755  10.341 -16.980  0.00  0.00     0.157 HD
ATOM     45  H   A3S d   1      15.169   9.389 -16.516  0.00  0.00     0.157 HD
ENDBRANCH  39  43
ENDBRANCH   3  32
TORSDOF 10
