REMARK  11 active torsions:
REMARK  status: ('A' for Active; 'I' for Inactive)
REMARK    1  A    between atoms: C_1  and  CA_15 
REMARK    2  A    between atoms: CA_15  and  N_2 
REMARK    3  A    between atoms: C6_9  and  N6_10 
REMARK    4  A    between atoms: C3'_21  and  N8_13 
REMARK    5  A    between atoms: C1'_18  and  N9_14 
REMARK    6  A    between atoms: CA_15  and  CB_16 
REMARK    7  A    between atoms: CB_16  and  OG_17 
REMARK    8  A    between atoms: CB_16  and  CG2_26 
REMARK    9  A    between atoms: C2'_19  and  O2'_20 
REMARK   10  A    between atoms: C4'_22  and  C5'_24 
REMARK   11  A    between atoms: C5'_24  and  O5'_25 
ROOT
ATOM      1  C1' A3T d   1       9.104   6.342 -18.244  0.00  0.00     0.139 C 
ATOM      2  C2' A3T d   1       9.022   5.186 -17.245  0.00  0.00     0.100 C 
ATOM      3  C3' A3T d   1       8.212   5.838 -16.128  0.00  0.00     0.067 C 
ATOM      4  C4' A3T d   1       7.207   6.681 -16.914  0.00  0.00     0.083 C 
ATOM      5  O4' A3T d   1       7.827   6.999 -18.173  0.00  0.00    -0.354 OA
ATOM      6  H   A3T d   1       9.351   5.945 -19.229  0.00  0.00     0.122 H 
ATOM      7  H   A3T d   1       9.981   4.771 -16.935  0.00  0.00     0.093 H 
ATOM      8  H   A3T d   1       8.827   6.397 -15.423  0.00  0.00     0.080 H 
ATOM      9  H   A3T d   1       6.270   6.149 -17.079  0.00  0.00     0.090 H 
ENDROOT
BRANCH   3  10
ATOM     10  N8  A3T d   1       7.491   4.831 -15.336  0.00  0.00    -0.360 N 
ATOM     11  C   A3T d   1       7.971   4.283 -14.222  0.00  0.00     0.185 C 
ATOM     12  O   A3T d   1       9.175   4.588 -13.671  0.00  0.00    -0.175 OA
ATOM     13  H   A3T d   1       6.570   4.535 -15.659  0.00  0.00     0.162 HD
BRANCH  11  14
ATOM     14  CA  A3T d   1       7.104   3.232 -13.526  0.00  0.00     0.187 C 
ATOM     15  H   A3T d   1       6.369   2.852 -14.235  0.00  0.00     0.101 H 
BRANCH  14  16
ATOM     16  N   A3T d   1       7.969   2.142 -13.052  0.00  0.00    -0.065 N 
ATOM     17  H   A3T d   1       8.465   1.734 -13.844  0.00  0.00     0.275 HD
ATOM     18  H   A3T d   1       8.643   2.511 -12.381  0.00  0.00     0.275 HD
ATOM     19  H   A3T d   1       7.397   1.427 -12.603  0.00  0.00     0.275 HD
ENDBRANCH  14  16
BRANCH  14  20
ATOM     20  CB  A3T d   1       6.359   3.844 -12.338  0.00  0.00     0.067 C 
ATOM     21  H   A3T d   1       7.069   4.060 -11.540  0.00  0.00     0.086 H 
BRANCH  20  22
ATOM     22  OG  A3T d   1       5.388   2.900 -11.876  0.00  0.00    -0.393 OA
ATOM     23  H   A3T d   1       4.912   3.271 -11.130  0.00  0.00     0.210 HD
ENDBRANCH  20  22
BRANCH  20  24
ATOM     24  CG2 A3T d   1       5.707   5.179 -12.706  0.00  0.00    -0.050 C 
ATOM     25  H   A3T d   1       6.476   5.881 -13.028  0.00  0.00     0.031 H 
ATOM     26  H   A3T d   1       4.994   5.023 -13.515  0.00  0.00     0.031 H 
ATOM     27  H   A3T d   1       5.188   5.581 -11.836  0.00  0.00     0.031 H 
ENDBRANCH  20  24
ENDBRANCH  14  20
ENDBRANCH  11  14
ENDBRANCH   3  10
BRANCH   2  28
ATOM     28  O2' A3T d   1       8.268   4.116 -17.822  0.00  0.00    -0.389 OA
ATOM     29  H   A3T d   1       8.215   3.389 -17.197  0.00  0.00     0.210 HD
ENDBRANCH   2  28
BRANCH   4  30
ATOM     30  C5' A3T d   1       6.891   7.953 -16.124  0.00  0.00     0.043 C 
ATOM     31  H   A3T d   1       6.368   7.686 -15.206  0.00  0.00     0.078 H 
ATOM     32  H   A3T d   1       6.264   8.607 -16.730  0.00  0.00     0.078 H 
BRANCH  30  33
ATOM     33  O5' A3T d   1       8.104   8.635 -15.795  0.00  0.00    -0.398 OA
ATOM     34  H   A3T d   1       7.898   9.431 -15.300  0.00  0.00     0.209 HD
ENDBRANCH  30  33
ENDBRANCH   4  30
BRANCH   1  35
ATOM     35  N9  A3T d   1      10.159   7.332 -17.927  0.00  0.00    -0.294 N 
ATOM     36  C4  A3T d   1      11.408   7.077 -17.548  0.00  0.00     0.167 A 
ATOM     37  N3  A3T d   1      12.076   5.955 -17.243  0.00  0.00    -0.222 NA
ATOM     38  C5  A3T d   1      12.071   8.296 -17.490  0.00  0.00     0.149 A 
ATOM     39  C2  A3T d   1      13.349   6.004 -16.893  0.00  0.00     0.091 A 
ATOM     40  N1  A3T d   1      14.013   7.145 -16.833  0.00  0.00    -0.222 NA
ATOM     41  H   A3T d   1      13.866   5.077 -16.647  0.00  0.00     0.146 H 
ATOM     42  C6  A3T d   1      13.411   8.307 -17.124  0.00  0.00     0.155 A 
ATOM     43  N7  A3T d   1      11.199   9.242 -17.824  0.00  0.00    -0.236 NA
ATOM     44  C8  A3T d   1      10.037   8.648 -18.085  0.00  0.00     0.071 A 
ATOM     45  H   A3T d   1       9.123   9.162 -18.383  0.00  0.00     0.144 H 
BRANCH  42  46
ATOM     46  N6  A3T d   1      14.088   9.452 -17.086  0.00  0.00    -0.382 N 
ATOM     47  H   A3T d   1      13.623  10.328 -17.326  0.00  0.00     0.157 HD
ATOM     48  H   A3T d   1      15.072   9.454 -16.817  0.00  0.00     0.157 HD
ENDBRANCH  42  46
ENDBRANCH   1  35
TORSDOF 11
