REMARK  8 active torsions:
REMARK  status: ('A' for Active; 'I' for Inactive)
REMARK    1  A    between atoms: C_1  and  CA_15 
REMARK    2  A    between atoms: CA_15  and  N_2 
REMARK    3  A    between atoms: C6_9  and  N6_10 
REMARK    4  A    between atoms: C3'_19  and  N8_13 
REMARK    5  A    between atoms: C1'_16  and  N9_14 
REMARK    6  A    between atoms: C2'_17  and  O2'_18 
REMARK    7  A    between atoms: C4'_20  and  C5'_22 
REMARK    8  A    between atoms: C5'_22  and  O5'_23 
ROOT
ATOM      1  C1' A3G d   1      11.303   4.754 -17.356  0.00  0.00     0.139 C 
ATOM      2  C2' A3G d   1      11.178   3.703 -16.272  0.00  0.00     0.100 C 
ATOM      3  C3' A3G d   1      10.269   4.387 -15.249  0.00  0.00     0.067 C 
ATOM      4  C4' A3G d   1       9.272   5.176 -16.137  0.00  0.00     0.083 C 
ATOM      5  O4' A3G d   1      10.024   5.500 -17.363  0.00  0.00    -0.354 OA
ATOM      6  H   A3G d   1      11.535   4.207 -18.270  0.00  0.00     0.122 H 
ATOM      7  H   A3G d   1      12.117   3.354 -15.842  0.00  0.00     0.093 H 
ATOM      8  H   A3G d   1      10.801   5.040 -14.557  0.00  0.00     0.080 H 
ATOM      9  H   A3G d   1       8.386   4.558 -16.284  0.00  0.00     0.090 H 
ENDROOT
BRANCH   1  10
ATOM     10  N9  A3G d   1      12.437   5.758 -17.240  0.00  0.00    -0.294 N 
ATOM     11  C4  A3G d   1      13.714   5.532 -16.927  0.00  0.00     0.167 A 
ATOM     12  N3  A3G d   1      14.427   4.438 -16.604  0.00  0.00    -0.222 NA
ATOM     13  C5  A3G d   1      14.345   6.762 -16.996  0.00  0.00     0.149 A 
ATOM     14  C2  A3G d   1      15.727   4.545 -16.327  0.00  0.00     0.091 A 
ATOM     15  N1  A3G d   1      16.371   5.705 -16.370  0.00  0.00    -0.222 NA
ATOM     16  H   A3G d   1      16.281   3.647 -16.055  0.00  0.00     0.146 H 
ATOM     17  C6  A3G d   1      15.709   6.833 -16.716  0.00  0.00     0.155 A 
ATOM     18  N7  A3G d   1      13.447   7.676 -17.341  0.00  0.00    -0.236 NA
ATOM     19  C8  A3G d   1      12.293   7.072 -17.506  0.00  0.00     0.071 A 
ATOM     20  H   A3G d   1      11.365   7.556 -17.810  0.00  0.00     0.144 H 
BRANCH  17  21
ATOM     21  N6  A3G d   1      16.317   8.021 -16.798  0.00  0.00    -0.382 N 
ATOM     22  H   A3G d   1      15.784   8.850 -17.061  0.00  0.00     0.157 HD
ATOM     23  H   A3G d   1      17.314   8.098 -16.598  0.00  0.00     0.157 HD
ENDBRANCH  17  21
ENDBRANCH   1  10
BRANCH   2  24
ATOM     24  O2' A3G d   1      10.483   2.608 -16.857  0.00  0.00    -0.389 OA
ATOM     25  H   A3G d   1      10.378   1.911 -16.205  0.00  0.00     0.210 HD
ENDBRANCH   2  24
BRANCH   3  26
ATOM     26  N8  A3G d   1       9.609   3.396 -14.349  0.00  0.00    -0.361 N 
ATOM     27  C   A3G d   1      10.269   2.911 -13.289  0.00  0.00     0.177 C 
ATOM     28  O   A3G d   1      11.535   3.264 -12.979  0.00  0.00    -0.176 OA
ATOM     29  H   A3G d   1       8.656   3.088 -14.541  0.00  0.00     0.162 HD
BRANCH  27  30
ATOM     30  CA  A3G d   1       9.604   1.918 -12.340  0.00  0.00     0.140 C 
ATOM     31  H   A3G d   1       8.798   2.440 -11.824  0.00  0.00     0.088 H 
ATOM     32  H   A3G d   1      10.370   1.542 -11.662  0.00  0.00     0.088 H 
BRANCH  30  33
ATOM     33  N   A3G d   1       9.020   0.770 -13.034  0.00  0.00    -0.072 N 
ATOM     34  H   A3G d   1       8.592   0.144 -12.352  0.00  0.00     0.274 HD
ATOM     35  H   A3G d   1       8.310   1.096 -13.690  0.00  0.00     0.274 HD
ATOM     36  H   A3G d   1       9.752   0.273 -13.542  0.00  0.00     0.274 HD
ENDBRANCH  30  33
ENDBRANCH  27  30
ENDBRANCH   3  26
BRANCH   4  37
ATOM     37  C5' A3G d   1       8.741   6.476 -15.537  0.00  0.00     0.043 C 
ATOM     38  H   A3G d   1       8.124   6.245 -14.669  0.00  0.00     0.078 H 
ATOM     39  H   A3G d   1       8.148   7.001 -16.285  0.00  0.00     0.078 H 
BRANCH  37  40
ATOM     40  O5' A3G d   1       9.824   7.301 -15.135  0.00  0.00    -0.398 OA
ATOM     41  H   A3G d   1      10.370   7.504 -15.898  0.00  0.00     0.209 HD
ENDBRANCH  37  40
ENDBRANCH   4  37
TORSDOF 8
