REMARK  3 active torsions:
REMARK  status: ('A' for Active; 'I' for Inactive)
REMARK    1  A    between atoms: C2_2  and  N11_11 
REMARK       I    between atoms: N11_11  and  C12_12 
REMARK    2  A    between atoms: C12_12  and  C13_13 
REMARK    3  A    between atoms: C13_13  and  C14_14 
ROOT
ATOM      1  N11 ZYI d   1      10.029   3.904  -1.805  0.00  0.00    -0.291 N 
ATOM      2  C12 ZYI d   1      10.271   2.666  -2.405  0.00  0.00     0.225 C 
ATOM      3  O19 ZYI d   1      11.226   2.372  -3.124  0.00  0.00    -0.273 OA
ATOM      4  H   ZYI d   1       9.065   4.230  -1.738  0.00  0.00     0.172 HD
ENDROOT
BRANCH   2   5
ATOM      5  C13 ZYI d   1       9.159   1.678  -2.057  0.00  0.00     0.013 C 
ATOM      6  H   ZYI d   1       8.267   2.267  -1.844  0.00  0.00     0.047 H 
ATOM      7  H   ZYI d   1       9.518   1.077  -1.221  0.00  0.00     0.047 H 
BRANCH   5   8
ATOM      8  C14 ZYI d   1       8.796   0.711  -3.174  0.00  0.00    -0.046 C 
ATOM      9  C15 ZYI d   1       8.263   1.394  -4.435  0.00  0.00    -0.061 C 
ATOM     10  C16 ZYI d   1       7.432   0.328  -5.153  0.00  0.00    -0.065 C 
ATOM     11  H   ZYI d   1       9.073   1.762  -5.064  0.00  0.00     0.033 H 
ATOM     12  H   ZYI d   1       7.665   2.272  -4.192  0.00  0.00     0.033 H 
ATOM     13  C17 ZYI d   1       7.062  -0.712  -4.106  0.00  0.00    -0.065 C 
ATOM     14  H   ZYI d   1       7.998  -0.124  -5.968  0.00  0.00     0.033 H 
ATOM     15  H   ZYI d   1       6.539   0.766  -5.600  0.00  0.00     0.033 H 
ATOM     16  C18 ZYI d   1       7.675  -0.247  -2.786  0.00  0.00    -0.061 C 
ATOM     17  H   ZYI d   1       7.442  -1.695  -4.385  0.00  0.00     0.033 H 
ATOM     18  H   ZYI d   1       5.980  -0.806  -4.019  0.00  0.00     0.033 H 
ATOM     19  H   ZYI d   1       6.935   0.240  -2.151  0.00  0.00     0.033 H 
ATOM     20  H   ZYI d   1       8.051  -1.087  -2.202  0.00  0.00     0.033 H 
ATOM     21  H   ZYI d   1       9.742   0.203  -3.358  0.00  0.00     0.040 H 
ENDBRANCH   5   8
ENDBRANCH   2   5
BRANCH   1  22
ATOM     22  C2  ZYI d   1      11.047   4.722  -1.290  0.00  0.00     0.254 A 
ATOM     23  N1  ZYI d   1      12.164   5.062  -1.905  0.00  0.00    -0.206 NA
ATOM     24  C10 ZYI d   1      12.807   5.872  -1.006  0.00  0.00     0.096 A 
ATOM     25  C4  ZYI d   1      12.059   6.003   0.126  0.00  0.00     0.108 A 
ATOM     26  C9  ZYI d   1      14.023   6.546  -1.093  0.00  0.00    -0.031 A 
ATOM     27  O3  ZYI d   1      10.936   5.269  -0.034  0.00  0.00    -0.276 OA
ATOM     28  C5  ZYI d   1      12.433   6.760   1.231  0.00  0.00    -0.046 A 
ATOM     29  C6  ZYI d   1      13.669   7.436   1.130  0.00  0.00    -0.059 A 
ATOM     30  H   ZYI d   1      11.809   6.828   2.122  0.00  0.00     0.087 H 
ATOM     31  C7  ZYI d   1      14.452   7.328  -0.008  0.00  0.00     0.036 A 
ATOM     32  H   ZYI d   1      14.012   8.053   1.961  0.00  0.00     0.086 H 
ATOM     33 CL8  ZYI d   1      15.987   8.160  -0.102  0.00  0.00    -0.084 Cl
ATOM     34  H   ZYI d   1      14.634   6.468  -1.992  0.00  0.00     0.089 H 
ENDBRANCH   1  22
TORSDOF 3
