REMARK  6 active torsions:
REMARK  status: ('A' for Active; 'I' for Inactive)
REMARK    1  A    between atoms: C02_2  and  C03_3 
REMARK    2  A    between atoms: C07_7  and  C08_8 
REMARK    3  A    between atoms: C10_10  and  C11_11 
REMARK       I    between atoms: C11_11  and  N12_12 
REMARK    4  A    between atoms: N12_12  and  C13_13 
REMARK    5  A    between atoms: C13_13  and  C14_14 
REMARK    6  A    between atoms: C14_14  and  N15_15 
ROOT
ATOM      1  C08 KC6 d   1     -27.379 -19.787 -20.964  0.00  0.00     0.086 C 
ATOM      2  C09 KC6 d   1     -26.372 -18.878 -20.522  0.00  0.00    -0.038 C 
ATOM      3  C10 KC6 d   1     -26.645 -17.855 -19.608  0.00  0.00     0.035 C 
ATOM      4  C17 KC6 d   1     -27.967 -17.680 -19.192  0.00  0.00    -0.051 C 
ATOM      5  C18 KC6 d   1     -28.929 -18.567 -19.710  0.00  0.00     0.004 C 
ATOM      6  N19 KC6 d   1     -28.679 -19.565 -20.605  0.00  0.00    -0.259 NA
ATOM      7  H3  KC6 d   1     -25.364 -18.983 -20.907  0.00  0.00     0.088 H 
ATOM      8  H12 KC6 d   1     -28.241 -16.893 -18.498  0.00  0.00     0.087 H 
ATOM      9  H13 KC6 d   1     -29.951 -18.447 -19.370  0.00  0.00     0.114 H 
ENDROOT
BRANCH   3  10
ATOM     10  C11 KC6 d   1     -25.586 -16.891 -19.133  0.00  0.00     0.251 C 
ATOM     11  N12 KC6 d   1     -25.843 -15.515 -18.986  0.00  0.00    -0.355 N 
ATOM     12  H4  KC6 d   1     -26.793 -15.226 -18.871  0.00  0.00     0.162 HD
ATOM     13  O16 KC6 d   1     -24.441 -17.334 -18.955  0.00  0.00    -0.268 OA
BRANCH  11  14
ATOM     14  C13 KC6 d   1     -24.800 -14.474 -18.991  0.00  0.00     0.018 C 
ATOM     15  H5  KC6 d   1     -25.291 -13.505 -18.816  0.00  0.00     0.066 H 
ATOM     16  H6  KC6 d   1     -24.331 -14.473 -19.986  0.00  0.00     0.066 H 
BRANCH  14  17
ATOM     17  C14 KC6 d   1     -23.669 -14.632 -17.932  0.00  0.00     0.094 C 
ATOM     18  H7  KC6 d   1     -24.109 -15.058 -17.018  0.00  0.00     0.077 H 
ATOM     19  H8  KC6 d   1     -23.261 -13.635 -17.712  0.00  0.00     0.077 H 
BRANCH  17  20
ATOM     20  N15 KC6 d   1     -22.561 -15.500 -18.358  0.00  0.00    -0.078 N 
ATOM     21  H9  KC6 d   1     -21.873 -15.552 -17.623  0.00  0.00     0.274 HD
ATOM     22  H10 KC6 d   1     -22.137 -15.119 -19.189  0.00  0.00     0.274 HD
ATOM     23  H11 KC6 d   1     -22.914 -16.424 -18.554  0.00  0.00     0.274 HD
ENDBRANCH  17  20
ENDBRANCH  14  17
ENDBRANCH  11  14
ENDBRANCH   3  10
BRANCH   1  24
ATOM     24  C07 KC6 d   1     -27.093 -20.851 -22.018  0.00  0.00     0.086 A 
ATOM     25  N06 KC6 d   1     -28.064 -21.788 -22.255  0.00  0.00    -0.259 NA
ATOM     26  C05 KC6 d   1     -27.865 -22.687 -23.227  0.00  0.00     0.004 A 
ATOM     27  C04 KC6 d   1     -26.709 -22.749 -24.009  0.00  0.00    -0.049 A 
ATOM     28  H2  KC6 d   1     -28.649 -23.411 -23.419  0.00  0.00     0.114 H 
ATOM     29  C03 KC6 d   1     -25.725 -21.803 -23.784  0.00  0.00     0.044 A 
ATOM     30  H1  KC6 d   1     -26.587 -23.514 -24.768  0.00  0.00     0.087 H 
ATOM     31  C20 KC6 d   1     -25.901 -20.849 -22.780  0.00  0.00    -0.036 A 
ATOM     32  H14 KC6 d   1     -25.130 -20.112 -22.586  0.00  0.00     0.088 H 
BRANCH  29  33
ATOM     33  C02 KC6 d   1     -24.465 -21.926 -24.657  0.00  0.00     0.209 C 
ATOM     34  O01 KC6 d   1     -24.626 -22.422 -25.774  0.00  0.00    -0.644 OA
ATOM     35  O21 KC6 d   1     -23.407 -21.524 -24.113  0.00  0.00    -0.644 OA
ENDBRANCH  29  33
ENDBRANCH   1  24
TORSDOF 6
