REMARK  14 active torsions:
REMARK  status: ('A' for Active; 'I' for Inactive)
REMARK    1  A    between atoms: C1_1  and  C2_2 
REMARK    2  A    between atoms: C2_2  and  C3_3 
REMARK    3  A    between atoms: C3_3  and  C4_4 
REMARK    4  A    between atoms: C4_4  and  N5_5 
REMARK    5  A    between atoms: N5_5  and  C6_6 
REMARK    6  A    between atoms: N5_5  and  S21_21 
REMARK    7  A    between atoms: C10_10  and  C13_13 
REMARK    8  A    between atoms: C11_11  and  C12_12 
REMARK    9  A    between atoms: C16_16  and  S17_17 
REMARK   10  A    between atoms: S17_17  and  C18_18 
REMARK   11  A    between atoms: S21_21  and  C24_24 
REMARK   12  A    between atoms: C27_27  and  O28_28 
REMARK   13  A    between atoms: O28_28  and  C29_29 
REMARK   14  A    between atoms: C29_29  and  C30_30 
ROOT
ATOM      1  N5  3EQ d   1      33.836   4.369  59.257  0.00  0.00    -0.172 NA
ENDROOT
BRANCH   1   2
ATOM      2  C4  3EQ d   1      33.794   2.879  59.335  0.00  0.00    -0.001 C 
ATOM      3  H8  3EQ d   1      33.690   2.482  58.315  0.00  0.00     0.058 H 
ATOM      4  H9  3EQ d   1      34.741   2.528  59.770  0.00  0.00     0.058 H 
BRANCH   2   5
ATOM      5  C3  3EQ d   1      32.652   2.340  60.177  0.00  0.00    -0.053 C 
ATOM      6  H6  3EQ d   1      32.833   2.565  61.238  0.00  0.00     0.034 H 
ATOM      7  H7  3EQ d   1      31.705   2.802  59.860  0.00  0.00     0.034 H 
BRANCH   5   8
ATOM      8  C2  3EQ d   1      32.584   0.841  59.975  0.00  0.00    -0.067 C 
ATOM      9  H4  3EQ d   1      32.253   0.636  58.946  0.00  0.00     0.032 H 
ATOM     10  H5  3EQ d   1      33.587   0.417  60.128  0.00  0.00     0.032 H 
BRANCH   8  11
ATOM     11  C1  3EQ d   1      31.624   0.181  60.936  0.00  0.00    -0.076 C 
ATOM     12  H1  3EQ d   1      31.608  -0.903  60.752  0.00  0.00     0.027 H 
ATOM     13  H2  3EQ d   1      30.615   0.593  60.787  0.00  0.00     0.027 H 
ATOM     14  H3  3EQ d   1      31.949   0.373  61.969  0.00  0.00     0.027 H 
ENDBRANCH   8  11
ENDBRANCH   5   8
ENDBRANCH   2   5
ENDBRANCH   1   2
BRANCH   1  15
ATOM     15  C6  3EQ d   1      32.726   4.951  58.528  0.00  0.00     0.032 A 
ATOM     16  C7  3EQ d   1      31.649   5.499  59.192  0.00  0.00    -0.061 A 
ATOM     17  C8  3EQ d   1      30.596   6.029  58.477  0.00  0.00    -0.080 A 
ATOM     18  H10 3EQ d   1      31.630   5.513  60.276  0.00  0.00     0.086 H 
ATOM     19  C9  3EQ d   1      30.620   5.988  57.100  0.00  0.00    -0.072 A 
ATOM     20  H11 3EQ d   1      29.755   6.475  58.995  0.00  0.00     0.083 H 
ATOM     21  C10 3EQ d   1      31.679   5.432  56.412  0.00  0.00    -0.018 A 
ATOM     22  H12 3EQ d   1      29.787   6.402  56.544  0.00  0.00     0.084 H 
ATOM     23  C11 3EQ d   1      32.743   4.913  57.142  0.00  0.00    -0.029 A 
BRANCH  21  24
ATOM     24  C13 3EQ d   1      31.596   5.397  54.959  0.00  0.00    -0.025 A 
ATOM     25  C14 3EQ d   1      31.229   6.507  54.225  0.00  0.00    -0.071 A 
ATOM     26  C15 3EQ d   1      31.129   6.458  52.851  0.00  0.00    -0.066 A 
ATOM     27  H16 3EQ d   1      31.015   7.437  54.740  0.00  0.00     0.084 H 
ATOM     28  C16 3EQ d   1      31.394   5.293  52.167  0.00  0.00    -0.000 A 
ATOM     29  H17 3EQ d   1      30.838   7.347  52.303  0.00  0.00     0.085 H 
ATOM     30  C19 3EQ d   1      31.760   4.180  52.894  0.00  0.00    -0.066 A 
ATOM     31  C20 3EQ d   1      31.853   4.229  54.267  0.00  0.00    -0.071 A 
ATOM     32  H21 3EQ d   1      31.978   3.252  52.377  0.00  0.00     0.085 H 
ATOM     33  H22 3EQ d   1      32.133   3.336  54.814  0.00  0.00     0.084 H 
BRANCH  28  34
ATOM     34  S17 3EQ d   1      31.264   5.258  50.388  0.00  0.00    -0.134 SA
BRANCH  34  35
ATOM     35  C18 3EQ d   1      32.074   3.685  50.073  0.00  0.00    -0.030 C 
ATOM     36  H18 3EQ d   1      32.087   3.490  48.990  0.00  0.00     0.042 H 
ATOM     37  H19 3EQ d   1      31.524   2.881  50.584  0.00  0.00     0.042 H 
ATOM     38  H20 3EQ d   1      33.106   3.722  50.452  0.00  0.00     0.042 H 
ENDBRANCH  34  35
ENDBRANCH  28  34
ENDBRANCH  21  24
BRANCH  23  39
ATOM     39  C12 3EQ d   1      33.927   4.295  56.464  0.00  0.00    -0.049 C 
ATOM     40  H13 3EQ d   1      34.646   3.952  57.222  0.00  0.00     0.033 H 
ATOM     41  H14 3EQ d   1      34.408   5.041  55.814  0.00  0.00     0.033 H 
ATOM     42  H15 3EQ d   1      33.597   3.439  55.858  0.00  0.00     0.033 H 
ENDBRANCH  23  39
ENDBRANCH   1  15
BRANCH   1  43
ATOM     43  S21 3EQ d   1      34.296   5.050  60.757  0.00  0.00     0.248 S 
ATOM     44  O22 3EQ d   1      35.369   4.235  61.291  0.00  0.00    -0.205 OA
ATOM     45  O23 3EQ d   1      33.126   5.247  61.597  0.00  0.00    -0.205 OA
BRANCH  43  46
ATOM     46  C24 3EQ d   1      35.015   6.658  60.444  0.00  0.00     0.086 A 
ATOM     47  C25 3EQ d   1      34.406   7.722  61.071  0.00  0.00    -0.057 A 
ATOM     48  C26 3EQ d   1      34.899   8.999  60.908  0.00  0.00    -0.048 A 
ATOM     49  H23 3EQ d   1      33.536   7.555  61.695  0.00  0.00     0.086 H 
ATOM     50  C27 3EQ d   1      36.010   9.208  60.118  0.00  0.00     0.080 A 
ATOM     51  H24 3EQ d   1      34.415   9.836  61.399  0.00  0.00     0.087 H 
ATOM     52  C33 3EQ d   1      36.625   8.138  59.493  0.00  0.00     0.009 A 
ATOM     53  C34 3EQ d   1      37.738   8.353  58.705  0.00  0.00    -0.070 A 
ATOM     54  C38 3EQ d   1      36.128   6.852  59.649  0.00  0.00    -0.000 A 
ATOM     55  C35 3EQ d   1      38.362   7.303  58.069  0.00  0.00    -0.082 A 
ATOM     56  H27 3EQ d   1      38.125   9.359  58.586  0.00  0.00     0.085 H 
ATOM     57  C36 3EQ d   1      37.875   6.023  58.219  0.00  0.00    -0.082 A 
ATOM     58  H28 3EQ d   1      39.235   7.483  57.452  0.00  0.00     0.083 H 
ATOM     59  C37 3EQ d   1      36.763   5.809  59.005  0.00  0.00    -0.071 A 
ATOM     60  H29 3EQ d   1      38.362   5.191  57.723  0.00  0.00     0.083 H 
ATOM     61  H30 3EQ d   1      36.380   4.802  59.120  0.00  0.00     0.084 H 
BRANCH  50  62
ATOM     62  O28 3EQ d   1      36.546  10.480  59.933  0.00  0.00    -0.340 OA
BRANCH  62  63
ATOM     63  C29 3EQ d   1      35.615  11.468  60.382  0.00  0.00     0.105 C 
ATOM     64  H25 3EQ d   1      34.600  11.050  60.317  0.00  0.00     0.091 H 
ATOM     65  H26 3EQ d   1      35.692  12.348  59.726  0.00  0.00     0.091 H 
BRANCH  63  66
ATOM     66  C30 3EQ d   1      35.870  11.909  61.823  0.00  0.00     0.198 C 
ATOM     67  O31 3EQ d   1      35.181  12.899  62.174  0.00  0.00    -0.646 OA
ATOM     68  O32 3EQ d   1      36.698  11.252  62.508  0.00  0.00    -0.646 OA
ENDBRANCH  63  66
ENDBRANCH  62  63
ENDBRANCH  50  62
ENDBRANCH  43  46
ENDBRANCH   1  43
TORSDOF 14
