REMARK  10 active torsions:
REMARK  status: ('A' for Active; 'I' for Inactive)
REMARK    1  A    between atoms: C1_1  and  N2_2 
REMARK    2  A    between atoms: N5_5  and  C8_8 
REMARK    3  A    between atoms: C15_15  and  C31_31 
REMARK    4  A    between atoms: N17_17  and  C18_18 
REMARK    5  A    between atoms: C18_18  and  C19_19 
REMARK    6  A    between atoms: C22_22  and  S25_25 
REMARK    7  A    between atoms: S25_25  and  C26_26 
REMARK    8  A    between atoms: C31_31  and  O33_33 
REMARK    9  A    between atoms: O33_33  and  C34_34 
REMARK   10  A    between atoms: C34_34  and  C35_35 
ROOT
ATOM      1  C8  C9A d   1      34.695  73.834  21.689  0.00  0.00     0.051 A 
ATOM      2  C9  C9A d   1      35.463  75.048  21.726  0.00  0.00     0.138 A 
ATOM      3  F10 C9A d   1      36.709  75.090  21.238  0.00  0.00    -0.204 F 
ATOM      4  C11 C9A d   1      34.958  76.247  22.267  0.00  0.00    -0.028 A 
ATOM      5  C12 C9A d   1      33.646  76.282  22.806  0.00  0.00     0.045 A 
ATOM      6  C13 C9A d   1      33.126  77.566  23.375  0.00  0.00     0.202 A 
ATOM      7  O14 C9A d   1      33.853  78.550  23.393  0.00  0.00    -0.286 OA
ATOM      8  C15 C9A d   1      31.739  77.626  23.946  0.00  0.00     0.105 A 
ATOM      9  C16 C9A d   1      31.032  76.468  23.913  0.00  0.00     0.000 A 
ATOM     10  N17 C9A d   1      31.463  75.222  23.400  0.00  0.00    -0.351 N 
ATOM     11  C29 C9A d   1      32.804  75.116  22.819  0.00  0.00     0.050 A 
ATOM     12  C30 C9A d   1      33.366  73.913  22.250  0.00  0.00    -0.033 A 
ATOM     13  H13 C9A d   1      35.571  77.141  22.271  0.00  0.00     0.089 H 
ATOM     14  H14 C9A d   1      30.025  76.501  24.326  0.00  0.00     0.113 H 
ATOM     15  H24 C9A d   1      32.755  73.018  22.244  0.00  0.00     0.089 H 
ENDROOT
BRANCH  10  16
ATOM     16  C18 C9A d   1      30.584  74.017  23.531  0.00  0.00     0.023 C 
ATOM     17  H15 C9A d   1      30.717  73.389  22.638  0.00  0.00     0.072 H 
ATOM     18  H16 C9A d   1      29.538  74.353  23.591  0.00  0.00     0.072 H 
BRANCH  16  19
ATOM     19  C19 C9A d   1      30.898  73.165  24.781  0.00  0.00    -0.040 A 
ATOM     20  C20 C9A d   1      31.757  73.643  25.840  0.00  0.00    -0.074 A 
ATOM     21  C21 C9A d   1      32.033  72.850  26.976  0.00  0.00    -0.061 A 
ATOM     22  H17 C9A d   1      32.199  74.630  25.761  0.00  0.00     0.084 H 
ATOM     23  C22 C9A d   1      31.458  71.560  27.082  0.00  0.00     0.058 A 
ATOM     24  H18 C9A d   1      32.680  73.226  27.761  0.00  0.00     0.085 H 
ATOM     25  C23 C9A d   1      30.609  71.057  26.060  0.00  0.00    -0.061 A 
ATOM     26  C24 C9A d   1      30.333  71.857  24.917  0.00  0.00    -0.074 A 
ATOM     27  H19 C9A d   1      30.174  70.068  26.151  0.00  0.00     0.085 H 
ATOM     28  H20 C9A d   1      29.686  71.471  24.138  0.00  0.00     0.084 H 
BRANCH  23  29
ATOM     29  S25 C9A d   1      31.808  70.586  28.503  0.00  0.00     0.171 S 
ATOM     30  O27 C9A d   1      30.713  69.659  28.697  0.00  0.00    -0.223 OA
ATOM     31  O28 C9A d   1      32.200  71.490  29.564  0.00  0.00    -0.223 OA
BRANCH  29  32
ATOM     32  C26 C9A d   1      33.223  69.633  28.021  0.00  0.00     0.020 C 
ATOM     33  H21 C9A d   1      33.526  68.980  28.853  0.00  0.00     0.049 H 
ATOM     34  H22 C9A d   1      34.051  70.310  27.765  0.00  0.00     0.049 H 
ATOM     35  H23 C9A d   1      32.969  69.017  27.146  0.00  0.00     0.049 H 
ENDBRANCH  29  32
ENDBRANCH  23  29
ENDBRANCH  16  19
ENDBRANCH  10  16
BRANCH   8  36
ATOM     36  C31 C9A d   1      31.180  78.890  24.514  0.00  0.00     0.299 C 
ATOM     37  O32 C9A d   1      31.785  79.965  24.502  0.00  0.00    -0.259 OA
BRANCH  36  38
ATOM     38  O33 C9A d   1      29.914  78.685  25.043  0.00  0.00    -0.313 OA
BRANCH  38  39
ATOM     39  C34 C9A d   1      29.340  79.747  25.846  0.00  0.00     0.053 C 
ATOM     40  H25 C9A d   1      28.244  79.716  25.760  0.00  0.00     0.082 H 
ATOM     41  H26 C9A d   1      29.709  80.718  25.483  0.00  0.00     0.082 H 
BRANCH  39  42
ATOM     42  C35 C9A d   1      29.734  79.574  27.300  0.00  0.00    -0.034 A 
ATOM     43  C36 C9A d   1      29.329  78.418  28.035  0.00  0.00    -0.073 A 
ATOM     44  C37 C9A d   1      29.701  78.265  29.401  0.00  0.00    -0.061 A 
ATOM     45  H27 C9A d   1      28.735  77.652  27.550  0.00  0.00     0.084 H 
ATOM     46  C38 C9A d   1      30.482  79.267  30.036  0.00  0.00     0.034 A 
ATOM     47  H28 C9A d   1      29.389  77.387  29.954  0.00  0.00     0.086 H 
ATOM     48 CL39 C9A d   1      30.923  79.085  31.673  0.00  0.00    -0.084 Cl
ATOM     49  C40 C9A d   1      30.894  80.419  29.321  0.00  0.00    -0.061 A 
ATOM     50  C41 C9A d   1      30.521  80.570  27.957  0.00  0.00    -0.073 A 
ATOM     51  H29 C9A d   1      31.490  81.181  29.811  0.00  0.00     0.086 H 
ATOM     52  H30 C9A d   1      30.837  81.451  27.409  0.00  0.00     0.084 H 
ENDBRANCH  39  42
ENDBRANCH  38  39
ENDBRANCH  36  38
ENDBRANCH   8  36
BRANCH   1  53
ATOM     53  N5  C9A d   1      35.197  72.587  21.128  0.00  0.00    -0.278 NA
ATOM     54  C4  C9A d   1      34.938  72.540  19.656  0.00  0.00     0.006 C 
ATOM     55  C3  C9A d   1      35.643  71.316  19.031  0.00  0.00     0.094 C 
ATOM     56  H7  C9A d   1      33.855  72.465  19.480  0.00  0.00     0.058 H 
ATOM     57  H8  C9A d   1      35.323  73.459  19.189  0.00  0.00     0.058 H 
ATOM     58  N2  C9A d   1      35.255  70.037  19.701  0.00  0.00    -0.073 N 
ATOM     59  H5  C9A d   1      35.370  71.255  17.967  0.00  0.00     0.077 H 
ATOM     60  H6  C9A d   1      36.731  71.448  19.124  0.00  0.00     0.077 H 
ATOM     61  C7  C9A d   1      35.482  70.121  21.182  0.00  0.00     0.094 C 
ATOM     62  H4  C9A d   1      34.275  69.874  19.534  0.00  0.00     0.279 HD
ATOM     63  C6  C9A d   1      34.774  71.337  21.824  0.00  0.00     0.006 C 
ATOM     64  H11 C9A d   1      36.563  70.204  21.369  0.00  0.00     0.077 H 
ATOM     65  H12 C9A d   1      35.098  69.202  21.650  0.00  0.00     0.077 H 
ATOM     66  H9  C9A d   1      33.684  71.217  21.731  0.00  0.00     0.058 H 
ATOM     67  H10 C9A d   1      35.047  71.400  22.888  0.00  0.00     0.058 H 
BRANCH  58  68
ATOM     68  C1  C9A d   1      36.020  68.914  19.150  0.00  0.00     0.066 C 
ATOM     69  H1  C9A d   1      35.852  68.854  18.064  0.00  0.00     0.068 H 
ATOM     70  H2  C9A d   1      35.690  67.978  19.624  0.00  0.00     0.068 H 
ATOM     71  H3  C9A d   1      37.091  69.068  19.348  0.00  0.00     0.068 H 
ENDBRANCH  58  68
ENDBRANCH   1  53
TORSDOF 10
