REMARK  8 active torsions:
REMARK  status: ('A' for Active; 'I' for Inactive)
REMARK    1  A    between atoms: C3_3  and  O54_29 
REMARK    2  A    between atoms: C8_6  and  C11_8 
REMARK    3  A    between atoms: C11_8  and  C14_9 
REMARK    4  A    between atoms: C16_10  and  O52_28 
REMARK    5  A    between atoms: C18_11  and  N29_17 
REMARK    6  A    between atoms: N29_17  and  C31_18 
REMARK    7  A    between atoms: C31_18  and  C34_19 
REMARK    8  A    between atoms: C37_21  and  C44_25 
ROOT
ATOM      1  C14 3P5 d   1      31.648   6.201  14.752  0.00  0.00    -0.011 C 
ATOM      2  C16 3P5 d   1      32.184   4.813  14.405  0.00  0.00     0.068 C 
ATOM      3  C18 3P5 d   1      31.229   3.986  13.556  0.00  0.00     0.139 C 
ATOM      4  C20 3P5 d   1      29.894   3.733  14.259  0.00  0.00     0.058 C 
ATOM      5  S23 3P5 d   1      29.109   5.316  14.555  0.00  0.00     0.147 S 
ATOM      6  C24 3P5 d   1      30.392   6.096  15.625  0.00  0.00     0.035 C 
ATOM      7  O27 3P5 d   1      27.931   5.140  15.312  0.00  0.00    -0.228 OA
ATOM      8  O28 3P5 d   1      29.054   6.051  13.316  0.00  0.00    -0.228 OA
ATOM      9  H6  3P5 d   1      31.380   6.720  13.820  0.00  0.00     0.045 H 
ATOM     10  H7  3P5 d   1      32.382   4.271  15.342  0.00  0.00     0.086 H 
ATOM     11  H8  3P5 d   1      31.028   4.523  12.617  0.00  0.00     0.089 H 
ATOM     12  H9  3P5 d   1      30.068   3.219  15.216  0.00  0.00     0.059 H 
ATOM     13  H10 3P5 d   1      29.249   3.111  13.621  0.00  0.00     0.059 H 
ATOM     14  H11 3P5 d   1      30.066   7.095  15.950  0.00  0.00     0.056 H 
ATOM     15  H12 3P5 d   1      30.589   5.469  16.507  0.00  0.00     0.056 H 
ENDROOT
BRANCH   3  16
ATOM     16  N29 3P5 d   1      31.918   2.697  13.251  0.00  0.00    -0.064 N 
ATOM     17  H13 3P5 d   1      31.903   2.126  14.081  0.00  0.00     0.278 HD
ATOM     18  H14 3P5 d   1      32.873   2.900  13.000  0.00  0.00     0.278 HD
BRANCH  16  19
ATOM     19  C31 3P5 d   1      31.302   1.930  12.149  0.00  0.00     0.106 C 
ATOM     20  H15 3P5 d   1      30.275   1.666  12.443  0.00  0.00     0.083 H 
ATOM     21  H16 3P5 d   1      31.888   1.011  11.998  0.00  0.00     0.083 H 
BRANCH  19  22
ATOM     22  C34 3P5 d   1      31.241   2.696  10.801  0.00  0.00    -0.032 A 
ATOM     23  C35 3P5 d   1      32.391   3.189  10.153  0.00  0.00    -0.069 A 
ATOM     24  C37 3P5 d   1      32.261   3.895   8.929  0.00  0.00    -0.053 A 
ATOM     25  H17 3P5 d   1      33.371   3.030  10.588  0.00  0.00     0.085 H 
ATOM     26  C38 3P5 d   1      31.000   4.083   8.364  0.00  0.00    -0.076 A 
ATOM     27  C40 3P5 d   1      29.865   3.575   9.003  0.00  0.00    -0.082 A 
ATOM     28  H18 3P5 d   1      30.900   4.623   7.429  0.00  0.00     0.084 H 
ATOM     29  C42 3P5 d   1      29.980   2.893  10.219  0.00  0.00    -0.075 A 
ATOM     30  H19 3P5 d   1      28.888   3.711   8.553  0.00  0.00     0.083 H 
ATOM     31  H20 3P5 d   1      29.092   2.516  10.713  0.00  0.00     0.084 H 
BRANCH  24  32
ATOM     32  C44 3P5 d   1      33.442   4.498   8.146  0.00  0.00    -0.029 A 
ATOM     33  C46 3P5 d   1      34.716   3.659   8.315  0.00  0.00    -0.057 A 
ATOM     34  C49 3P5 d   1      34.552   4.961   9.101  0.00  0.00    -0.057 A 
ATOM     35  H22 3P5 d   1      35.448   3.600   7.496  0.00  0.00     0.034 H 
ATOM     36  H23 3P5 d   1      34.672   2.692   8.838  0.00  0.00     0.034 H 
ATOM     37  H24 3P5 d   1      34.390   4.930  10.188  0.00  0.00     0.034 H 
ATOM     38  H25 3P5 d   1      35.166   5.838   8.847  0.00  0.00     0.034 H 
ATOM     39  H21 3P5 d   1      33.163   5.019   7.218  0.00  0.00     0.047 H 
ENDBRANCH  24  32
ENDBRANCH  19  22
ENDBRANCH  16  19
ENDBRANCH   3  16
BRANCH   2  40
ATOM     40  O52 3P5 d   1      33.400   4.962  13.670  0.00  0.00    -0.393 OA
ATOM     41  H26 3P5 d   1      34.016   5.476  14.179  0.00  0.00     0.210 HD
ENDBRANCH   2  40
BRANCH   1  42
ATOM     42  C11 3P5 d   1      32.766   7.014  15.473  0.00  0.00    -0.034 C 
ATOM     43  H4  3P5 d   1      33.184   6.411  16.293  0.00  0.00     0.040 H 
ATOM     44  H5  3P5 d   1      33.562   7.256  14.753  0.00  0.00     0.040 H 
BRANCH  42  45
ATOM     45  C8  3P5 d   1      32.180   8.321  16.047  0.00  0.00    -0.056 A 
ATOM     46  C6  3P5 d   1      32.016   9.423  15.198  0.00  0.00    -0.074 A 
ATOM     47  C4  3P5 d   1      31.459  10.606  15.705  0.00  0.00    -0.049 A 
ATOM     48  H2  3P5 d   1      32.317   9.362  14.158  0.00  0.00     0.084 H 
ATOM     49  C3  3P5 d   1      31.082  10.705  17.048  0.00  0.00     0.083 A 
ATOM     50  H1  3P5 d   1      31.319  11.456  15.047  0.00  0.00     0.087 H 
ATOM     51  C2  3P5 d   1      31.284   9.614  17.900  0.00  0.00     0.044 A 
ATOM     52 BR1  3P5 d   1      30.857   9.768  19.732  0.00  0.00    -0.048 Br
ATOM     53  C9  3P5 d   1      31.812   8.412  17.402  0.00  0.00    -0.057 A 
ATOM     54  H3  3P5 d   1      31.936   7.558  18.058  0.00  0.00     0.086 H 
BRANCH  49  55
ATOM     55  O54 3P5 d   1      30.513  11.879  17.532  0.00  0.00    -0.359 OA
ATOM     56  H27 3P5 d   1      31.123  12.598  17.413  0.00  0.00     0.217 HD
ENDBRANCH  49  55
ENDBRANCH  42  45
ENDBRANCH   1  42
TORSDOF 8
