REMARK  8 active torsions:
REMARK  status: ('A' for Active; 'I' for Inactive)
REMARK    1  A    between atoms: N2_2  and  C19_19 
REMARK    2  A    between atoms: C3_3  and  N8_8 
REMARK    3  A    between atoms: N8_8  and  C7_7 
REMARK    4  A    between atoms: N12_12  and  C14_14 
REMARK    5  A    between atoms: C15_15  and  C26_26 
REMARK    6  A    between atoms: N17_17  and  C25_25 
REMARK    7  A    between atoms: C19_19  and  C27_27 
REMARK    8  A    between atoms: C19_19  and  C28_28 
ROOT
ATOM      1  N1  027 d   1      18.376   5.887  -0.390  0.00  0.00    -0.150 NA
ATOM      2  N2  027 d   1      19.702   6.358  -0.459  0.00  0.00    -0.228 N 
ATOM      3  C3  027 d   1      17.645   5.614  -1.477  0.00  0.00     0.160 A 
ATOM      4  C4  027 d   1      20.347   6.585  -1.708  0.00  0.00     0.275 A 
ATOM      5  C5  027 d   1      19.661   6.331  -2.888  0.00  0.00     0.049 A 
ATOM      6  C6  027 d   1      18.264   5.823  -2.813  0.00  0.00     0.028 A 
ATOM      7  C13 027 d   1      20.207   6.520  -4.042  0.00  0.00    -0.046 A 
ATOM      8  C14 027 d   1      19.518   6.265  -5.193  0.00  0.00     0.011 A 
ATOM      9  C16 027 d   1      17.618   5.579  -3.900  0.00  0.00    -0.067 A 
ATOM     10  O18 027 d   1      21.529   7.012  -1.749  0.00  0.00    -0.266 OA
ATOM     11  C20 027 d   1      18.235   5.795  -5.122  0.00  0.00    -0.061 A 
ATOM     12  H4  027 d   1      21.226   6.886  -4.098  0.00  0.00     0.087 H 
ATOM     13  H5  027 d   1      16.600   5.208  -3.860  0.00  0.00     0.085 H 
ATOM     14  H8  027 d   1      17.692   5.588  -6.037  0.00  0.00     0.086 H 
ENDROOT
BRANCH   8  15
ATOM     15  N12 027 d   1      20.132   6.476  -6.466  0.00  0.00    -0.280 NA
ATOM     16  C21 027 d   1      21.117   7.576  -6.393  0.00  0.00     0.006 C 
ATOM     17  C24 027 d   1      21.760   7.794  -7.760  0.00  0.00     0.094 C 
ATOM     18  H9  027 d   1      21.897   7.319  -5.661  0.00  0.00     0.058 H 
ATOM     19  H10 027 d   1      20.609   8.499  -6.078  0.00  0.00     0.058 H 
ATOM     20  N17 027 d   1      20.707   8.174  -8.713  0.00  0.00    -0.073 N 
ATOM     21  H15 027 d   1      22.509   8.597  -7.694  0.00  0.00     0.077 H 
ATOM     22  H16 027 d   1      22.246   6.865  -8.094  0.00  0.00     0.077 H 
ATOM     23  C23 027 d   1      19.737   7.078  -8.850  0.00  0.00     0.094 C 
ATOM     24  H6  027 d   1      20.232   8.998  -8.378  0.00  0.00     0.279 HD
ATOM     25  C22 027 d   1      19.107   6.775  -7.491  0.00  0.00     0.006 C 
ATOM     26  H13 027 d   1      20.250   6.180  -9.223  0.00  0.00     0.077 H 
ATOM     27  H14 027 d   1      18.950   7.372  -9.560  0.00  0.00     0.077 H 
ATOM     28  H11 027 d   1      18.523   7.649  -7.166  0.00  0.00     0.058 H 
ATOM     29  H12 027 d   1      18.441   5.906  -7.593  0.00  0.00     0.058 H 
BRANCH  20  30
ATOM     30  C25 027 d   1      21.329   8.462 -10.017  0.00  0.00     0.066 C 
ATOM     31  H17 027 d   1      20.550   8.748 -10.739  0.00  0.00     0.068 H 
ATOM     32  H18 027 d   1      21.854   7.566 -10.379  0.00  0.00     0.068 H 
ATOM     33  H19 027 d   1      22.047   9.288  -9.906  0.00  0.00     0.068 H 
ENDBRANCH  20  30
ENDBRANCH   8  15
BRANCH   2  34
ATOM     34  C19 027 d   1      20.424   6.630   0.790  0.00  0.00     0.031 C 
ATOM     35  H7  027 d   1      21.471   6.858   0.543  0.00  0.00     0.074 H 
BRANCH  34  36
ATOM     36  C27 027 d   1      19.818   7.847   1.479  0.00  0.00    -0.056 C 
ATOM     37  H23 027 d   1      20.362   8.047   2.414  0.00  0.00     0.030 H 
ATOM     38  H24 027 d   1      18.759   7.651   1.705  0.00  0.00     0.030 H 
ATOM     39  H25 027 d   1      19.896   8.721   0.815  0.00  0.00     0.030 H 
ENDBRANCH  34  36
BRANCH  34  40
ATOM     40  C28 027 d   1      20.407   5.410   1.705  0.00  0.00    -0.056 C 
ATOM     41  H26 027 d   1      20.953   5.639   2.632  0.00  0.00     0.030 H 
ATOM     42  H27 027 d   1      20.889   4.563   1.195  0.00  0.00     0.030 H 
ATOM     43  H28 027 d   1      19.367   5.148   1.948  0.00  0.00     0.030 H 
ENDBRANCH  34  40
ENDBRANCH   2  34
BRANCH   3  44
ATOM     44  N8  027 d   1      16.370   5.148  -1.399  0.00  0.00    -0.324 N 
ATOM     45  H1  027 d   1      15.966   4.785  -2.274  0.00  0.00     0.169 HD
BRANCH  44  46
ATOM     46  C7  027 d   1      15.563   5.103  -0.303  0.00  0.00     0.125 A 
ATOM     47  C9  027 d   1      15.901   5.296   0.965  0.00  0.00    -0.014 A 
ATOM     48  C15 027 d   1      14.793   5.151   1.697  0.00  0.00     0.054 A 
ATOM     49  H2  027 d   1      16.897   5.529   1.340  0.00  0.00     0.092 H 
ATOM     50  N10 027 d   1      13.753   4.859   0.897  0.00  0.00    -0.178 NA
ATOM     51  N11 027 d   1      14.254   4.821  -0.420  0.00  0.00    -0.262 N 
ATOM     52  H3  027 d   1      13.731   4.621  -1.284  0.00  0.00     0.191 HD
BRANCH  48  53
ATOM     53  C26 027 d   1      14.914   5.324   3.188  0.00  0.00    -0.034 C 
ATOM     54  H20 027 d   1      13.929   5.177   3.655  0.00  0.00     0.035 H 
ATOM     55  H21 027 d   1      15.278   6.338   3.411  0.00  0.00     0.035 H 
ATOM     56  H22 027 d   1      15.623   4.584   3.587  0.00  0.00     0.035 H 
ENDBRANCH  48  53
ENDBRANCH  44  46
ENDBRANCH   3  44
TORSDOF 8
