REMARK  12 active torsions:
REMARK  status: ('A' for Active; 'I' for Inactive)
REMARK    1  A    between atoms: C4_4  and  N10_10 
REMARK    2  A    between atoms: N21_21  and  C7_7 
REMARK    3  A    between atoms: C9_9  and  C30_30 
REMARK    4  A    between atoms: C9_9  and  C31_31 
REMARK    5  A    between atoms: N10_10  and  C14_14 
REMARK    6  A    between atoms: C12_12  and  O27_27 
REMARK    7  A    between atoms: C15_15  and  O29_29 
REMARK    8  A    between atoms: C16_16  and  O28_28 
REMARK    9  A    between atoms: C18_18  and  N21_21 
REMARK   10  A    between atoms: O27_27  and  C32_32 
REMARK   11  A    between atoms: O28_28  and  C33_33 
REMARK   12  A    between atoms: O29_29  and  C34_34 
ROOT
ATOM      1  N2  585 d   1     -18.298   5.838 -18.129  0.00  0.00    -0.042 NA
ATOM      2  C4  585 d   1     -18.707   5.688 -16.880  0.00  0.00     0.188 A 
ATOM      3  C7  585 d   1     -19.134   5.663 -19.148  0.00  0.00     0.728 A 
ATOM      4  C11 585 d   1     -20.035   5.313 -16.640  0.00  0.00     0.180 A 
ATOM      5  N17 585 d   1     -20.394   5.317 -18.964  0.00  0.00    -0.072 NA
ATOM      6  C22 585 d   1     -20.869   5.128 -17.734  0.00  0.00     0.062 A 
ATOM      7  F25 585 d   1     -20.459   5.144 -15.353  0.00  0.00    -0.200 F 
ATOM      8  H   585 d   1     -21.907   4.830 -17.587  0.00  0.00     0.120 H 
ENDROOT
BRANCH   3   9
ATOM      9  N21 585 d   1     -18.703   5.851 -20.455  0.00  0.00    -0.188 N 
ATOM     10  H   585 d   1     -19.347   5.572 -21.195  0.00  0.00     0.184 HD
BRANCH   9  11
ATOM     11  C18 585 d   1     -17.470   6.386 -20.858  0.00  0.00     0.054 A 
ATOM     12  C19 585 d   1     -16.975   5.999 -22.097  0.00  0.00    -0.022 A 
ATOM     13  C15 585 d   1     -15.762   6.502 -22.581  0.00  0.00     0.106 A 
ATOM     14  H   585 d   1     -17.541   5.291 -22.703  0.00  0.00     0.091 H 
ATOM     15  C12 585 d   1     -15.039   7.407 -21.775  0.00  0.00     0.135 A 
ATOM     16  C16 585 d   1     -15.540   7.794 -20.535  0.00  0.00     0.106 A 
ATOM     17  C20 585 d   1     -16.757   7.291 -20.082  0.00  0.00    -0.022 A 
ATOM     18  H   585 d   1     -17.151   7.608 -19.116  0.00  0.00     0.091 H 
BRANCH  13  19
ATOM     19  O29 585 d   1     -15.272   6.118 -23.812  0.00  0.00    -0.353 OA
BRANCH  19  20
ATOM     20  C34 585 d   1     -16.262   5.445 -24.615  0.00  0.00     0.010 C 
ATOM     21  H   585 d   1     -16.603   4.550 -24.095  0.00  0.00     0.066 H 
ATOM     22  H   585 d   1     -17.107   6.113 -24.783  0.00  0.00     0.066 H 
ATOM     23  H   585 d   1     -15.822   5.165 -25.572  0.00  0.00     0.066 H 
ENDBRANCH  19  20
ENDBRANCH  13  19
BRANCH  15  24
ATOM     24  O27 585 d   1     -13.849   7.940 -22.179  0.00  0.00    -0.351 OA
BRANCH  24  25
ATOM     25  C32 585 d   1     -12.768   7.193 -21.602  0.00  0.00     0.011 C 
ATOM     26  H   585 d   1     -12.836   7.238 -20.515  0.00  0.00     0.067 H 
ATOM     27  H   585 d   1     -12.831   6.155 -21.928  0.00  0.00     0.067 H 
ATOM     28  H   585 d   1     -11.819   7.620 -21.926  0.00  0.00     0.067 H 
ENDBRANCH  24  25
ENDBRANCH  15  24
BRANCH  16  29
ATOM     29  O28 585 d   1     -14.793   8.667 -19.802  0.00  0.00    -0.353 OA
BRANCH  29  30
ATOM     30  C33 585 d   1     -15.571   9.263 -18.752  0.00  0.00     0.010 C 
ATOM     31  H   585 d   1     -16.412   9.804 -19.187  0.00  0.00     0.066 H 
ATOM     32  H   585 d   1     -15.943   8.482 -18.089  0.00  0.00     0.066 H 
ATOM     33  H   585 d   1     -14.946   9.954 -18.186  0.00  0.00     0.066 H 
ENDBRANCH  29  30
ENDBRANCH  16  29
ENDBRANCH   9  11
ENDBRANCH   3   9
BRANCH   2  34
ATOM     34  N10 585 d   1     -17.879   5.862 -15.785  0.00  0.00    -0.323 N 
ATOM     35  H   585 d   1     -18.303   5.733 -14.866  0.00  0.00     0.169 HD
BRANCH  34  36
ATOM     36  C14 585 d   1     -16.537   6.193 -15.807  0.00  0.00     0.131 A 
ATOM     37  N6  585 d   1     -16.025   6.730 -14.695  0.00  0.00    -0.211 NA
ATOM     38  C3  585 d   1     -14.743   7.063 -14.610  0.00  0.00     0.166 A 
ATOM     39  N1  585 d   1     -14.219   7.638 -13.435  0.00  0.00    -0.307 N 
ATOM     40  C13 585 d   1     -13.891   6.841 -15.706  0.00  0.00     0.116 A 
ATOM     41  C5  585 d   1     -12.983   8.234 -13.495  0.00  0.00     0.258 C 
ATOM     42  H   585 d   1     -14.745   7.612 -12.561  0.00  0.00     0.170 HD
ATOM     43  C9  585 d   1     -12.242   8.272 -14.823  0.00  0.00     0.141 C 
ATOM     44  O23 585 d   1     -12.506   8.762 -12.499  0.00  0.00    -0.270 OA
ATOM     45  O8  585 d   1     -12.570   7.158 -15.667  0.00  0.00    -0.327 OA
ATOM     46  C24 585 d   1     -14.407   6.261 -16.865  0.00  0.00    -0.043 A 
ATOM     47  C26 585 d   1     -15.749   5.932 -16.920  0.00  0.00    -0.036 A 
ATOM     48  H   585 d   1     -13.758   6.069 -17.720  0.00  0.00     0.088 H 
ATOM     49  H   585 d   1     -16.177   5.479 -17.814  0.00  0.00     0.089 H 
BRANCH  43  50
ATOM     50  C30 585 d   1     -12.612   9.591 -15.502  0.00  0.00    -0.039 C 
ATOM     51  H   585 d   1     -12.062   9.683 -16.438  0.00  0.00     0.032 H 
ATOM     52  H   585 d   1     -13.683   9.605 -15.706  0.00  0.00     0.032 H 
ATOM     53  H   585 d   1     -12.355  10.421 -14.845  0.00  0.00     0.032 H 
ENDBRANCH  43  50
BRANCH  43  54
ATOM     54  C31 585 d   1     -10.715   8.248 -14.675  0.00  0.00    -0.039 C 
ATOM     55  H   585 d   1     -10.410   7.305 -14.222  0.00  0.00     0.032 H 
ATOM     56  H   585 d   1     -10.254   8.347 -15.658  0.00  0.00     0.032 H 
ATOM     57  H   585 d   1     -10.400   9.076 -14.040  0.00  0.00     0.032 H 
ENDBRANCH  43  54
ENDBRANCH  34  36
ENDBRANCH   2  34
TORSDOF 12
