REMARK  7 active torsions:
REMARK  status: ('A' for Active; 'I' for Inactive)
REMARK    1  A    between atoms: N1_1  and  C2_2 
REMARK    2  A    between atoms: C5_5  and  C11_11 
REMARK    3  A    between atoms: C7_7  and  C13_13 
REMARK    4  A    between atoms: C13_13  and  C15_15 
REMARK    5  A    between atoms: C19_19  and  C21_21 
REMARK    6  A    between atoms: N27_27  and  S28_28 
REMARK    7  A    between atoms: S28_28  and  C31_31 
ROOT
ATOM      1  C15 03C d   1     -18.581   5.631 -19.552  0.00  0.00     0.015 A 
ATOM      2  C17 03C d   1     -17.536   6.523 -19.271  0.00  0.00    -0.063 A 
ATOM      3  C18 03C d   1     -18.642   5.016 -20.803  0.00  0.00    -0.069 A 
ATOM      4  C19 03C d   1     -16.564   6.788 -20.250  0.00  0.00    -0.053 A 
ATOM      5  C20 03C d   1     -17.683   5.274 -21.771  0.00  0.00    -0.082 A 
ATOM      6  C22 03C d   1     -16.650   6.158 -21.489  0.00  0.00    -0.076 A 
ATOM      7  H   03C d   1     -17.478   7.009 -18.297  0.00  0.00     0.085 H 
ATOM      8  H   03C d   1     -19.454   4.323 -21.022  0.00  0.00     0.085 H 
ATOM      9  H   03C d   1     -17.740   4.787 -22.745  0.00  0.00     0.083 H 
ATOM     10  H   03C d   1     -15.895   6.362 -22.249  0.00  0.00     0.084 H 
ENDROOT
BRANCH   1  11
ATOM     11  C13 03C d   1     -19.668   5.298 -18.565  0.00  0.00     0.197 C 
ATOM     12  O16 03C d   1     -20.776   5.023 -18.991  0.00  0.00    -0.286 OA
BRANCH  11  13
ATOM     13  C7  03C d   1     -19.422   5.290 -17.094  0.00  0.00     0.079 A 
ATOM     14  C3  03C d   1     -20.386   5.229 -16.084  0.00  0.00     0.139 A 
ATOM     15  N1  03C d   1     -19.727   5.244 -14.863  0.00  0.00    -0.217 N 
ATOM     16  N8  03C d   1     -21.730   5.159 -16.251  0.00  0.00    -0.383 N 
ATOM     17  N4  03C d   1     -18.361   5.314 -15.118  0.00  0.00    -0.177 NA
ATOM     18  C9  03C d   1     -18.173   5.339 -16.490  0.00  0.00     0.040 A 
ATOM     19  H   03C d   1     -17.213   5.388 -17.005  0.00  0.00     0.119 H 
ATOM     20  H   03C d   1     -22.127   5.147 -17.190  0.00  0.00     0.157 HD
ATOM     21  H   03C d   1     -22.344   5.119 -15.437  0.00  0.00     0.157 HD
BRANCH  15  22
ATOM     22  C2  03C d   1     -20.255   5.198 -13.632  0.00  0.00     0.066 A 
ATOM     23  C5  03C d   1     -20.133   4.037 -12.862  0.00  0.00    -0.033 A 
ATOM     24  C10 03C d   1     -20.661   3.998 -11.573  0.00  0.00    -0.075 A 
ATOM     25  C14 03C d   1     -21.310   5.128 -11.054  0.00  0.00    -0.082 A 
ATOM     26  H   03C d   1     -20.570   3.094 -10.971  0.00  0.00     0.084 H 
ATOM     27  C12 03C d   1     -21.432   6.293 -11.816  0.00  0.00    -0.081 A 
ATOM     28  H   03C d   1     -21.723   5.097 -10.046  0.00  0.00     0.083 H 
ATOM     29  C6  03C d   1     -20.898   6.328 -13.108  0.00  0.00    -0.054 A 
ATOM     30  H   03C d   1     -21.939   7.167 -11.407  0.00  0.00     0.083 H 
ATOM     31  H   03C d   1     -20.982   7.234 -13.708  0.00  0.00     0.087 H 
BRANCH  23  32
ATOM     32  C11 03C d   1     -19.443   2.812 -13.413  0.00  0.00    -0.049 C 
ATOM     33  H   03C d   1     -19.967   2.473 -14.307  0.00  0.00     0.033 H 
ATOM     34  H   03C d   1     -18.412   3.060 -13.667  0.00  0.00     0.033 H 
ATOM     35  H   03C d   1     -19.453   2.022 -12.662  0.00  0.00     0.033 H 
ENDBRANCH  23  32
ENDBRANCH  15  22
ENDBRANCH  11  13
ENDBRANCH   1  11
BRANCH   4  36
ATOM     36  C21 03C d   1     -15.416   7.713 -20.028  0.00  0.00    -0.026 C 
ATOM     37  C23 03C d   1     -15.766   8.838 -19.043  0.00  0.00    -0.046 C 
ATOM     38  C25 03C d   1     -14.541   9.545 -18.460  0.00  0.00    -0.006 C 
ATOM     39  H   03C d   1     -16.309   8.388 -18.212  0.00  0.00     0.035 H 
ATOM     40  H   03C d   1     -16.344   9.583 -19.590  0.00  0.00     0.035 H 
ATOM     41  N27 03C d   1     -13.643   8.525 -17.874  0.00  0.00    -0.211 NA
ATOM     42  H   03C d   1     -14.851  10.253 -17.691  0.00  0.00     0.057 H 
ATOM     43  H   03C d   1     -14.019  10.092 -19.245  0.00  0.00     0.057 H 
ATOM     44  C26 03C d   1     -13.084   7.714 -18.973  0.00  0.00    -0.006 C 
ATOM     45  C24 03C d   1     -14.215   6.872 -19.564  0.00  0.00    -0.046 C 
ATOM     46  H   03C d   1     -12.658   8.362 -19.739  0.00  0.00     0.057 H 
ATOM     47  H   03C d   1     -12.291   7.067 -18.597  0.00  0.00     0.057 H 
ATOM     48  H   03C d   1     -13.819   6.352 -20.436  0.00  0.00     0.035 H 
ATOM     49  H   03C d   1     -14.566   6.196 -18.784  0.00  0.00     0.035 H 
ATOM     50  H   03C d   1     -15.162   8.222 -20.958  0.00  0.00     0.047 H 
BRANCH  41  51
ATOM     51  S28 03C d   1     -12.459   9.147 -16.953  0.00  0.00     0.207 S 
ATOM     52  O29 03C d   1     -11.386   8.180 -16.870  0.00  0.00    -0.212 OA
ATOM     53  O30 03C d   1     -11.962  10.385 -17.504  0.00  0.00    -0.212 OA
BRANCH  51  54
ATOM     54  C31 03C d   1     -13.030   9.441 -15.417  0.00  0.00     0.028 C 
ATOM     55  H   03C d   1     -13.400   8.512 -14.984  0.00  0.00     0.050 H 
ATOM     56  H   03C d   1     -12.222   9.834 -14.800  0.00  0.00     0.050 H 
ATOM     57  H   03C d   1     -13.840  10.169 -15.465  0.00  0.00     0.050 H 
ENDBRANCH  51  54
ENDBRANCH  41  51
ENDBRANCH   4  36
TORSDOF 7
