REMARK  12 active torsions:
REMARK  status: ('A' for Active; 'I' for Inactive)
REMARK    1  A    between atoms: C2_2  and  N2_3 
REMARK    2  A    between atoms: N2_3  and  C21_14 
REMARK    3  A    between atoms: N5_7  and  C5_6 
REMARK    4  A    between atoms: N7_10  and  C71_28 
REMARK    5  A    between atoms: C24_17  and  O24_18 
REMARK    6  A    between atoms: O24_18  and  C27_21 
REMARK    7  A    between atoms: C27_21  and  C28_22 
REMARK    8  A    between atoms: C28_22  and  N28_23 
REMARK    9  A    between atoms: N28_23  and  C29_24 
REMARK   10  A    between atoms: N28_23  and  C31_26 
REMARK   11  A    between atoms: C29_24  and  C30_25 
REMARK   12  A    between atoms: C31_26  and  C32_27 
ROOT
ATOM      1  C21 LHL d   1     -18.209   5.872 -20.936  0.00  0.00     0.049 A 
ATOM      2  C22 LHL d   1     -17.298   6.640 -20.208  0.00  0.00    -0.054 A 
ATOM      3  C23 LHL d   1     -16.045   6.944 -20.743  0.00  0.00    -0.049 A 
ATOM      4  C24 LHL d   1     -15.701   6.492 -22.014  0.00  0.00     0.069 A 
ATOM      5  C25 LHL d   1     -16.612   5.731 -22.751  0.00  0.00    -0.049 A 
ATOM      6  C26 LHL d   1     -17.862   5.425 -22.213  0.00  0.00    -0.054 A 
ATOM      7  H   LHL d   1     -17.567   7.004 -19.216  0.00  0.00     0.087 H 
ATOM      8  H   LHL d   1     -15.335   7.536 -20.165  0.00  0.00     0.087 H 
ATOM      9  H   LHL d   1     -16.346   5.376 -23.747  0.00  0.00     0.087 H 
ATOM     10  H   LHL d   1     -18.572   4.834 -22.792  0.00  0.00     0.087 H 
ENDROOT
BRANCH   1  11
ATOM     11  N2  LHL d   1     -19.446   5.569 -20.463  0.00  0.00    -0.188 N 
ATOM     12  H   LHL d   1     -20.188   5.488 -21.158  0.00  0.00     0.184 HD
BRANCH  11  13
ATOM     13  C2  LHL d   1     -19.807   5.362 -19.174  0.00  0.00     0.728 A 
ATOM     14  N1  LHL d   1     -21.062   4.911 -18.926  0.00  0.00    -0.074 NA
ATOM     15  C10 LHL d   1     -21.482   4.697 -17.672  0.00  0.00     0.032 A 
ATOM     16  C9  LHL d   1     -20.618   4.936 -16.611  0.00  0.00     0.025 A 
ATOM     17  H   LHL d   1     -22.494   4.338 -17.486  0.00  0.00     0.116 H 
ATOM     18  C4  LHL d   1     -19.331   5.398 -16.873  0.00  0.00     0.162 A 
ATOM     19  C8  LHL d   1     -21.034   4.714 -15.301  0.00  0.00     0.033 A 
ATOM     20  N3  LHL d   1     -18.955   5.606 -18.153  0.00  0.00    -0.044 NA
ATOM     21  N5  LHL d   1     -18.434   5.657 -15.814  0.00  0.00    -0.287 N 
ATOM     22  C6  LHL d   1     -18.847   5.420 -14.481  0.00  0.00     0.331 A 
ATOM     23  O6  LHL d   1     -18.062   5.636 -13.528  0.00  0.00    -0.246 OA
ATOM     24  N7  LHL d   1     -20.155   4.957 -14.229  0.00  0.00    -0.292 N 
ATOM     25  H   LHL d   1     -21.847   5.424 -15.151  0.00  0.00     0.072 H 
ATOM     26  H   LHL d   1     -21.227   3.642 -15.256  0.00  0.00     0.072 H 
BRANCH  21  27
ATOM     27  C5  LHL d   1     -17.080   6.151 -16.098  0.00  0.00    -0.008 C 
ATOM     28  H   LHL d   1     -16.935   7.113 -15.607  0.00  0.00     0.057 H 
ATOM     29  H   LHL d   1     -16.348   5.436 -15.723  0.00  0.00     0.057 H 
ATOM     30  H   LHL d   1     -16.956   6.269 -17.174  0.00  0.00     0.057 H 
ENDBRANCH  21  27
BRANCH  24  31
ATOM     31  C71 LHL d   1     -20.554   4.695 -12.908  0.00  0.00     0.082 A 
ATOM     32  C72 LHL d   1     -20.506   3.371 -12.495  0.00  0.00     0.062 A 
ATOM     33 CL72 LHL d   1     -19.975   2.115 -13.665  0.00  0.00    -0.082 Cl
ATOM     34  C73 LHL d   1     -20.867   3.028 -11.193  0.00  0.00    -0.060 A 
ATOM     35  C74 LHL d   1     -21.278   4.023 -10.303  0.00  0.00    -0.080 A 
ATOM     36  H   LHL d   1     -20.829   1.987 -10.871  0.00  0.00     0.086 H 
ATOM     37  C75 LHL d   1     -21.319   5.354 -10.719  0.00  0.00    -0.060 A 
ATOM     38  H   LHL d   1     -21.566   3.760  -9.285  0.00  0.00     0.083 H 
ATOM     39  C76 LHL d   1     -20.950   5.677 -12.021  0.00  0.00     0.062 A 
ATOM     40  H   LHL d   1     -21.638   6.135 -10.029  0.00  0.00     0.086 H 
ATOM     41 CL76 LHL d   1     -20.994   7.361 -12.588  0.00  0.00    -0.082 Cl
ENDBRANCH  24  31
ENDBRANCH  11  13
ENDBRANCH   1  11
BRANCH   4  42
ATOM     42  O24 LHL d   1     -14.461   6.812 -22.517  0.00  0.00    -0.349 OA
BRANCH  42  43
ATOM     43  C27 LHL d   1     -14.092   6.517 -23.866  0.00  0.00     0.051 C 
ATOM     44  H   LHL d   1     -14.866   6.892 -24.535  0.00  0.00     0.077 H 
ATOM     45  H   LHL d   1     -13.983   5.438 -23.976  0.00  0.00     0.077 H 
BRANCH  43  46
ATOM     46  C28 LHL d   1     -12.762   7.190 -24.217  0.00  0.00     0.133 C 
ATOM     47  H   LHL d   1     -12.908   8.260 -24.069  0.00  0.00     0.083 H 
ATOM     48  H   LHL d   1     -12.519   6.885 -25.235  0.00  0.00     0.083 H 
BRANCH  46  49
ATOM     49  N28 LHL d   1     -11.606   6.801 -23.373  0.00  0.00     0.089 N 
BRANCH  49  50
ATOM     50  C29 LHL d   1     -11.392   7.796 -22.303  0.00  0.00     0.110 C 
ATOM     51  H   LHL d   1     -11.192   7.271 -21.369  0.00  0.00     0.079 H 
ATOM     52  H   LHL d   1     -12.285   8.415 -22.214  0.00  0.00     0.079 H 
BRANCH  50  53
ATOM     53  C30 LHL d   1     -10.209   8.687 -22.628  0.00  0.00    -0.051 C 
ATOM     54  H   LHL d   1      -9.312   8.076 -22.726  0.00  0.00     0.029 H 
ATOM     55  H   LHL d   1     -10.397   9.211 -23.565  0.00  0.00     0.029 H 
ATOM     56  H   LHL d   1     -10.071   9.412 -21.826  0.00  0.00     0.029 H 
ENDBRANCH  50  53
ENDBRANCH  49  50
BRANCH  49  57
ATOM     57  C31 LHL d   1     -11.734   5.455 -22.783  0.00  0.00     0.110 C 
ATOM     58  H   LHL d   1     -12.701   5.037 -23.064  0.00  0.00     0.079 H 
ATOM     59  H   LHL d   1     -11.650   5.536 -21.699  0.00  0.00     0.079 H 
BRANCH  57  60
ATOM     60  C32 LHL d   1     -10.640   4.542 -23.292  0.00  0.00    -0.051 C 
ATOM     61  H   LHL d   1     -10.712   4.460 -24.377  0.00  0.00     0.029 H 
ATOM     62  H   LHL d   1      -9.668   4.955 -23.021  0.00  0.00     0.029 H 
ATOM     63  H   LHL d   1     -10.754   3.555 -22.844  0.00  0.00     0.029 H 
ENDBRANCH  57  60
ENDBRANCH  49  57
ENDBRANCH  46  49
ENDBRANCH  43  46
ENDBRANCH  42  43
ENDBRANCH   4  42
TORSDOF 12
