REMARK  13 active torsions:
REMARK  status: ('A' for Active; 'I' for Inactive)
REMARK    1  A    between atoms: C2_2  and  N13_13 
REMARK    2  A    between atoms: N7_7  and  C29_29 
REMARK    3  A    between atoms: C9_9  and  O11_11 
REMARK    4  A    between atoms: O11_11  and  C12_12 
REMARK    5  A    between atoms: N13_13  and  C14_14 
REMARK    6  A    between atoms: C17_17  and  O20_20 
REMARK    7  A    between atoms: O20_20  and  C21_21 
REMARK    8  A    between atoms: C21_21  and  C22_22 
REMARK    9  A    between atoms: C22_22  and  N23_23 
REMARK   10  A    between atoms: N23_23  and  C24_24 
REMARK   11  A    between atoms: N23_23  and  C26_26 
REMARK   12  A    between atoms: C24_24  and  C25_25 
REMARK   13  A    between atoms: C26_26  and  C27_27 
ROOT
ATOM      1  C14 04K d   1     -17.948   5.999 -21.196  0.00  0.00     0.049 A 
ATOM      2  C15 04K d   1     -17.721   5.607 -22.516  0.00  0.00    -0.054 A 
ATOM      3  C16 04K d   1     -16.516   5.888 -23.140  0.00  0.00    -0.049 A 
ATOM      4  C17 04K d   1     -15.514   6.566 -22.454  0.00  0.00     0.069 A 
ATOM      5  C18 04K d   1     -15.739   6.976 -21.136  0.00  0.00    -0.049 A 
ATOM      6  C19 04K d   1     -16.947   6.694 -20.510  0.00  0.00    -0.054 A 
ATOM      7  H4  04K d   1     -18.495   5.077 -23.059  0.00  0.00     0.087 H 
ATOM      8  H5  04K d   1     -16.354   5.578 -24.166  0.00  0.00     0.087 H 
ATOM      9  H6  04K d   1     -14.967   7.516 -20.600  0.00  0.00     0.087 H 
ATOM     10  H7  04K d   1     -17.114   7.013 -19.488  0.00  0.00     0.087 H 
ENDROOT
BRANCH   1  11
ATOM     11  N13 04K d   1     -19.204   5.701 -20.631  0.00  0.00    -0.188 N 
ATOM     12  H3  04K d   1     -19.990   5.626 -21.292  0.00  0.00     0.184 HD
BRANCH  11  13
ATOM     13  C2  04K d   1     -19.512   5.497 -19.296  0.00  0.00     0.728 A 
ATOM     14  N1  04K d   1     -20.720   5.001 -19.036  0.00  0.00    -0.074 NA
ATOM     15  C4  04K d   1     -21.123   4.774 -17.796  0.00  0.00     0.035 A 
ATOM     16  C5  04K d   1     -20.244   5.059 -16.742  0.00  0.00     0.032 A 
ATOM     17  H1  04K d   1     -22.112   4.376 -17.600  0.00  0.00     0.117 H 
ATOM     18  C6  04K d   1     -18.963   5.591 -17.043  0.00  0.00     0.163 A 
ATOM     19  C10 04K d   1     -20.608   4.808 -15.347  0.00  0.00    -0.030 A 
ATOM     20  N3  04K d   1     -18.647   5.788 -18.326  0.00  0.00    -0.044 NA
ATOM     21  N7  04K d   1     -18.091   5.873 -16.010  0.00  0.00    -0.300 N 
ATOM     22  C8  04K d   1     -18.433   5.630 -14.717  0.00  0.00     0.282 A 
ATOM     23  C9  04K d   1     -19.705   5.093 -14.362  0.00  0.00     0.145 A 
ATOM     24  O28 04K d   1     -17.635   5.875 -13.823  0.00  0.00    -0.265 OA
ATOM     25  H2  04K d   1     -21.586   4.399 -15.097  0.00  0.00     0.089 H 
BRANCH  21  26
ATOM     26  C29 04K d   1     -16.765   6.424 -16.330  0.00  0.00    -0.009 C 
ATOM     27  H23 04K d   1     -16.674   6.551 -17.419  0.00  0.00     0.057 H 
ATOM     28  H24 04K d   1     -15.986   5.734 -15.975  0.00  0.00     0.057 H 
ATOM     29  H25 04K d   1     -16.644   7.399 -15.836  0.00  0.00     0.057 H 
ENDBRANCH  21  26
BRANCH  23  30
ATOM     30  O11 04K d   1     -20.009   4.832 -13.049  0.00  0.00    -0.305 OA
BRANCH  30  31
ATOM     31  C12 04K d   1     -20.755   5.736 -12.344  0.00  0.00     0.076 A 
ATOM     32  C30 04K d   1     -20.502   5.829 -10.977  0.00  0.00    -0.047 A 
ATOM     33  C31 04K d   1     -21.220   6.703 -10.178  0.00  0.00    -0.043 A 
ATOM     34  H26 04K d   1     -19.732   5.208 -10.533  0.00  0.00     0.087 H 
ATOM     35  C32 04K d   1     -22.214   7.491 -10.741  0.00  0.00     0.116 A 
ATOM     36  H27 04K d   1     -21.006   6.771  -9.117  0.00  0.00     0.088 H 
ATOM     37  C33 04K d   1     -22.485   7.395 -12.102  0.00  0.00    -0.043 A 
ATOM     38  F35 04K d   1     -22.917   8.348  -9.962  0.00  0.00    -0.206 F 
ATOM     39  C34 04K d   1     -21.764   6.519 -12.903  0.00  0.00    -0.047 A 
ATOM     40  H28 04K d   1     -23.264   8.008 -12.540  0.00  0.00     0.088 H 
ATOM     41  H29 04K d   1     -21.985   6.444 -13.961  0.00  0.00     0.087 H 
ENDBRANCH  30  31
ENDBRANCH  23  30
ENDBRANCH  11  13
ENDBRANCH   1  11
BRANCH   4  42
ATOM     42  O20 04K d   1     -14.338   6.835 -23.101  0.00  0.00    -0.349 OA
BRANCH  42  43
ATOM     43  C21 04K d   1     -13.240   6.287 -22.368  0.00  0.00     0.049 C 
ATOM     44  H8  04K d   1     -13.418   5.215 -22.196  0.00  0.00     0.077 H 
ATOM     45  H9  04K d   1     -13.156   6.804 -21.401  0.00  0.00     0.077 H 
BRANCH  43  46
ATOM     46  C22 04K d   1     -11.932   6.462 -23.149  0.00  0.00     0.103 C 
ATOM     47  H10 04K d   1     -11.086   6.232 -22.485  0.00  0.00     0.079 H 
ATOM     48  H11 04K d   1     -11.857   7.505 -23.492  0.00  0.00     0.079 H 
BRANCH  46  49
ATOM     49  N23 04K d   1     -11.879   5.568 -24.319  0.00  0.00    -0.070 N 
ATOM     50  H12 04K d   1     -12.736   5.587 -24.849  0.00  0.00     0.279 HD
BRANCH  49  51
ATOM     51  C24 04K d   1     -10.719   6.012 -25.113  0.00  0.00     0.080 C 
ATOM     52  H13 04K d   1      -9.887   5.308 -24.963  0.00  0.00     0.075 H 
ATOM     53  H14 04K d   1     -10.415   7.016 -24.780  0.00  0.00     0.075 H 
BRANCH  51  54
ATOM     54  C25 04K d   1     -11.075   6.061 -26.602  0.00  0.00    -0.053 C 
ATOM     55  H15 04K d   1     -10.199   6.394 -27.178  0.00  0.00     0.029 H 
ATOM     56  H16 04K d   1     -11.905   6.766 -26.758  0.00  0.00     0.029 H 
ATOM     57  H17 04K d   1     -11.377   5.059 -26.940  0.00  0.00     0.029 H 
ENDBRANCH  51  54
ENDBRANCH  49  51
BRANCH  49  58
ATOM     58  C26 04K d   1     -11.559   4.211 -23.839  0.00  0.00     0.080 C 
ATOM     59  H18 04K d   1     -11.668   4.176 -22.745  0.00  0.00     0.075 H 
ATOM     60  H19 04K d   1     -10.523   3.963 -24.112  0.00  0.00     0.075 H 
BRANCH  58  61
ATOM     61  C27 04K d   1     -12.509   3.191 -24.476  0.00  0.00    -0.053 C 
ATOM     62  H20 04K d   1     -12.262   2.183 -24.112  0.00  0.00     0.029 H 
ATOM     63  H21 04K d   1     -12.400   3.222 -25.570  0.00  0.00     0.029 H 
ATOM     64  H22 04K d   1     -13.546   3.436 -24.203  0.00  0.00     0.029 H 
ENDBRANCH  58  61
ENDBRANCH  49  58
ENDBRANCH  46  49
ENDBRANCH  43  46
ENDBRANCH  42  43
ENDBRANCH   4  42
TORSDOF 13
