REMARK  7 active torsions:
REMARK  status: ('A' for Active; 'I' for Inactive)
REMARK    1  A    between atoms: C1_1  and  C17_17 
REMARK    2  A    between atoms: C7_7  and  C5_5 
REMARK       I    between atoms: C5_5  and  N9_9 
REMARK    3  A    between atoms: N9_9  and  C14_14 
REMARK    4  A    between atoms: C11_11  and  C12_12 
REMARK       I    between atoms: N13_13  and  C11_11 
REMARK    5  A    between atoms: C20_20  and  N13_13 
REMARK    6  A    between atoms: C15_15  and  C25_25 
REMARK    7  A    between atoms: C19_19  and  C26_26 
ROOT
ATOM      1  C7  04L d   1     -20.656   5.152 -12.870  0.00  0.00     0.040 A 
ATOM      2  C16 04L d   1     -21.201   6.243 -12.194  0.00  0.00    -0.041 A 
ATOM      3  C19 04L d   1     -20.605   3.900 -12.259  0.00  0.00    -0.046 A 
ATOM      4  C20 04L d   1     -21.722   6.104 -10.907  0.00  0.00     0.035 A 
ATOM      5  C23 04L d   1     -21.116   3.752 -10.968  0.00  0.00    -0.074 A 
ATOM      6  C24 04L d   1     -21.673   4.847 -10.298  0.00  0.00    -0.057 A 
ATOM      7  H7  04L d   1     -21.220   7.214 -12.676  0.00  0.00     0.088 H 
ATOM      8  H9  04L d   1     -21.081   2.784 -10.482  0.00  0.00     0.084 H 
ATOM      9  H10 04L d   1     -22.070   4.719  -9.297  0.00  0.00     0.086 H 
ENDROOT
BRANCH   1  10
ATOM     10  C5  04L d   1     -20.111   5.369 -14.250  0.00  0.00     0.256 C 
ATOM     11  N9  04L d   1     -20.832   4.991 -15.313  0.00  0.00    -0.322 N 
ATOM     12  H2  04L d   1     -21.719   4.569 -15.124  0.00  0.00     0.169 HD
ATOM     13  O18 04L d   1     -19.018   5.900 -14.353  0.00  0.00    -0.267 OA
BRANCH  11  14
ATOM     14  C14 04L d   1     -20.488   5.119 -16.622  0.00  0.00     0.054 A 
ATOM     15  C10 04L d   1     -19.195   5.456 -17.035  0.00  0.00    -0.026 A 
ATOM     16  C6  04L d   1     -18.926   5.572 -18.396  0.00  0.00     0.084 A 
ATOM     17  H3  04L d   1     -18.412   5.625 -16.305  0.00  0.00     0.090 H 
ATOM     18  N3  04L d   1     -17.810   5.876 -19.088  0.00  0.00    -0.337 N 
ATOM     19  C4  04L d   1     -19.941   5.339 -19.317  0.00  0.00     0.178 A 
ATOM     20  C1  04L d   1     -18.104   5.843 -20.407  0.00  0.00     0.141 A 
ATOM     21  H1  04L d   1     -16.890   6.096 -18.681  0.00  0.00     0.167 HD
ATOM     22  N2  04L d   1     -19.411   5.519 -20.539  0.00  0.00    -0.208 NA
ATOM     23  N8  04L d   1     -21.193   5.008 -18.902  0.00  0.00    -0.237 NA
ATOM     24  C22 04L d   1     -21.475   4.900 -17.590  0.00  0.00     0.030 A 
ATOM     25  H8  04L d   1     -22.480   4.640 -17.279  0.00  0.00     0.118 H 
BRANCH  20  26
ATOM     26  C17 04L d   1     -17.165   6.123 -21.533  0.00  0.00     0.010 A 
ATOM     27  C27 04L d   1     -17.500   5.749 -22.834  0.00  0.00    -0.069 A 
ATOM     28  C31 04L d   1     -16.631   6.013 -23.892  0.00  0.00    -0.082 A 
ATOM     29  H14 04L d   1     -18.443   5.249 -23.024  0.00  0.00     0.085 H 
ATOM     30  C35 04L d   1     -15.419   6.656 -23.652  0.00  0.00    -0.083 A 
ATOM     31  H18 04L d   1     -16.898   5.718 -24.900  0.00  0.00     0.083 H 
ATOM     32  C32 04L d   1     -15.076   7.036 -22.351  0.00  0.00    -0.082 A 
ATOM     33  H22 04L d   1     -14.742   6.862 -24.473  0.00  0.00     0.083 H 
ATOM     34  C28 04L d   1     -15.948   6.771 -21.294  0.00  0.00    -0.069 A 
ATOM     35  H19 04L d   1     -14.133   7.536 -22.163  0.00  0.00     0.083 H 
ATOM     36  H15 04L d   1     -15.682   7.068 -20.286  0.00  0.00     0.085 H 
ENDBRANCH  20  26
ENDBRANCH  11  14
ENDBRANCH   1  10
BRANCH   3  37
ATOM     37  C26 04L d   1     -20.016   2.711 -12.977  0.00  0.00    -0.050 C 
ATOM     38  H11 04L d   1     -19.668   3.020 -13.974  0.00  0.00     0.033 H 
ATOM     39  H12 04L d   1     -20.783   1.929 -13.082  0.00  0.00     0.033 H 
ATOM     40  H13 04L d   1     -19.168   2.317 -12.399  0.00  0.00     0.033 H 
ENDBRANCH   3  37
BRANCH   4  41
ATOM     41  N13 04L d   1     -22.271   7.158 -10.233  0.00  0.00    -0.324 N 
ATOM     42  C11 04L d   1     -23.090   8.076 -10.774  0.00  0.00     0.245 C 
ATOM     43  O21 04L d   1     -23.398   8.028 -11.961  0.00  0.00    -0.268 OA
ATOM     44  H5  04L d   1     -22.046   7.254  -9.263  0.00  0.00     0.169 HD
BRANCH  42  45
ATOM     45  C12 04L d   1     -23.597   9.082 -10.003  0.00  0.00    -0.017 C 
ATOM     46  C15 04L d   1     -24.809   9.417 -10.130  0.00  0.00    -0.068 C 
ATOM     47  H6  04L d   1     -25.413   8.881 -10.861  0.00  0.00     0.085 H 
ATOM     48  H4  04L d   1     -22.960   9.593  -9.282  0.00  0.00     0.092 H 
BRANCH  46  49
ATOM     49  C25 04L d   1     -25.463  10.498  -9.344  0.00  0.00    -0.036 A 
ATOM     50  C29 04L d   1     -26.114  11.533 -10.016  0.00  0.00    -0.073 A 
ATOM     51  C33 04L d   1     -26.743  12.556  -9.301  0.00  0.00    -0.082 A 
ATOM     52  H16 04L d   1     -26.132  11.544 -11.100  0.00  0.00     0.084 H 
ATOM     53  C36 04L d   1     -26.732  12.538  -7.907  0.00  0.00    -0.083 A 
ATOM     54  H20 04L d   1     -27.239  13.362  -9.829  0.00  0.00     0.083 H 
ATOM     55  C34 04L d   1     -26.087  11.501  -7.228  0.00  0.00    -0.082 A 
ATOM     56  H23 04L d   1     -27.223  13.328  -7.350  0.00  0.00     0.083 H 
ATOM     57  C30 04L d   1     -25.458  10.482  -7.946  0.00  0.00    -0.073 A 
ATOM     58  H21 04L d   1     -26.075  11.488  -6.144  0.00  0.00     0.083 H 
ATOM     59  H17 04L d   1     -24.964   9.675  -7.417  0.00  0.00     0.084 H 
ENDBRANCH  46  49
ENDBRANCH  42  45
ENDBRANCH   4  41
TORSDOF 7
