REMARK  10 active torsions:
REMARK  status: ('A' for Active; 'I' for Inactive)
REMARK    1  A    between atoms: C9_9  and  C10_10 
REMARK    2  A    between atoms: C10_10  and  C11_11 
REMARK    3  A    between atoms: C10_10  and  C12_12 
REMARK    4  A    between atoms: N13_13  and  C14_14 
REMARK    5  A    between atoms: C14_14  and  C15_15 
REMARK    6  A    between atoms: N21_21  and  C22_22 
REMARK    7  A    between atoms: C22_22  and  C23_23 
REMARK    8  A    between atoms: C22_22  and  C25_25 
REMARK    9  A    between atoms: C23_23  and  C24_24 
REMARK   10  A    between atoms: C25_25  and  O26_26 
ROOT
ATOM      1  C1  404 d   1      11.177  10.310 -11.583  0.00  0.00     0.176 A 
ATOM      2  C2  404 d   1      12.091  10.396 -12.745  0.00  0.00     0.154 A 
ATOM      3  C3  404 d   1      13.319   9.592 -12.689  0.00  0.00     0.134 A 
ATOM      4  N4  404 d   1      13.601   8.790 -11.614  0.00  0.00    -0.059 NA
ATOM      5  C5  404 d   1      12.698   8.758 -10.577  0.00  0.00     0.725 A 
ATOM      6  N6  404 d   1      11.549   9.502 -10.573  0.00  0.00    -0.043 NA
ATOM      7  N7  404 d   1      12.093  11.073 -13.913  0.00  0.00    -0.168 NA
ATOM      8  N8  404 d   1      13.245  10.755 -14.660  0.00  0.00    -0.279 N 
ATOM      9  C9  404 d   1      14.007   9.883 -13.978  0.00  0.00     0.063 A 
ATOM     10  N13 404 d   1      10.027  11.022 -11.537  0.00  0.00    -0.368 N 
ATOM     11  N21 404 d   1      12.893   8.002  -9.465  0.00  0.00    -0.216 N 
ATOM     12  H1  404 d   1      13.470  11.135 -15.591  0.00  0.00     0.189 HD
ATOM     13  H9  404 d   1       9.846  11.743 -12.249  0.00  0.00     0.161 HD
ATOM     14  H17 404 d   1      12.423   8.304  -8.600  0.00  0.00     0.178 HD
ENDROOT
BRANCH  10  15
ATOM     15  C14 404 d   1       9.042  10.780 -10.492  0.00  0.00     0.018 C 
ATOM     16  H10 404 d   1       9.280   9.835  -9.981  0.00  0.00     0.071 H 
ATOM     17  H11 404 d   1       8.042  10.709 -10.946  0.00  0.00     0.071 H 
BRANCH  15  18
ATOM     18  C15 404 d   1       9.053  11.909  -9.483  0.00  0.00    -0.041 A 
ATOM     19  C16 404 d   1       9.370  11.645  -8.157  0.00  0.00    -0.075 A 
ATOM     20  C17 404 d   1       9.386  12.675  -7.227  0.00  0.00    -0.082 A 
ATOM     21  H12 404 d   1       9.605  10.633  -7.848  0.00  0.00     0.084 H 
ATOM     22  C18 404 d   1       9.085  13.971  -7.626  0.00  0.00    -0.083 A 
ATOM     23  H13 404 d   1       9.633  12.469  -6.192  0.00  0.00     0.083 H 
ATOM     24  C19 404 d   1       8.768  14.241  -8.950  0.00  0.00    -0.082 A 
ATOM     25  H14 404 d   1       9.098  14.776  -6.900  0.00  0.00     0.083 H 
ATOM     26  C20 404 d   1       8.757  13.210  -9.878  0.00  0.00    -0.075 A 
ATOM     27  H15 404 d   1       8.530  15.253  -9.258  0.00  0.00     0.083 H 
ATOM     28  H16 404 d   1       8.517  13.418 -10.914  0.00  0.00     0.084 H 
ENDBRANCH  15  18
ENDBRANCH  10  15
BRANCH   9  29
ATOM     29  C10 404 d   1      15.313   9.250 -14.321  0.00  0.00    -0.017 C 
ATOM     30  H2  404 d   1      15.634   9.655 -15.292  0.00  0.00     0.048 H 
BRANCH  29  31
ATOM     31  C11 404 d   1      15.158   7.733 -14.478  0.00  0.00    -0.068 C 
ATOM     32  H3  404 d   1      16.132   7.289 -14.730  0.00  0.00     0.028 H 
ATOM     33  H4  404 d   1      14.438   7.519 -15.282  0.00  0.00     0.028 H 
ATOM     34  H5  404 d   1      14.792   7.302 -13.534  0.00  0.00     0.028 H 
ENDBRANCH  29  31
BRANCH  29  35
ATOM     35  C12 404 d   1      16.397   9.597 -13.298  0.00  0.00    -0.068 C 
ATOM     36  H6  404 d   1      16.482  10.690 -13.210  0.00  0.00     0.028 H 
ATOM     37  H7  404 d   1      17.360   9.180 -13.628  0.00  0.00     0.028 H 
ATOM     38  H8  404 d   1      16.129   9.170 -12.320  0.00  0.00     0.028 H 
ENDBRANCH  29  35
ENDBRANCH   9  29
BRANCH  11  39
ATOM     39  C22 404 d   1      13.710   6.802  -9.395  0.00  0.00     0.046 C 
ATOM     40  H18 404 d   1      13.242   6.108  -8.681  0.00  0.00     0.076 H 
BRANCH  39  41
ATOM     41  C23 404 d   1      15.104   7.157  -8.890  0.00  0.00    -0.047 C 
ATOM     42  H19 404 d   1      15.690   7.586  -9.716  0.00  0.00     0.035 H 
ATOM     43  H20 404 d   1      15.600   6.246  -8.523  0.00  0.00     0.035 H 
BRANCH  41  44
ATOM     44  C24 404 d   1      15.016   8.163  -7.766  0.00  0.00    -0.075 C 
ATOM     45  H21 404 d   1      16.029   8.408  -7.413  0.00  0.00     0.027 H 
ATOM     46  H22 404 d   1      14.432   7.736  -6.937  0.00  0.00     0.027 H 
ATOM     47  H23 404 d   1      14.523   9.077  -8.129  0.00  0.00     0.027 H 
ENDBRANCH  41  44
ENDBRANCH  39  41
BRANCH  39  48
ATOM     48  C25 404 d   1      13.818   6.099 -10.743  0.00  0.00     0.036 C 
ATOM     49  H24 404 d   1      12.974   6.391 -11.385  0.00  0.00     0.077 H 
ATOM     50  H25 404 d   1      13.808   5.009 -10.597  0.00  0.00     0.077 H 
BRANCH  48  51
ATOM     51  O26 404 d   1      15.052   6.497 -11.352  0.00  0.00    -0.399 OA
ATOM     52  H26 404 d   1      15.055   7.439 -11.472  0.00  0.00     0.209 HD
ENDBRANCH  48  51
ENDBRANCH  39  48
ENDBRANCH  11  39
TORSDOF 10
