REMARK  4 active torsions:
REMARK  status: ('A' for Active; 'I' for Inactive)
REMARK    1  A    between atoms: C5_1  and  C2_10 
REMARK    2  A    between atoms: C6_2  and  C27_19 
REMARK    3  A    between atoms: N12_5  and  C8_3 
REMARK    4  A    between atoms: C28_8  and  C35_25 
ROOT
ATOM      1  C5  PJC d   1       6.906  -4.989   8.410  0.00  0.00     0.096 A 
ATOM      2  C6  PJC d   1       7.839  -4.393   9.297  0.00  0.00     0.109 A 
ATOM      3  C8  PJC d   1       6.393  -4.925  11.129  0.00  0.00     0.725 A 
ATOM      4  C10 PJC d   1       5.772  -5.608   8.969  0.00  0.00     0.038 A 
ATOM      5  N7  PJC d   1       7.520  -4.375  10.604  0.00  0.00    -0.061 NA
ATOM      6  N9  PJC d   1       5.564  -5.601  10.296  0.00  0.00    -0.074 NA
ATOM      7  H   PJC d   1       5.052  -6.100   8.315  0.00  0.00     0.117 H 
ENDROOT
BRANCH   2   8
ATOM      8  C27 PJC d   1       9.126  -3.666   8.931  0.00  0.00     0.079 A 
ATOM      9  C28 PJC d   1      10.384  -3.928   9.356  0.00  0.00     0.063 A 
ATOM     10  C29 PJC d   1      11.224  -2.894   8.715  0.00  0.00     0.260 A 
ATOM     11  N30 PJC d   1      10.494  -2.154   7.862  0.00  0.00    -0.289 N 
ATOM     12  O34 PJC d   1      12.420  -2.762   8.902  0.00  0.00    -0.267 OA
ATOM     13  C32 PJC d   1       9.224  -2.586   7.951  0.00  0.00     0.261 A 
ATOM     14  H   PJC d   1      10.839  -1.406   7.261  0.00  0.00     0.172 HD
ATOM     15  O33 PJC d   1       8.270  -2.147   7.337  0.00  0.00    -0.267 OA
BRANCH   9  16
ATOM     16  C35 PJC d   1      10.872  -4.837  10.428  0.00  0.00     0.009 A 
ATOM     17  C36 PJC d   1      11.967  -4.616  11.191  0.00  0.00    -0.011 A 
ATOM     18  N38 PJC d   1      12.136  -5.578  12.059  0.00  0.00    -0.364 N 
ATOM     19  H   PJC d   1      12.622  -3.750  11.095  0.00  0.00     0.112 H 
ATOM     20  C40 PJC d   1      11.200  -6.531  11.916  0.00  0.00     0.043 A 
ATOM     21  H   PJC d   1      12.882  -5.602  12.755  0.00  0.00     0.165 HD
ATOM     22  C41 PJC d   1      10.336  -6.180  10.869  0.00  0.00     0.003 A 
ATOM     23  C48 PJC d   1      11.058  -7.708  12.672  0.00  0.00    -0.056 A 
ATOM     24  C42 PJC d   1       9.293  -7.033  10.488  0.00  0.00    -0.070 A 
ATOM     25  C44 PJC d   1       9.119  -8.210  11.246  0.00  0.00    -0.082 A 
ATOM     26  H   PJC d   1       8.645  -6.798   9.644  0.00  0.00     0.084 H 
ATOM     27  C46 PJC d   1       9.978  -8.542  12.329  0.00  0.00    -0.081 A 
ATOM     28  H   PJC d   1       8.301  -8.885  10.994  0.00  0.00     0.083 H 
ATOM     29  H   PJC d   1       9.798  -9.453  12.900  0.00  0.00     0.083 H 
ATOM     30  H   PJC d   1      11.746  -7.960  13.479  0.00  0.00     0.086 H 
ENDBRANCH   9  16
ENDBRANCH   2   8
BRANCH   1  31
ATOM     31  C2  PJC d   1       7.097  -5.173   6.906  0.00  0.00     0.421 C 
ATOM     32  F1  PJC d   1       6.382  -4.273   6.185  0.00  0.00    -0.166 F 
ATOM     33  F3  PJC d   1       8.404  -5.110   6.559  0.00  0.00    -0.166 F 
ATOM     34  F4  PJC d   1       6.703  -6.436   6.603  0.00  0.00    -0.166 F 
ENDBRANCH   1  31
BRANCH   3  35
ATOM     35  N12 PJC d   1       6.241  -4.971  12.488  0.00  0.00    -0.213 N 
ATOM     36  C13 PJC d   1       7.187  -4.292  13.385  0.00  0.00     0.018 C 
ATOM     37  C16 PJC d   1       8.178  -5.409  13.843  0.00  0.00     0.006 C 
ATOM     38  H   PJC d   1       6.681  -3.828  14.231  0.00  0.00     0.065 H 
ATOM     39  H   PJC d   1       7.703  -3.473  12.884  0.00  0.00     0.065 H 
ATOM     40  C19 PJC d   1       7.419  -6.655  14.281  0.00  0.00     0.130 C 
ATOM     41  H   PJC d   1       8.763  -5.038  14.685  0.00  0.00     0.046 H 
ATOM     42  H   PJC d   1       8.828  -5.668  13.007  0.00  0.00     0.046 H 
ATOM     43  C20 PJC d   1       6.152  -7.123  13.576  0.00  0.00     0.006 C 
ATOM     44  O26 PJC d   1       7.833  -7.283  15.229  0.00  0.00    -0.298 OA
ATOM     45  C23 PJC d   1       5.293  -5.896  13.133  0.00  0.00     0.018 C 
ATOM     46  H   PJC d   1       5.569  -7.736  14.263  0.00  0.00     0.046 H 
ATOM     47  H   PJC d   1       6.428  -7.701  12.694  0.00  0.00     0.046 H 
ATOM     48  H   PJC d   1       4.494  -6.190  12.453  0.00  0.00     0.065 H 
ATOM     49  H   PJC d   1       4.792  -5.430  13.981  0.00  0.00     0.065 H 
ENDBRANCH   3  35
TORSDOF 4
