REMARK  14 active torsions:
REMARK  status: ('A' for Active; 'I' for Inactive)
REMARK    1  A    between atoms: O3B_16  and  C1'_1 
REMARK    2  A    between atoms: C2'_2  and  O2'_3 
REMARK    3  A    between atoms: C3'_4  and  O3'_5 
REMARK    4  A    between atoms: C4'_6  and  O4'_7 
REMARK    5  A    between atoms: C5'_8  and  C6'_10 
REMARK    6  A    between atoms: PB_13  and  O3B_16 
REMARK    7  A    between atoms: PB_13  and  O3A_17 
REMARK    8  A    between atoms: O3A_17  and  PA_18 
REMARK    9  A    between atoms: PA_18  and  O5D_21 
REMARK   10  A    between atoms: O5D_21  and  C5D_22 
REMARK   11  A    between atoms: C5D_22  and  C4D_23 
REMARK   12  A    between atoms: C3D_25  and  O3D_26 
REMARK   13  A    between atoms: C2D_27  and  O2D_28 
REMARK   14  A    between atoms: C1D_29  and  N1_30 
ROOT
ATOM      1  PA  UGA d   1      42.399  -6.755  12.883  0.00  0.00     0.417 P 
ATOM      2  O1A UGA d   1      41.333  -5.829  13.267  0.00  0.00    -0.624 OA
ATOM      3  O2A UGA d   1      42.358  -6.988  11.311  0.00  0.00    -0.624 OA
ENDROOT
BRANCH   1   4
ATOM      4  O3A UGA d   1      42.043  -8.097  13.733  0.00  0.00    -0.180 OA
BRANCH   4   5
ATOM      5  PB  UGA d   1      42.890  -9.468  13.419  0.00  0.00     0.420 P 
ATOM      6  O1B UGA d   1      44.422  -9.289  13.386  0.00  0.00    -0.624 OA
ATOM      7  O2B UGA d   1      42.511 -10.394  14.646  0.00  0.00    -0.624 OA
BRANCH   5   8
ATOM      8  O3B UGA d   1      42.261 -10.199  12.052  0.00  0.00    -0.255 OA
BRANCH   8   9
ATOM      9  C1' UGA d   1      43.006  -9.902  10.825  0.00  0.00     0.171 C 
ATOM     10  C2' UGA d   1      42.053  -9.767   9.610  0.00  0.00     0.110 C 
ATOM     11  C3' UGA d   1      41.323 -11.124   9.382  0.00  0.00     0.092 C 
ATOM     12  H   UGA d   1      42.603  -9.527   8.700  0.00  0.00     0.094 H 
ATOM     13  C4' UGA d   1      42.354 -12.234   9.207  0.00  0.00     0.097 C 
ATOM     14  H   UGA d   1      40.694 -11.317  10.251  0.00  0.00     0.091 H 
ATOM     15  C5' UGA d   1      43.276 -12.234  10.435  0.00  0.00     0.152 C 
ATOM     16  H   UGA d   1      42.940 -12.057   8.305  0.00  0.00     0.091 H 
ATOM     17  O5' UGA d   1      43.923 -10.951  10.566  0.00  0.00    -0.339 OA
ATOM     18  H   UGA d   1      42.634 -12.471  11.284  0.00  0.00     0.104 H 
ATOM     19  H   UGA d   1      43.531  -8.958  10.968  0.00  0.00     0.134 H 
BRANCH  10  20
ATOM     20  O2' UGA d   1      41.134  -8.710   9.876  0.00  0.00    -0.388 OA
ATOM     21  H   UGA d   1      41.618  -7.892  10.007  0.00  0.00     0.210 HD
ENDBRANCH  10  20
BRANCH  11  22
ATOM     22  O3' UGA d   1      40.513 -11.080   8.231  0.00  0.00    -0.390 OA
ATOM     23  H   UGA d   1      40.077 -11.927   8.116  0.00  0.00     0.210 HD
ENDBRANCH  11  22
BRANCH  13  24
ATOM     24  O4' UGA d   1      41.711 -13.502   9.057  0.00  0.00    -0.390 OA
ATOM     25  H   UGA d   1      41.185 -13.687   9.838  0.00  0.00     0.210 HD
ENDBRANCH  13  24
BRANCH  15  26
ATOM     26  C6' UGA d   1      44.397 -13.259  10.338  0.00  0.00     0.206 C 
ATOM     27  O'P UGA d   1      45.165 -13.338  11.267  0.00  0.00    -0.646 OA
ATOM     28  O'Q UGA d   1      44.585 -14.052   9.252  0.00  0.00    -0.646 OA
ENDBRANCH  15  26
ENDBRANCH   8   9
ENDBRANCH   5   8
ENDBRANCH   4   5
ENDBRANCH   1   4
BRANCH   1  29
ATOM     29  O5D UGA d   1      43.780  -6.120  13.433  0.00  0.00    -0.287 OA
BRANCH  29  30
ATOM     30  C5D UGA d   1      44.867  -6.264  12.525  0.00  0.00     0.058 C 
ATOM     31  H   UGA d   1      44.528  -6.037  11.514  0.00  0.00     0.079 H 
ATOM     32  H   UGA d   1      45.238  -7.288  12.563  0.00  0.00     0.079 H 
BRANCH  30  33
ATOM     33  C4D UGA d   1      46.016  -5.278  12.924  0.00  0.00     0.089 C 
ATOM     34  O4D UGA d   1      45.768  -3.981  12.405  0.00  0.00    -0.353 OA
ATOM     35  C1D UGA d   1      45.589  -3.014  13.487  0.00  0.00     0.141 C 
ATOM     36  C2D UGA d   1      45.287  -3.898  14.730  0.00  0.00     0.105 C 
ATOM     37  H   UGA d   1      46.438  -2.368  13.709  0.00  0.00     0.123 H 
ATOM     38  C3D UGA d   1      46.212  -5.037  14.424  0.00  0.00     0.091 C 
ATOM     39  H   UGA d   1      44.224  -4.112  14.845  0.00  0.00     0.093 H 
ATOM     40  H   UGA d   1      46.009  -5.901  15.057  0.00  0.00     0.091 H 
ATOM     41  H   UGA d   1      46.897  -5.776  12.519  0.00  0.00     0.090 H 
BRANCH  35  42
ATOM     42  N1  UGA d   1      44.493  -2.120  13.086  0.00  0.00    -0.280 N 
ATOM     43  C6  UGA d   1      43.318  -2.659  12.561  0.00  0.00    -0.008 A 
ATOM     44  C5  UGA d   1      42.300  -1.842  12.170  0.00  0.00    -0.002 A 
ATOM     45  H   UGA d   1      43.214  -3.740  12.463  0.00  0.00     0.112 H 
ATOM     46  C4  UGA d   1      42.448  -0.394  12.308  0.00  0.00     0.250 A 
ATOM     47  H   UGA d   1      41.383  -2.264  11.758  0.00  0.00     0.094 H 
ATOM     48  N3  UGA d   1      43.625   0.115  12.831  0.00  0.00    -0.275 N 
ATOM     49  O4  UGA d   1      41.517   0.372  11.956  0.00  0.00    -0.268 OA
ATOM     50  C2  UGA d   1      44.655  -0.747  13.221  0.00  0.00     0.331 A 
ATOM     51  H   UGA d   1      43.741   1.123  12.932  0.00  0.00     0.173 HD
ATOM     52  O2  UGA d   1      45.713  -0.285  13.681  0.00  0.00    -0.246 OA
ENDBRANCH  35  42
BRANCH  36  53
ATOM     53  O2D UGA d   1      45.592  -3.324  16.020  0.00  0.00    -0.388 OA
ATOM     54  H   UGA d   1      44.989  -2.598  16.196  0.00  0.00     0.210 HD
ENDBRANCH  36  53
BRANCH  38  55
ATOM     55  O3D UGA d   1      47.552  -4.646  14.607  0.00  0.00    -0.390 OA
ATOM     56  H   UGA d   1      47.713  -4.486  15.540  0.00  0.00     0.210 HD
ENDBRANCH  38  55
ENDBRANCH  30  33
ENDBRANCH  29  30
ENDBRANCH   1  29
TORSDOF 14
