REMARK  6 active torsions:
REMARK  status: ('A' for Active; 'I' for Inactive)
REMARK    1  A    between atoms: C2'_10  and  O2'_11 
REMARK    2  A    between atoms: C1'_12  and  N9_13 
REMARK    3  A    between atoms: C2_20  and  N2_21 
REMARK    4  A    between atoms: C2A_33  and  O2A_34 
REMARK    5  A    between atoms: C1A_35  and  N91_36 
REMARK    6  A    between atoms: C21_43  and  N21_44 
ROOT
ATOM      1  P1  C2E d   1     -18.756 -46.167  15.670  0.00  0.00     0.408 P 
ATOM      2  O2P C2E d   1     -17.804 -45.326  16.468  0.00  0.00    -0.624 OA
ATOM      3  O1P C2E d   1     -18.847 -47.527  16.341  0.00  0.00    -0.624 OA
ATOM      4  O5' C2E d   1     -20.182 -45.452  15.688  0.00  0.00    -0.287 OA
ATOM      5  C5' C2E d   1     -21.306 -46.221  15.387  0.00  0.00     0.058 C 
ATOM      6  C4' C2E d   1     -21.697 -46.207  13.939  0.00  0.00     0.090 C 
ATOM      7  O4' C2E d   1     -22.734 -47.111  13.719  0.00  0.00    -0.353 OA
ATOM      8  C3' C2E d   1     -22.299 -44.922  13.438  0.00  0.00     0.106 C 
ATOM      9  O3' C2E d   1     -22.279 -44.925  12.058  0.00  0.00    -0.279 OA
ATOM     10  C2' C2E d   1     -23.632 -45.014  13.885  0.00  0.00     0.106 C 
ATOM     11  C1' C2E d   1     -23.957 -46.413  13.791  0.00  0.00     0.140 C 
ATOM     12  P11 C2E d   1     -21.354 -43.866  11.359  0.00  0.00     0.408 P 
ATOM     13  O21 C2E d   1     -21.209 -42.650  12.223  0.00  0.00    -0.624 OA
ATOM     14  O11 C2E d   1     -21.908 -43.472  10.025  0.00  0.00    -0.624 OA
ATOM     15  O5A C2E d   1     -19.949 -44.453  11.030  0.00  0.00    -0.287 OA
ATOM     16  C5A C2E d   1     -19.112 -44.310  12.085  0.00  0.00     0.058 C 
ATOM     17  C4A C2E d   1     -18.069 -45.336  12.156  0.00  0.00     0.090 C 
ATOM     18  O4A C2E d   1     -16.890 -44.854  11.433  0.00  0.00    -0.353 OA
ATOM     19  C3A C2E d   1     -17.750 -45.303  13.590  0.00  0.00     0.106 C 
ATOM     20  O3A C2E d   1     -18.174 -46.441  14.241  0.00  0.00    -0.279 OA
ATOM     21  C2A C2E d   1     -16.334 -44.913  13.720  0.00  0.00     0.106 C 
ATOM     22  C1A C2E d   1     -16.008 -44.323  12.376  0.00  0.00     0.140 C 
ATOM     23  H1  C2E d   1     -22.153 -45.838  15.976  0.00  0.00     0.079 H 
ATOM     24  H2  C2E d   1     -21.099 -47.262  15.677  0.00  0.00     0.079 H 
ATOM     25  H3  C2E d   1     -20.812 -46.465  13.339  0.00  0.00     0.090 H 
ATOM     26  H4  C2E d   1     -21.785 -44.035  13.838  0.00  0.00     0.092 H 
ATOM     27  H5  C2E d   1     -23.682 -44.683  14.933  0.00  0.00     0.093 H 
ATOM     28  H7  C2E d   1     -24.482 -46.542  12.833  0.00  0.00     0.122 H 
ATOM     29  H12 C2E d   1     -19.707 -44.356  13.009  0.00  0.00     0.079 H 
ATOM     30  H13 C2E d   1     -18.626 -43.326  12.011  0.00  0.00     0.079 H 
ATOM     31  H14 C2E d   1     -18.400 -46.322  11.799  0.00  0.00     0.090 H 
ATOM     32  H15 C2E d   1     -18.333 -44.483  14.035  0.00  0.00     0.092 H 
ATOM     33  H16 C2E d   1     -16.217 -44.158  14.512  0.00  0.00     0.093 H 
ATOM     34  H18 C2E d   1     -15.022 -44.725  12.101  0.00  0.00     0.122 H 
ENDROOT
BRANCH  11  35
ATOM     35  N9  C2E d   1     -24.900 -47.073  14.886  0.00  0.00    -0.293 N 
ATOM     36  C8  C2E d   1     -24.957 -46.672  16.166  0.00  0.00     0.071 A 
ATOM     37  N7  C2E d   1     -25.783 -47.501  16.825  0.00  0.00    -0.235 NA
ATOM     38  H8  C2E d   1     -24.426 -45.823  16.595  0.00  0.00     0.144 H 
ATOM     39  C5  C2E d   1     -26.232 -48.435  15.963  0.00  0.00     0.159 A 
ATOM     40  C6  C2E d   1     -27.104 -49.518  16.117  0.00  0.00     0.226 A 
ATOM     41  C4  C2E d   1     -25.653 -48.167  14.718  0.00  0.00     0.185 A 
ATOM     42  O6  C2E d   1     -27.656 -49.842  17.334  0.00  0.00    -0.169 OA
ATOM     43  N1  C2E d   1     -27.370 -50.278  15.049  0.00  0.00    -0.164 N 
ATOM     44  C2  C2E d   1     -26.811 -49.993  13.864  0.00  0.00     0.702 A 
ATOM     45  H9  C2E d   1     -27.987 -51.060  15.134  0.00  0.00     0.186 HD
ATOM     46  N3  C2E d   1     -25.961 -48.962  13.690  0.00  0.00    -0.044 NA
BRANCH  44  47
ATOM     47  N2  C2E d   1     -27.156 -50.800  12.748  0.00  0.00    -0.233 N 
ATOM     48  H10 C2E d   1     -26.743 -50.606  11.825  0.00  0.00     0.174 HD
ATOM     49  H11 C2E d   1     -27.819 -51.580  12.862  0.00  0.00     0.174 HD
ENDBRANCH  44  47
ENDBRANCH  11  35
BRANCH  10  50
ATOM     50  O2' C2E d   1     -24.572 -44.259  13.139  0.00  0.00    -0.388 OA
ATOM     51  H6  C2E d   1     -25.439 -44.380  13.509  0.00  0.00     0.210 HD
ENDBRANCH  10  50
BRANCH  21  52
ATOM     52  O2A C2E d   1     -15.528 -45.972  14.001  0.00  0.00    -0.388 OA
ATOM     53  H17 C2E d   1     -15.800 -46.367  14.821  0.00  0.00     0.210 HD
ENDBRANCH  21  52
BRANCH  22  54
ATOM     54  N91 C2E d   1     -15.787 -42.759  12.405  0.00  0.00    -0.293 N 
ATOM     55  C81 C2E d   1     -16.749 -41.850  12.634  0.00  0.00     0.071 A 
ATOM     56  N71 C2E d   1     -16.177 -40.640  12.732  0.00  0.00    -0.235 NA
ATOM     57  H19 C2E d   1     -17.814 -42.060  12.725  0.00  0.00     0.144 H 
ATOM     58  C51 C2E d   1     -14.849 -40.783  12.565  0.00  0.00     0.159 A 
ATOM     59  C61 C2E d   1     -13.774 -39.896  12.567  0.00  0.00     0.226 A 
ATOM     60  C41 C2E d   1     -14.598 -42.133  12.365  0.00  0.00     0.185 A 
ATOM     61  O61 C2E d   1     -13.997 -38.560  12.826  0.00  0.00    -0.169 OA
ATOM     62  N11 C2E d   1     -12.525 -40.379  12.376  0.00  0.00    -0.164 N 
ATOM     63  C21 C2E d   1     -12.306 -41.684  12.168  0.00  0.00     0.702 A 
ATOM     64  H20 C2E d   1     -11.749 -39.749  12.390  0.00  0.00     0.186 HD
ATOM     65  N31 C2E d   1     -13.338 -42.542  12.170  0.00  0.00    -0.044 NA
BRANCH  63  66
ATOM     66  N21 C2E d   1     -10.971 -42.171  11.951  0.00  0.00    -0.233 N 
ATOM     67  H21 C2E d   1     -10.809 -43.176  11.792  0.00  0.00     0.174 HD
ATOM     68  H22 C2E d   1     -10.177 -41.515  11.955  0.00  0.00     0.174 HD
ENDBRANCH  63  66
ENDBRANCH  22  54
TORSDOF 6
