REMARK  21 active torsions:
REMARK  status: ('A' for Active; 'I' for Inactive)
REMARK       I    between atoms: N_1  and  C11_18 
REMARK    1  A    between atoms: C19_19  and  N_1 
REMARK    2  A    between atoms: C04_11  and  O1_2 
REMARK    3  A    between atoms: C06_13  and  O2_3 
REMARK    4  A    between atoms: C05_12  and  O3_4 
REMARK    5  A    between atoms: C07_14  and  O5_6 
REMARK    6  A    between atoms: O5_6  and  C21_21 
REMARK    7  A    between atoms: C20_20  and  O6_7 
REMARK    8  A    between atoms: O6_7  and  C22_22 
REMARK    9  A    between atoms: C02_9  and  C01_8 
REMARK   10  A    between atoms: C01_8  and  C08_15 
REMARK   11  A    between atoms: C01_8  and  C09_16 
REMARK   12  A    between atoms: C01_8  and  C10_17 
REMARK   13  A    between atoms: C04_11  and  C03_10 
REMARK   14  A    between atoms: C05_12  and  C04_11 
REMARK   15  A    between atoms: C06_13  and  C05_12 
REMARK   16  A    between atoms: C07_14  and  C06_13 
REMARK   17  A    between atoms: C11_18  and  C07_14 
REMARK   18  A    between atoms: C19_19  and  C20_20 
REMARK   19  A    between atoms: C23_23  and  C28_28 
REMARK   20  A    between atoms: C25_25  and  C29_29 
REMARK   21  A    between atoms: C27_27  and  C30_30 
ROOT
ATOM      1  C07 Y02 d   1     -39.879 -16.013   3.153  0.00  0.00     0.141 C 
ATOM      2  H10 Y02 d   1     -39.390 -16.005   2.168  0.00  0.00     0.102 H 
ENDROOT
BRANCH   1   3
ATOM      3  O5  Y02 d   1     -39.335 -14.968   3.993  0.00  0.00    -0.379 OA
BRANCH   3   4
ATOM      4  C21 Y02 d   1     -37.932 -14.847   3.907  0.00  0.00     0.005 C 
ATOM      5  H24 Y02 d   1     -37.593 -14.037   4.569  0.00  0.00     0.066 H 
ATOM      6  H25 Y02 d   1     -37.647 -14.616   2.870  0.00  0.00     0.066 H 
ATOM      7  H26 Y02 d   1     -37.463 -15.793   4.215  0.00  0.00     0.066 H 
ENDBRANCH   3   4
ENDBRANCH   1   3
BRANCH   1   8
ATOM      8  C06 Y02 d   1     -41.386 -15.723   3.008  0.00  0.00     0.096 C 
ATOM      9  H9  Y02 d   1     -41.891 -16.052   3.928  0.00  0.00     0.091 H 
BRANCH   8  10
ATOM     10  O2  Y02 d   1     -41.882 -16.496   1.867  0.00  0.00    -0.390 OA
ATOM     11  H3  Y02 d   1     -41.469 -16.183   1.071  0.00  0.00     0.210 HD
ENDBRANCH   8  10
BRANCH   8  12
ATOM     12  C05 Y02 d   1     -41.740 -14.261   2.764  0.00  0.00     0.091 C 
ATOM     13  H8  Y02 d   1     -41.167 -13.619   3.449  0.00  0.00     0.091 H 
BRANCH  12  14
ATOM     14  O3  Y02 d   1     -41.411 -13.915   1.410  0.00  0.00    -0.390 OA
ATOM     15  H4  Y02 d   1     -40.478 -14.031   1.272  0.00  0.00     0.210 HD
ENDBRANCH  12  14
BRANCH  12  16
ATOM     16  C04 Y02 d   1     -43.224 -14.092   3.036  0.00  0.00     0.079 C 
ATOM     17  H7  Y02 d   1     -43.777 -14.895   2.526  0.00  0.00     0.093 H 
BRANCH  16  18
ATOM     18  O1  Y02 d   1     -43.563 -12.791   2.448  0.00  0.00    -0.389 OA
ATOM     19  H2  Y02 d   1     -44.498 -12.643   2.527  0.00  0.00     0.210 HD
ENDBRANCH  16  18
BRANCH  16  20
ATOM     20  C03 Y02 d   1     -43.608 -14.109   4.477  0.00  0.00    -0.076 C 
ATOM     21  C02 Y02 d   1     -44.321 -15.086   4.990  0.00  0.00    -0.097 C 
ATOM     22  H5  Y02 d   1     -44.744 -15.814   4.299  0.00  0.00     0.077 H 
ATOM     23  H6  Y02 d   1     -43.289 -13.290   5.121  0.00  0.00     0.080 H 
BRANCH  21  24
ATOM     24  C01 Y02 d   1     -44.604 -15.282   6.478  0.00  0.00    -0.034 C 
BRANCH  24  25
ATOM     25  C08 Y02 d   1     -46.123 -15.362   6.669  0.00  0.00    -0.066 C 
ATOM     26  H11 Y02 d   1     -46.352 -15.503   7.736  0.00  0.00     0.028 H 
ATOM     27  H12 Y02 d   1     -46.521 -16.211   6.093  0.00  0.00     0.028 H 
ATOM     28  H13 Y02 d   1     -46.587 -14.429   6.315  0.00  0.00     0.028 H 
ENDBRANCH  24  25
BRANCH  24  29
ATOM     29  C09 Y02 d   1     -43.970 -16.625   6.865  0.00  0.00    -0.066 C 
ATOM     30  H14 Y02 d   1     -42.880 -16.569   6.728  0.00  0.00     0.028 H 
ATOM     31  H15 Y02 d   1     -44.379 -17.421   6.226  0.00  0.00     0.028 H 
ATOM     32  H16 Y02 d   1     -44.197 -16.848   7.918  0.00  0.00     0.028 H 
ENDBRANCH  24  29
BRANCH  24  33
ATOM     33  C10 Y02 d   1     -44.091 -14.176   7.387  0.00  0.00    -0.066 C 
ATOM     34  H17 Y02 d   1     -44.553 -13.220   7.098  0.00  0.00     0.028 H 
ATOM     35  H18 Y02 d   1     -42.998 -14.099   7.290  0.00  0.00     0.028 H 
ATOM     36  H19 Y02 d   1     -44.351 -14.409   8.430  0.00  0.00     0.028 H 
ENDBRANCH  24  33
ENDBRANCH  21  24
ENDBRANCH  16  20
ENDBRANCH  12  16
ENDBRANCH   8  12
ENDBRANCH   1   8
BRANCH   1  37
ATOM     37  C11 Y02 d   1     -39.690 -17.319   3.790  0.00  0.00     0.249 C 
ATOM     38  N   Y02 d   1     -39.075 -18.302   3.092  0.00  0.00    -0.357 N 
ATOM     39  H1  Y02 d   1     -38.736 -18.090   2.176  0.00  0.00     0.162 HD
ATOM     40  O4  Y02 d   1     -40.068 -17.471   4.985  0.00  0.00    -0.271 OA
BRANCH  38  41
ATOM     41  C19 Y02 d   1     -38.880 -19.657   3.605  0.00  0.00     0.015 C 
ATOM     42  H20 Y02 d   1     -38.758 -19.617   4.697  0.00  0.00     0.067 H 
ATOM     43  H21 Y02 d   1     -37.977 -20.090   3.151  0.00  0.00     0.067 H 
BRANCH  41  44
ATOM     44  C20 Y02 d   1     -40.086 -20.537   3.265  0.00  0.00     0.041 C 
ATOM     45  H22 Y02 d   1     -41.022 -20.049   3.575  0.00  0.00     0.077 H 
ATOM     46  H23 Y02 d   1     -40.121 -20.746   2.186  0.00  0.00     0.077 H 
BRANCH  44  47
ATOM     47  O6  Y02 d   1     -39.879 -21.728   3.997  0.00  0.00    -0.348 OA
BRANCH  47  48
ATOM     48  C22 Y02 d   1     -40.782 -22.788   3.642  0.00  0.00     0.080 A 
ATOM     49  C23 Y02 d   1     -42.028 -22.822   4.189  0.00  0.00    -0.028 A 
ATOM     50  C24 Y02 d   1     -42.847 -23.851   3.860  0.00  0.00    -0.069 A 
ATOM     51  C25 Y02 d   1     -42.472 -24.833   3.000  0.00  0.00    -0.061 A 
ATOM     52  H27 Y02 d   1     -43.837 -23.892   4.299  0.00  0.00     0.085 H 
ATOM     53  C26 Y02 d   1     -41.225 -24.793   2.435  0.00  0.00    -0.069 A 
ATOM     54  C27 Y02 d   1     -40.331 -23.753   2.743  0.00  0.00    -0.028 A 
ATOM     55  H28 Y02 d   1     -40.924 -25.572   1.743  0.00  0.00     0.085 H 
BRANCH  49  56
ATOM     56  C28 Y02 d   1     -42.461 -21.745   5.173  0.00  0.00    -0.049 C 
ATOM     57  H29 Y02 d   1     -41.650 -21.012   5.295  0.00  0.00     0.033 H 
ATOM     58  H30 Y02 d   1     -42.687 -22.206   6.146  0.00  0.00     0.033 H 
ATOM     59  H31 Y02 d   1     -43.359 -21.238   4.790  0.00  0.00     0.033 H 
ENDBRANCH  49  56
BRANCH  51  60
ATOM     60  C29 Y02 d   1     -43.388 -25.994   2.655  0.00  0.00    -0.051 C 
ATOM     61  H32 Y02 d   1     -44.344 -25.878   3.187  0.00  0.00     0.033 H 
ATOM     62  H33 Y02 d   1     -42.913 -26.939   2.958  0.00  0.00     0.033 H 
ATOM     63  H34 Y02 d   1     -43.571 -26.007   1.570  0.00  0.00     0.033 H 
ENDBRANCH  51  60
BRANCH  54  64
ATOM     64  C30 Y02 d   1     -38.908 -23.648   2.184  0.00  0.00    -0.049 C 
ATOM     65  H35 Y02 d   1     -38.424 -22.744   2.582  0.00  0.00     0.033 H 
ATOM     66  H36 Y02 d   1     -38.949 -23.590   1.086  0.00  0.00     0.033 H 
ATOM     67  H37 Y02 d   1     -38.330 -24.535   2.483  0.00  0.00     0.033 H 
ENDBRANCH  54  64
ENDBRANCH  47  48
ENDBRANCH  44  47
ENDBRANCH  41  44
ENDBRANCH  38  41
ENDBRANCH   1  37
TORSDOF 21
