REMARK  16 active torsions:
REMARK  status: ('A' for Active; 'I' for Inactive)
REMARK       I    between atoms: N1_1  and  C11_19 
REMARK    1  A    between atoms: C12_20  and  N1_1 
REMARK    2  A    between atoms: C04_12  and  O1_2 
REMARK       I    between atoms: C13_21  and  N2_3 
REMARK    3  A    between atoms: C06_14  and  O2_4 
REMARK    4  A    between atoms: C05_13  and  O3_5 
REMARK    5  A    between atoms: C07_15  and  O6_8 
REMARK    6  A    between atoms: O6_8  and  C14_22 
REMARK    7  A    between atoms: C02_10  and  C01_9 
REMARK    8  A    between atoms: C01_9  and  C08_16 
REMARK    9  A    between atoms: C01_9  and  C09_17 
REMARK   10  A    between atoms: C01_9  and  C10_18 
REMARK   11  A    between atoms: C04_12  and  C03_11 
REMARK   12  A    between atoms: C05_13  and  C04_12 
REMARK   13  A    between atoms: C06_14  and  C05_13 
REMARK   14  A    between atoms: C07_15  and  C06_14 
REMARK   15  A    between atoms: C11_19  and  C07_15 
REMARK   16  A    between atoms: C12_20  and  C13_21 
ROOT
ATOM      1  C05 Y16 d   1      -8.567 -43.204   2.796  0.00  0.00     0.091 C 
ATOM      2  H10 Y16 d   1      -8.769 -42.375   3.490  0.00  0.00     0.091 H 
ENDROOT
BRANCH   1   3
ATOM      3  O3  Y16 d   1      -8.741 -42.719   1.444  0.00  0.00    -0.390 OA
ATOM      4  H6  Y16 d   1      -8.125 -42.014   1.280  0.00  0.00     0.210 HD
ENDBRANCH   1   3
BRANCH   1   5
ATOM      5  C04 Y16 d   1      -9.511 -44.311   3.102  0.00  0.00     0.079 C 
ATOM      6  H9  Y16 d   1      -9.132 -45.212   2.597  0.00  0.00     0.093 H 
BRANCH   5   7
ATOM      7  O1  Y16 d   1     -10.790 -43.983   2.532  0.00  0.00    -0.389 OA
ATOM      8  H2  Y16 d   1     -11.374 -44.727   2.618  0.00  0.00     0.210 HD
ENDBRANCH   5   7
BRANCH   5   9
ATOM      9  C03 Y16 d   1      -9.647 -44.657   4.569  0.00  0.00    -0.076 C 
ATOM     10  C02 Y16 d   1      -9.248 -45.795   5.064  0.00  0.00    -0.097 C 
ATOM     11  H7  Y16 d   1      -8.939 -46.549   4.342  0.00  0.00     0.077 H 
ATOM     12  H8  Y16 d   1     -10.097 -43.925   5.239  0.00  0.00     0.080 H 
BRANCH  10  13
ATOM     13  C01 Y16 d   1      -9.162 -46.198   6.532  0.00  0.00    -0.034 C 
BRANCH  13  14
ATOM     14  C08 Y16 d   1      -7.705 -46.410   6.884  0.00  0.00    -0.066 C 
ATOM     15  H13 Y16 d   1      -7.622 -46.702   7.941  0.00  0.00     0.028 H 
ATOM     16  H14 Y16 d   1      -7.148 -45.477   6.717  0.00  0.00     0.028 H 
ATOM     17  H15 Y16 d   1      -7.287 -47.206   6.250  0.00  0.00     0.028 H 
ENDBRANCH  13  14
BRANCH  13  18
ATOM     18  C09 Y16 d   1      -9.797 -45.168   7.494  0.00  0.00    -0.066 C 
ATOM     19  H16 Y16 d   1     -10.855 -45.022   7.229  0.00  0.00     0.028 H 
ATOM     20  H17 Y16 d   1      -9.263 -44.210   7.410  0.00  0.00     0.028 H 
ATOM     21  H18 Y16 d   1      -9.726 -45.539   8.527  0.00  0.00     0.028 H 
ENDBRANCH  13  18
BRANCH  13  22
ATOM     22  C10 Y16 d   1      -9.906 -47.480   6.762  0.00  0.00    -0.066 C 
ATOM     23  H19 Y16 d   1      -9.501 -48.262   6.103  0.00  0.00     0.028 H 
ATOM     24  H20 Y16 d   1     -10.973 -47.330   6.540  0.00  0.00     0.028 H 
ATOM     25  H21 Y16 d   1      -9.790 -47.788   7.811  0.00  0.00     0.028 H 
ENDBRANCH  13  22
ENDBRANCH  10  13
ENDBRANCH   5   9
ENDBRANCH   1   5
BRANCH   1  26
ATOM     26  C06 Y16 d   1      -7.163 -43.661   2.997  0.00  0.00     0.096 C 
ATOM     27  H11 Y16 d   1      -7.134 -44.284   3.903  0.00  0.00     0.091 H 
BRANCH  26  28
ATOM     28  O2  Y16 d   1      -6.803 -44.465   1.818  0.00  0.00    -0.390 OA
ATOM     29  H5  Y16 d   1      -6.875 -43.929   1.037  0.00  0.00     0.210 HD
ENDBRANCH  26  28
BRANCH  26  30
ATOM     30  C07 Y16 d   1      -6.089 -42.574   3.132  0.00  0.00     0.141 C 
ATOM     31  H12 Y16 d   1      -5.891 -42.105   2.157  0.00  0.00     0.102 H 
BRANCH  30  32
ATOM     32  O6  Y16 d   1      -6.587 -41.575   4.078  0.00  0.00    -0.379 OA
BRANCH  32  33
ATOM     33  C14 Y16 d   1      -5.848 -40.380   4.053  0.00  0.00     0.005 C 
ATOM     34  H24 Y16 d   1      -6.270 -39.673   4.782  0.00  0.00     0.066 H 
ATOM     35  H25 Y16 d   1      -5.896 -39.940   3.046  0.00  0.00     0.066 H 
ATOM     36  H26 Y16 d   1      -4.800 -40.592   4.311  0.00  0.00     0.066 H 
ENDBRANCH  32  33
ENDBRANCH  30  32
BRANCH  30  37
ATOM     37  C11 Y16 d   1      -4.850 -43.206   3.649  0.00  0.00     0.249 C 
ATOM     38  N1  Y16 d   1      -3.759 -43.191   2.860  0.00  0.00    -0.350 N 
ATOM     39  H1  Y16 d   1      -3.816 -42.739   1.970  0.00  0.00     0.163 HD
ATOM     40  O4  Y16 d   1      -4.849 -43.613   4.831  0.00  0.00    -0.271 OA
BRANCH  38  41
ATOM     41  C12 Y16 d   1      -2.505 -43.805   3.250  0.00  0.00     0.069 C 
ATOM     42  H22 Y16 d   1      -1.851 -43.880   2.369  0.00  0.00     0.078 H 
ATOM     43  H23 Y16 d   1      -2.705 -44.812   3.644  0.00  0.00     0.078 H 
BRANCH  41  44
ATOM     44  C13 Y16 d   1      -1.815 -42.993   4.305  0.00  0.00     0.233 C 
ATOM     45  N2  Y16 d   1      -0.938 -43.685   5.100  0.00  0.00    -0.369 N 
ATOM     46  H3  Y16 d   1      -0.804 -44.666   4.961  0.00  0.00     0.159 HD
ATOM     47  H4  Y16 d   1      -0.432 -43.209   5.819  0.00  0.00     0.159 HD
ATOM     48  O5  Y16 d   1      -2.002 -41.815   4.442  0.00  0.00    -0.272 OA
ENDBRANCH  41  44
ENDBRANCH  38  41
ENDBRANCH  30  37
ENDBRANCH  26  30
ENDBRANCH   1  26
TORSDOF 16
