REMARK  17 active torsions:
REMARK  status: ('A' for Active; 'I' for Inactive)
REMARK       I    between atoms: N1_1  and  C11_19 
REMARK    1  A    between atoms: C12_20  and  N1_1 
REMARK    2  A    between atoms: C04_12  and  O1_2 
REMARK       I    between atoms: N2_3  and  C18_26 
REMARK    3  A    between atoms: C06_14  and  O2_4 
REMARK    4  A    between atoms: C05_13  and  O3_5 
REMARK    5  A    between atoms: C07_15  and  O6_8 
REMARK    6  A    between atoms: O6_8  and  C22_30 
REMARK    7  A    between atoms: C02_10  and  C01_9 
REMARK    8  A    between atoms: C01_9  and  C08_16 
REMARK    9  A    between atoms: C01_9  and  C09_17 
REMARK   10  A    between atoms: C01_9  and  C10_18 
REMARK   11  A    between atoms: C04_12  and  C03_11 
REMARK   12  A    between atoms: C05_13  and  C04_12 
REMARK   13  A    between atoms: C06_14  and  C05_13 
REMARK   14  A    between atoms: C07_15  and  C06_14 
REMARK   15  A    between atoms: C11_19  and  C07_15 
REMARK   16  A    between atoms: C13_21  and  C12_20 
REMARK   17  A    between atoms: C18_26  and  C19_27 
ROOT
ATOM      1  C07 Y08 d   1     -24.234  -2.101 -12.833  0.00  0.00     0.141 C 
ATOM      2  H10 Y08 d   1     -24.307  -2.880 -13.606  0.00  0.00     0.102 H 
ENDROOT
BRANCH   1   3
ATOM      3  O6  Y08 d   1     -22.996  -1.371 -12.972  0.00  0.00    -0.379 OA
BRANCH   3   4
ATOM      4  C22 Y08 d   1     -21.845  -2.293 -13.061  0.00  0.00     0.005 C 
ATOM      5  H36 Y08 d   1     -20.917  -1.712 -13.166  0.00  0.00     0.066 H 
ATOM      6  H37 Y08 d   1     -21.968  -2.949 -13.935  0.00  0.00     0.066 H 
ATOM      7  H38 Y08 d   1     -21.793  -2.904 -12.148  0.00  0.00     0.066 H 
ENDBRANCH   3   4
ENDBRANCH   1   3
BRANCH   1   8
ATOM      8  C06 Y08 d   1     -25.313  -1.054 -13.011  0.00  0.00     0.096 C 
ATOM      9  H9  Y08 d   1     -25.500  -0.550 -12.051  0.00  0.00     0.091 H 
BRANCH   8  10
ATOM     10  O2  Y08 d   1     -26.552  -1.717 -13.551  0.00  0.00    -0.390 OA
ATOM     11  H3  Y08 d   1     -26.355  -2.119 -14.389  0.00  0.00     0.210 HD
ENDBRANCH   8  10
BRANCH   8  12
ATOM     12  C05 Y08 d   1     -25.007  -0.046 -14.104  0.00  0.00     0.091 C 
ATOM     13  H8  Y08 d   1     -23.972   0.305 -13.977  0.00  0.00     0.091 H 
BRANCH  12  14
ATOM     14  O3  Y08 d   1     -25.131  -0.710 -15.429  0.00  0.00    -0.390 OA
ATOM     15  H4  Y08 d   1     -24.549  -1.460 -15.462  0.00  0.00     0.210 HD
ENDBRANCH  12  14
BRANCH  12  16
ATOM     16  C04 Y08 d   1     -25.944   1.172 -14.033  0.00  0.00     0.079 C 
ATOM     17  H7  Y08 d   1     -26.988   0.860 -13.881  0.00  0.00     0.093 H 
BRANCH  16  18
ATOM     18  O1  Y08 d   1     -25.778   1.846 -15.346  0.00  0.00    -0.389 OA
ATOM     19  H2  Y08 d   1     -26.310   2.633 -15.366  0.00  0.00     0.210 HD
ENDBRANCH  16  18
BRANCH  16  20
ATOM     20  C03 Y08 d   1     -25.518   2.073 -12.923  0.00  0.00    -0.076 C 
ATOM     21  C02 Y08 d   1     -26.327   2.116 -11.864  0.00  0.00    -0.097 C 
ATOM     22  H5  Y08 d   1     -27.247   1.536 -11.914  0.00  0.00     0.077 H 
ATOM     23  H6  Y08 d   1     -24.602   2.660 -12.975  0.00  0.00     0.080 H 
BRANCH  21  24
ATOM     24  C01 Y08 d   1     -26.073   2.902 -10.602  0.00  0.00    -0.034 C 
BRANCH  24  25
ATOM     25  C08 Y08 d   1     -26.107   1.904  -9.451  0.00  0.00    -0.066 C 
ATOM     26  H11 Y08 d   1     -25.926   2.432  -8.503  0.00  0.00     0.028 H 
ATOM     27  H12 Y08 d   1     -25.327   1.143  -9.602  0.00  0.00     0.028 H 
ATOM     28  H13 Y08 d   1     -27.093   1.417  -9.417  0.00  0.00     0.028 H 
ENDBRANCH  24  25
BRANCH  24  29
ATOM     29  C09 Y08 d   1     -24.753   3.640 -10.657  0.00  0.00    -0.066 C 
ATOM     30  H14 Y08 d   1     -24.765   4.350 -11.497  0.00  0.00     0.028 H 
ATOM     31  H15 Y08 d   1     -23.935   2.918 -10.798  0.00  0.00     0.028 H 
ATOM     32  H16 Y08 d   1     -24.600   4.189  -9.716  0.00  0.00     0.028 H 
ENDBRANCH  24  29
BRANCH  24  33
ATOM     33  C10 Y08 d   1     -27.170   3.989 -10.435  0.00  0.00    -0.066 C 
ATOM     34  H17 Y08 d   1     -28.158   3.508 -10.389  0.00  0.00     0.028 H 
ATOM     35  H18 Y08 d   1     -27.137   4.678 -11.292  0.00  0.00     0.028 H 
ATOM     36  H19 Y08 d   1     -26.991   4.551  -9.506  0.00  0.00     0.028 H 
ENDBRANCH  24  33
ENDBRANCH  21  24
ENDBRANCH  16  20
ENDBRANCH  12  16
ENDBRANCH   8  12
ENDBRANCH   1   8
BRANCH   1  37
ATOM     37  C11 Y08 d   1     -24.386  -2.726 -11.477  0.00  0.00     0.249 C 
ATOM     38  N1  Y08 d   1     -25.083  -3.844 -11.384  0.00  0.00    -0.358 N 
ATOM     39  H1  Y08 d   1     -25.434  -4.257 -12.224  0.00  0.00     0.162 HD
ATOM     40  O4  Y08 d   1     -23.918  -2.192 -10.476  0.00  0.00    -0.271 OA
BRANCH  38  41
ATOM     41  C12 Y08 d   1     -25.374  -4.524 -10.079  0.00  0.00     0.000 C 
ATOM     42  H20 Y08 d   1     -24.636  -4.194  -9.333  0.00  0.00     0.064 H 
ATOM     43  H21 Y08 d   1     -25.293  -5.612 -10.218  0.00  0.00     0.064 H 
BRANCH  41  44
ATOM     44  C13 Y08 d   1     -26.765  -4.197  -9.572  0.00  0.00    -0.023 C 
ATOM     45  C14 Y08 d   1     -26.610  -2.752  -9.020  0.00  0.00    -0.057 C 
ATOM     46  C15 Y08 d   1     -27.838  -2.362  -8.156  0.00  0.00    -0.050 C 
ATOM     47  H23 Y08 d   1     -26.524  -2.050  -9.863  0.00  0.00     0.033 H 
ATOM     48  H24 Y08 d   1     -25.701  -2.697  -8.402  0.00  0.00     0.033 H 
ATOM     49  C16 Y08 d   1     -28.271  -3.480  -7.140  0.00  0.00    -0.002 C 
ATOM     50  H25 Y08 d   1     -28.684  -2.155  -8.827  0.00  0.00     0.035 H 
ATOM     51  H26 Y08 d   1     -27.590  -1.453  -7.588  0.00  0.00     0.035 H 
ATOM     52  N2  Y08 d   1     -28.382  -4.790  -7.824  0.00  0.00    -0.351 N 
ATOM     53  H27 Y08 d   1     -27.520  -3.552  -6.340  0.00  0.00     0.064 H 
ATOM     54  H28 Y08 d   1     -29.246  -3.215  -6.705  0.00  0.00     0.064 H 
ATOM     55  C17 Y08 d   1     -27.106  -5.221  -8.436  0.00  0.00     0.002 C 
ATOM     56  C18 Y08 d   1     -29.522  -5.549  -7.838  0.00  0.00     0.224 C 
ATOM     57  H29 Y08 d   1     -27.213  -6.231  -8.859  0.00  0.00     0.065 H 
ATOM     58  H30 Y08 d   1     -26.308  -5.224  -7.679  0.00  0.00     0.065 H 
ATOM     59  O5  Y08 d   1     -29.444  -6.651  -8.406  0.00  0.00    -0.273 OA
ATOM     60  H22 Y08 d   1     -27.520  -4.242 -10.370  0.00  0.00     0.044 H 
BRANCH  56  61
ATOM     61  C19 Y08 d   1     -30.742  -5.150  -6.953  0.00  0.00     0.024 A 
ATOM     62  C20 Y08 d   1     -32.143  -5.708  -7.448  0.00  0.00    -0.053 A 
ATOM     63  C21 Y08 d   1     -31.907  -4.219  -7.185  0.00  0.00    -0.053 A 
ATOM     64  H32 Y08 d   1     -32.777  -6.298  -6.770  0.00  0.00     0.034 H 
ATOM     65  H33 Y08 d   1     -32.261  -6.079  -8.477  0.00  0.00     0.034 H 
ATOM     66  H34 Y08 d   1     -31.879  -3.517  -8.032  0.00  0.00     0.034 H 
ATOM     67  H35 Y08 d   1     -32.395  -3.737  -6.325  0.00  0.00     0.034 H 
ATOM     68  H31 Y08 d   1     -30.427  -5.262  -5.905  0.00  0.00     0.054 H 
ENDBRANCH  56  61
ENDBRANCH  41  44
ENDBRANCH  38  41
ENDBRANCH   1  37
TORSDOF 17
