REMARK  15 active torsions:
REMARK  status: ('A' for Active; 'I' for Inactive)
REMARK       I    between atoms: C11_17  and  N_1 
REMARK    1  A    between atoms: N_1  and  C12_18 
REMARK    2  A    between atoms: C04_10  and  O1_2 
REMARK    3  A    between atoms: C06_12  and  O2_3 
REMARK    4  A    between atoms: C05_11  and  O3_4 
REMARK    5  A    between atoms: C07_13  and  O5_6 
REMARK    6  A    between atoms: O5_6  and  C21_27 
REMARK    7  A    between atoms: C02_8  and  C01_7 
REMARK    8  A    between atoms: C01_7  and  C08_14 
REMARK    9  A    between atoms: C01_7  and  C09_15 
REMARK   10  A    between atoms: C01_7  and  C10_16 
REMARK   11  A    between atoms: C04_10  and  C03_9 
REMARK   12  A    between atoms: C05_11  and  C04_10 
REMARK   13  A    between atoms: C06_12  and  C05_11 
REMARK   14  A    between atoms: C07_13  and  C06_12 
REMARK   15  A    between atoms: C07_13  and  C11_17 
ROOT
ATOM      1  C06 Y10 d   1      25.164  -0.964  12.927  0.00  0.00     0.096 C 
ATOM      2  H9  Y10 d   1      25.343  -0.406  11.996  0.00  0.00     0.091 H 
ENDROOT
BRANCH   1   3
ATOM      3  O2  Y10 d   1      26.373  -1.636  13.352  0.00  0.00    -0.390 OA
ATOM      4  H3  Y10 d   1      26.212  -2.086  14.173  0.00  0.00     0.210 HD
ENDBRANCH   1   3
BRANCH   1   5
ATOM      5  C05 Y10 d   1      24.819   0.028  14.046  0.00  0.00     0.091 C 
ATOM      6  H8  Y10 d   1      23.777   0.367  13.948  0.00  0.00     0.091 H 
BRANCH   5   7
ATOM      7  O3  Y10 d   1      24.988  -0.668  15.329  0.00  0.00    -0.390 OA
ATOM      8  H4  Y10 d   1      24.388  -1.404  15.370  0.00  0.00     0.210 HD
ENDBRANCH   5   7
BRANCH   5   9
ATOM      9  C04 Y10 d   1      25.765   1.236  13.913  0.00  0.00     0.079 C 
ATOM     10  H7  Y10 d   1      26.808   0.927  13.748  0.00  0.00     0.093 H 
BRANCH   9  11
ATOM     11  O1  Y10 d   1      25.592   1.926  15.221  0.00  0.00    -0.389 OA
ATOM     12  H2  Y10 d   1      26.099   2.729  15.223  0.00  0.00     0.210 HD
ENDBRANCH   9  11
BRANCH   9  13
ATOM     13  C03 Y10 d   1      25.287   2.131  12.776  0.00  0.00    -0.076 C 
ATOM     14  C02 Y10 d   1      26.154   2.277  11.763  0.00  0.00    -0.097 C 
ATOM     15  H5  Y10 d   1      27.138   1.820  11.862  0.00  0.00     0.077 H 
ATOM     16  H6  Y10 d   1      24.312   2.617  12.785  0.00  0.00     0.080 H 
BRANCH  14  17
ATOM     17  C01 Y10 d   1      25.849   3.037  10.492  0.00  0.00    -0.034 C 
BRANCH  17  18
ATOM     18  C08 Y10 d   1      24.496   3.740  10.512  0.00  0.00    -0.066 C 
ATOM     19  H11 Y10 d   1      24.344   4.269   9.560  0.00  0.00     0.028 H 
ATOM     20  H12 Y10 d   1      24.470   4.462  11.341  0.00  0.00     0.028 H 
ATOM     21  H13 Y10 d   1      23.698   2.995  10.649  0.00  0.00     0.028 H 
ENDBRANCH  17  18
BRANCH  17  22
ATOM     22  C09 Y10 d   1      25.856   2.012   9.361  0.00  0.00    -0.066 C 
ATOM     23  H14 Y10 d   1      26.828   1.498   9.338  0.00  0.00     0.028 H 
ATOM     24  H15 Y10 d   1      25.688   2.523   8.402  0.00  0.00     0.028 H 
ATOM     25  H16 Y10 d   1      25.056   1.275   9.529  0.00  0.00     0.028 H 
ENDBRANCH  17  22
BRANCH  17  26
ATOM     26  C10 Y10 d   1      26.955   4.074  10.227  0.00  0.00    -0.066 C 
ATOM     27  H17 Y10 d   1      26.960   4.819  11.036  0.00  0.00     0.028 H 
ATOM     28  H18 Y10 d   1      26.764   4.576   9.267  0.00  0.00     0.028 H 
ATOM     29  H19 Y10 d   1      27.931   3.568  10.188  0.00  0.00     0.028 H 
ENDBRANCH  17  26
ENDBRANCH  14  17
ENDBRANCH   9  13
ENDBRANCH   5   9
ENDBRANCH   1   5
BRANCH   1  30
ATOM     30  C07 Y10 d   1      24.074  -2.046  12.655  0.00  0.00     0.141 C 
ATOM     31  H10 Y10 d   1      24.076  -2.856  13.399  0.00  0.00     0.102 H 
BRANCH  30  32
ATOM     32  O5  Y10 d   1      22.875  -1.299  12.691  0.00  0.00    -0.379 OA
BRANCH  32  33
ATOM     33  C21 Y10 d   1      21.735  -2.177  12.785  0.00  0.00     0.005 C 
ATOM     34  H29 Y10 d   1      20.812  -1.579  12.812  0.00  0.00     0.066 H 
ATOM     35  H30 Y10 d   1      21.809  -2.777  13.704  0.00  0.00     0.066 H 
ATOM     36  H31 Y10 d   1      21.713  -2.845  11.911  0.00  0.00     0.066 H 
ENDBRANCH  32  33
ENDBRANCH  30  32
BRANCH  30  37
ATOM     37  C11 Y10 d   1      24.342  -2.567  11.290  0.00  0.00     0.249 C 
ATOM     38  N   Y10 d   1      25.024  -3.711  11.194  0.00  0.00    -0.354 N 
ATOM     39  H1  Y10 d   1      25.232  -4.213  12.033  0.00  0.00     0.163 HD
ATOM     40  O4  Y10 d   1      23.987  -1.890  10.295  0.00  0.00    -0.271 OA
BRANCH  38  41
ATOM     41  C12 Y10 d   1      25.471  -4.252   9.948  0.00  0.00     0.020 C 
ATOM     42  C13 Y10 d   1      26.163  -5.605  10.241  0.00  0.00    -0.021 C 
ATOM     43  C14 Y10 d   1      27.213  -5.704   9.200  0.00  0.00    -0.050 A 
ATOM     44  H21 Y10 d   1      25.448  -6.436  10.155  0.00  0.00     0.043 H 
ATOM     45  H22 Y10 d   1      26.608  -5.607  11.247  0.00  0.00     0.043 H 
ATOM     46  C15 Y10 d   1      27.442  -4.488   8.619  0.00  0.00    -0.050 A 
ATOM     47  C17 Y10 d   1      27.943  -6.894   8.875  0.00  0.00    -0.076 A 
ATOM     48  C16 Y10 d   1      26.502  -3.437   9.184  0.00  0.00    -0.021 C 
ATOM     49  C20 Y10 d   1      28.391  -4.308   7.593  0.00  0.00    -0.076 A 
ATOM     50  H23 Y10 d   1      27.038  -2.752   9.857  0.00  0.00     0.043 H 
ATOM     51  H24 Y10 d   1      26.027  -2.861   8.377  0.00  0.00     0.043 H 
ATOM     52  C19 Y10 d   1      29.124  -5.481   7.272  0.00  0.00    -0.082 A 
ATOM     53  H28 Y10 d   1      28.547  -3.359   7.093  0.00  0.00     0.084 H 
ATOM     54  C18 Y10 d   1      28.953  -6.741   7.884  0.00  0.00    -0.082 A 
ATOM     55  H27 Y10 d   1      29.875  -5.402   6.495  0.00  0.00     0.083 H 
ATOM     56  H26 Y10 d   1      29.581  -7.579   7.604  0.00  0.00     0.083 H 
ATOM     57  H25 Y10 d   1      27.740  -7.846   9.352  0.00  0.00     0.084 H 
ATOM     58  H20 Y10 d   1      24.592  -4.401   9.304  0.00  0.00     0.073 H 
ENDBRANCH  38  41
ENDBRANCH  30  37
ENDBRANCH   1  30
TORSDOF 15
