REMARK  15 active torsions:
REMARK  status: ('A' for Active; 'I' for Inactive)
REMARK       I    between atoms: C11_17  and  N_1 
REMARK    1  A    between atoms: N_1  and  C12_18 
REMARK    2  A    between atoms: C04_10  and  O1_2 
REMARK    3  A    between atoms: C06_12  and  O2_3 
REMARK    4  A    between atoms: C05_11  and  O3_4 
REMARK    5  A    between atoms: C07_13  and  O5_6 
REMARK    6  A    between atoms: O5_6  and  C21_27 
REMARK    7  A    between atoms: C02_8  and  C01_7 
REMARK    8  A    between atoms: C01_7  and  C08_14 
REMARK    9  A    between atoms: C01_7  and  C09_15 
REMARK   10  A    between atoms: C01_7  and  C10_16 
REMARK   11  A    between atoms: C04_10  and  C03_9 
REMARK   12  A    between atoms: C05_11  and  C04_10 
REMARK   13  A    between atoms: C06_12  and  C05_11 
REMARK   14  A    between atoms: C07_13  and  C06_12 
REMARK   15  A    between atoms: C07_13  and  C11_17 
ROOT
ATOM      1  C06 Y10 d   1     -33.947 -27.779  -2.911  0.00  0.00     0.096 C 
ATOM      2  H9  Y10 d   1     -34.492 -28.015  -3.837  0.00  0.00     0.091 H 
ENDROOT
BRANCH   1   3
ATOM      3  O2  Y10 d   1     -34.860 -27.836  -1.711  0.00  0.00    -0.390 OA
ATOM      4  H3  Y10 d   1     -34.362 -27.642  -0.926  0.00  0.00     0.210 HD
ENDBRANCH   1   3
BRANCH   1   5
ATOM      5  C05 Y10 d   1     -32.873 -28.842  -2.645  0.00  0.00     0.091 C 
ATOM      6  H8  Y10 d   1     -32.038 -28.675  -3.341  0.00  0.00     0.091 H 
BRANCH   5   7
ATOM      7  O3  Y10 d   1     -32.380 -28.800  -1.260  0.00  0.00    -0.390 OA
ATOM      8  H4  Y10 d   1     -32.019 -27.940  -1.080  0.00  0.00     0.210 HD
ENDBRANCH   5   7
BRANCH   5   9
ATOM      9  C04 Y10 d   1     -33.435 -30.274  -2.830  0.00  0.00     0.079 C 
ATOM     10  H7  Y10 d   1     -34.404 -30.325  -2.312  0.00  0.00     0.093 H 
BRANCH   9  11
ATOM     11  O1  Y10 d   1     -32.565 -31.272  -2.230  0.00  0.00    -0.389 OA
ATOM     12  H2  Y10 d   1     -32.434 -31.066  -1.312  0.00  0.00     0.210 HD
ENDBRANCH   9  11
BRANCH   9  13
ATOM     13  C03 Y10 d   1     -33.683 -30.556  -4.317  0.00  0.00    -0.076 C 
ATOM     14  C02 Y10 d   1     -34.901 -30.645  -4.883  0.00  0.00    -0.097 C 
ATOM     15  H5  Y10 d   1     -35.750 -30.530  -4.211  0.00  0.00     0.077 H 
ATOM     16  H6  Y10 d   1     -32.814 -30.694  -4.959  0.00  0.00     0.080 H 
BRANCH  14  17
ATOM     17  C01 Y10 d   1     -35.237 -30.887  -6.349  0.00  0.00    -0.034 C 
BRANCH  17  18
ATOM     18  C08 Y10 d   1     -36.173 -32.094  -6.559  0.00  0.00    -0.066 C 
ATOM     19  H11 Y10 d   1     -36.378 -32.217  -7.633  0.00  0.00     0.028 H 
ATOM     20  H12 Y10 d   1     -37.118 -31.923  -6.023  0.00  0.00     0.028 H 
ATOM     21  H13 Y10 d   1     -35.691 -33.004  -6.171  0.00  0.00     0.028 H 
ENDBRANCH  17  18
BRANCH  17  22
ATOM     22  C09 Y10 d   1     -33.984 -31.056  -7.196  0.00  0.00    -0.066 C 
ATOM     23  H14 Y10 d   1     -33.319 -30.193  -7.043  0.00  0.00     0.028 H 
ATOM     24  H15 Y10 d   1     -34.265 -31.119  -8.258  0.00  0.00     0.028 H 
ATOM     25  H16 Y10 d   1     -33.462 -31.978  -6.899  0.00  0.00     0.028 H 
ENDBRANCH  17  22
BRANCH  17  26
ATOM     26  C10 Y10 d   1     -35.965 -29.637  -6.813  0.00  0.00    -0.066 C 
ATOM     27  H17 Y10 d   1     -36.875 -29.498  -6.211  0.00  0.00     0.028 H 
ATOM     28  H18 Y10 d   1     -36.239 -29.744  -7.873  0.00  0.00     0.028 H 
ATOM     29  H19 Y10 d   1     -35.308 -28.763  -6.691  0.00  0.00     0.028 H 
ENDBRANCH  17  26
ENDBRANCH  14  17
ENDBRANCH   9  13
ENDBRANCH   5   9
ENDBRANCH   1   5
BRANCH   1  30
ATOM     30  C07 Y10 d   1     -33.379 -26.367  -2.999  0.00  0.00     0.141 C 
ATOM     31  H10 Y10 d   1     -33.152 -25.940  -2.011  0.00  0.00     0.102 H 
BRANCH  30  32
ATOM     32  O5  Y10 d   1     -32.196 -26.454  -3.829  0.00  0.00    -0.379 OA
BRANCH  32  33
ATOM     33  C21 Y10 d   1     -31.507 -25.174  -3.835  0.00  0.00     0.005 C 
ATOM     34  H29 Y10 d   1     -30.609 -25.244  -4.466  0.00  0.00     0.066 H 
ATOM     35  H30 Y10 d   1     -31.213 -24.911  -2.808  0.00  0.00     0.066 H 
ATOM     36  H31 Y10 d   1     -32.177 -24.399  -4.235  0.00  0.00     0.066 H 
ENDBRANCH  32  33
ENDBRANCH  30  32
BRANCH  30  37
ATOM     37  C11 Y10 d   1     -34.448 -25.571  -3.733  0.00  0.00     0.249 C 
ATOM     38  N   Y10 d   1     -35.181 -24.721  -2.960  0.00  0.00    -0.354 N 
ATOM     39  H1  Y10 d   1     -34.951 -24.596  -1.995  0.00  0.00     0.163 HD
ATOM     40  O4  Y10 d   1     -34.647 -25.759  -4.953  0.00  0.00    -0.271 OA
BRANCH  38  41
ATOM     41  C12 Y10 d   1     -36.302 -23.994  -3.546  0.00  0.00     0.020 C 
ATOM     42  C13 Y10 d   1     -37.174 -23.498  -2.393  0.00  0.00    -0.021 C 
ATOM     43  C14 Y10 d   1     -37.674 -22.215  -3.008  0.00  0.00    -0.050 A 
ATOM     44  H21 Y10 d   1     -36.587 -23.316  -1.481  0.00  0.00     0.043 H 
ATOM     45  H22 Y10 d   1     -37.995 -24.195  -2.168  0.00  0.00     0.043 H 
ATOM     46  C15 Y10 d   1     -36.934 -21.850  -4.116  0.00  0.00    -0.050 A 
ATOM     47  C17 Y10 d   1     -38.764 -21.470  -2.549  0.00  0.00    -0.076 A 
ATOM     48  C16 Y10 d   1     -35.806 -22.826  -4.418  0.00  0.00    -0.021 C 
ATOM     49  C20 Y10 d   1     -37.197 -20.662  -4.829  0.00  0.00    -0.076 A 
ATOM     50  H23 Y10 d   1     -35.758 -23.092  -5.484  0.00  0.00     0.043 H 
ATOM     51  H24 Y10 d   1     -34.827 -22.447  -4.090  0.00  0.00     0.043 H 
ATOM     52  C19 Y10 d   1     -38.281 -19.869  -4.386  0.00  0.00    -0.082 A 
ATOM     53  H28 Y10 d   1     -36.594 -20.369  -5.681  0.00  0.00     0.084 H 
ATOM     54  C18 Y10 d   1     -39.027 -20.285  -3.259  0.00  0.00    -0.082 A 
ATOM     55  H27 Y10 d   1     -38.537 -18.952  -4.905  0.00  0.00     0.083 H 
ATOM     56  H26 Y10 d   1     -39.845 -19.657  -2.925  0.00  0.00     0.083 H 
ATOM     57  H25 Y10 d   1     -39.365 -21.784  -1.704  0.00  0.00     0.084 H 
ATOM     58  H20 Y10 d   1     -36.889 -24.677  -4.177  0.00  0.00     0.073 H 
ENDBRANCH  38  41
ENDBRANCH  30  37
ENDBRANCH   1  30
TORSDOF 15
