REMARK WARNING: 32 MAX_TORS EXCEEDED!!!
REMARK  50 active torsions:
REMARK  status: ('A' for Active; 'I' for Inactive)
REMARK    1  A    between atoms: N_1  and  CA_2 
REMARK    2  A    between atoms: CA_2  and  C_3 
REMARK    3  A    between atoms: CA_2  and  CB_5 
REMARK       I    between atoms: C_3  and  N_9 
REMARK    4  A    between atoms: CB_5  and  CG_6 
REMARK    5  A    between atoms: CG_6  and  CD1_7 
REMARK    6  A    between atoms: CG_6  and  CD2_8 
REMARK    7  A    between atoms: N_9  and  CA_10 
REMARK    8  A    between atoms: CA_10  and  C_11 
REMARK    9  A    between atoms: CA_10  and  CB_13 
REMARK       I    between atoms: C_11  and  N_17 
REMARK   10  A    between atoms: CB_13  and  CG_14 
REMARK       I    between atoms: CG_14  and  ND2_16 
REMARK   11  A    between atoms: CA_18  and  C_19 
REMARK       I    between atoms: C_19  and  N_24 
REMARK   12  A    between atoms: N_24  and  CA_25 
REMARK   13  A    between atoms: CA_25  and  C_26 
REMARK   14  A    between atoms: CA_25  and  CB_28 
REMARK       I    between atoms: C_26  and  N_32 
REMARK   15  A    between atoms: CB_28  and  CG_29 
REMARK       I    between atoms: CG_29  and  ND2_31 
REMARK   16  A    between atoms: N_32  and  CA_33 
REMARK   17  A    between atoms: CA_33  and  C_34 
REMARK   18  A    between atoms: CA_33  and  CB_36 
REMARK       I    between atoms: C_34  and  N_37 
REMARK   19  A    between atoms: N_37  and  CA_38 
REMARK   20  A    between atoms: CA_38  and  C_39 
REMARK   21  A    between atoms: CA_38  and  CB_41 
REMARK       I    between atoms: C_39  and  N_46 
REMARK   22  A    between atoms: CB_41  and  CG_42 
REMARK   23  A    between atoms: CG_42  and  CD_43 
REMARK   24  A    between atoms: CD_43  and  CE_44 
REMARK   25  A    between atoms: CE_44  and  NZ_45 
REMARK   26  A    between atoms: N_46  and  CA_47 
REMARK   27  A    between atoms: CA_47  and  C_48 
REMARK   28  A    between atoms: CA_47  and  CB_50 
REMARK       I    between atoms: C_48  and  N_53 
REMARK   29  A    between atoms: CB_50  and  CG1_51 
REMARK   30  A    between atoms: CB_50  and  CG2_52 
REMARK   31  A    between atoms: N_53  and  CA_54 
REMARK   32  A    between atoms: CA_54  and  C_55 
REMARK   33  A    between atoms: CA_54  and  CB_57 
REMARK       I    between atoms: C_55  and  N_67 
REMARK   34  A    between atoms: CB_57  and  CG_58 
REMARK   35  A    between atoms: N_67  and  CA_68 
REMARK   36  A    between atoms: CA_68  and  C_69 
REMARK   37  A    between atoms: CA_68  and  CB_71 
REMARK       I    between atoms: C_69  and  N_76 
REMARK   38  A    between atoms: CB_71  and  CG_72 
REMARK   39  A    between atoms: CG_72  and  CD_73 
REMARK       I    between atoms: CD_73  and  NE2_75 
REMARK   40  A    between atoms: N_76  and  CA_77 
REMARK   41  A    between atoms: CA_77  and  C_78 
REMARK   42  A    between atoms: CA_77  and  CB_80 
REMARK       I    between atoms: C_78  and  N_85 
REMARK   43  A    between atoms: CB_80  and  CG_81 
REMARK   44  A    between atoms: CG_81  and  CD_82 
REMARK   45  A    between atoms: N_85  and  CA_86 
REMARK   46  A    between atoms: CA_86  and  C_87 
REMARK   47  A    between atoms: CA_86  and  CB_89 
REMARK   48  A    between atoms: CB_89  and  CG1_90 
REMARK   49  A    between atoms: CB_89  and  CG2_91 
REMARK   50  A    between atoms: CG1_90  and  CD1_92 
ROOT
ATOM      1  C   LYS d   1     -11.772   6.155   6.556  0.00  0.00     0.241 C 
ATOM      2  O   LYS d   1     -10.796   5.796   7.212  0.00  0.00    -0.271 OA
ATOM      3  N   VAL d   1     -12.993   6.260   7.074  0.00  0.00    -0.346 N 
ATOM      4  H   VAL d   1     -13.756   6.561   6.468  0.00  0.00     0.163 HD
ENDROOT
BRANCH   1   5
ATOM      5  CA  LYS d   1     -11.634   6.477   5.059  0.00  0.00     0.089 C 
ATOM      6  H   LYS d   1     -12.530   7.023   4.764  0.00  0.00     0.087 H 
BRANCH   5   7
ATOM      7  N   LYS d   1     -10.481   7.335   4.774  0.00  0.00    -0.346 N 
ATOM      8  C   ALA d   1     -10.372   8.576   5.245  0.00  0.00     0.240 C 
ATOM      9  O   ALA d   1     -11.263   9.134   5.887  0.00  0.00    -0.271 OA
ATOM     10  H   LYS d   1      -9.730   6.966   4.190  0.00  0.00     0.163 HD
BRANCH   8  11
ATOM     11  CA  ALA d   1      -9.048   9.292   4.957  0.00  0.00     0.086 C 
ATOM     12  H   ALA d   1      -8.689   8.909   4.002  0.00  0.00     0.086 H 
BRANCH  11  13
ATOM     13  N   ALA d   1      -9.194  10.738   4.794  0.00  0.00    -0.346 N 
ATOM     14  C   ASN d   1     -10.036  11.259   3.907  0.00  0.00     0.241 C 
ATOM     15  O   ASN d   1     -10.754  10.563   3.192  0.00  0.00    -0.271 OA
ATOM     16  H   ALA d   1      -8.636  11.363   5.376  0.00  0.00     0.163 HD
BRANCH  14  17
ATOM     17  CA  ASN d   1     -10.086  12.787   3.791  0.00  0.00     0.097 C 
ATOM     18  H   ASN d   1     -11.067  13.077   4.167  0.00  0.00     0.088 H 
BRANCH  17  19
ATOM     19  N   ASN d   1      -9.123  13.491   4.633  0.00  0.00    -0.346 N 
ATOM     20  C   PRO d   1      -9.426  13.851   5.879  0.00  0.00     0.241 C 
ATOM     21  O   PRO d   1     -10.540  13.679   6.375  0.00  0.00    -0.271 OA
ATOM     22  H   ASN d   1      -8.200  13.711   4.260  0.00  0.00     0.163 HD
BRANCH  20  23
ATOM     23  CA  PRO d   1      -8.320  14.493   6.715  0.00  0.00     0.091 C 
ATOM     24  N   PRO d   1      -7.003  14.433   6.088  0.00  0.00    -0.337 N 
ATOM     25  C   ASN d   1      -6.377  13.246   5.889  0.00  0.00     0.243 C 
ATOM     26  CD  PRO d   1      -6.498  15.776   5.747  0.00  0.00    -0.001 C 
ATOM     27  O   ASN d   1      -6.887  12.160   6.189  0.00  0.00    -0.271 OA
ATOM     28  CG  PRO d   1      -7.706  16.648   5.856  0.00  0.00    -0.048 C 
ATOM     29  H   PRO d   1      -6.048  15.811   4.755  0.00  0.00     0.064 H 
ATOM     30  H   PRO d   1      -5.693  16.097   6.408  0.00  0.00     0.064 H 
ATOM     31  CB  PRO d   1      -8.569  16.001   6.885  0.00  0.00    -0.036 C 
ATOM     32  H   PRO d   1      -7.440  17.667   6.139  0.00  0.00     0.035 H 
ATOM     33  H   PRO d   1      -8.222  16.739   4.900  0.00  0.00     0.035 H 
ATOM     34  H   PRO d   1      -8.325  16.342   7.891  0.00  0.00     0.036 H 
ATOM     35  H   PRO d   1      -9.620  16.256   6.752  0.00  0.00     0.036 H 
ATOM     36  H   PRO d   1      -8.338  13.933   7.650  0.00  0.00     0.087 H 
BRANCH  25  37
ATOM     37  CA  ASN d   1      -4.989  13.276   5.248  0.00  0.00     0.097 C 
ATOM     38  H   ASN d   1      -4.852  14.293   4.882  0.00  0.00     0.088 H 
BRANCH  37  39
ATOM     39  N   ASN d   1      -3.910  13.011   6.193  0.00  0.00    -0.346 N 
ATOM     40  C   LEU d   1      -3.129  13.979   6.660  0.00  0.00     0.249 C 
ATOM     41  O   LEU d   1      -3.331  15.171   6.436  0.00  0.00    -0.271 OA
ATOM     42  H   ASN d   1      -3.750  12.053   6.505  0.00  0.00     0.163 HD
BRANCH  40  43
ATOM     43  CA  LEU d   1      -1.970  13.544   7.545  0.00  0.00     0.176 C 
ATOM     44  H   LEU d   1      -1.846  12.465   7.450  0.00  0.00     0.099 H 
BRANCH  43  45
ATOM     45  N   LEU d   1      -0.684  14.174   7.118  0.00  0.00    -0.066 N 
ATOM     46  H   LEU d   1      -0.491  13.926   6.148  0.00  0.00     0.275 HD
ATOM     47  H   LEU d   1      -0.759  15.188   7.202  0.00  0.00     0.275 HD
ATOM     48  H   LEU d   1       0.072  13.837   7.713  0.00  0.00     0.275 HD
ENDBRANCH  43  45
BRANCH  43  49
ATOM     49  CB  LEU d   1      -2.287  13.900   9.002  0.00  0.00    -0.028 C 
ATOM     50  H   LEU d   1      -3.322  13.585   9.135  0.00  0.00     0.037 H 
ATOM     51  H   LEU d   1      -2.011  14.951   9.086  0.00  0.00     0.037 H 
BRANCH  49  52
ATOM     52  CG  LEU d   1      -1.538  13.222  10.152  0.00  0.00    -0.059 C 
ATOM     53  H   LEU d   1      -2.104  13.400  11.066  0.00  0.00     0.038 H 
BRANCH  52  54
ATOM     54  CD1 LEU d   1      -1.468  11.702   9.947  0.00  0.00    -0.073 C 
ATOM     55  H   LEU d   1      -0.860  11.483   9.070  0.00  0.00     0.028 H 
ATOM     56  H   LEU d   1      -1.021  11.238  10.826  0.00  0.00     0.028 H 
ATOM     57  H   LEU d   1      -2.474  11.310   9.800  0.00  0.00     0.028 H 
ENDBRANCH  52  54
BRANCH  52  58
ATOM     58  CD2 LEU d   1      -0.150  13.838  10.365  0.00  0.00    -0.073 C 
ATOM     59  H   LEU d   1       0.311  13.396  11.248  0.00  0.00     0.028 H 
ATOM     60  H   LEU d   1       0.472  13.640   9.492  0.00  0.00     0.028 H 
ATOM     61  H   LEU d   1      -0.249  14.914  10.506  0.00  0.00     0.028 H 
ENDBRANCH  52  58
ENDBRANCH  49  52
ENDBRANCH  43  49
ENDBRANCH  40  43
ENDBRANCH  37  39
BRANCH  37  62
ATOM     62  CB  ASN d   1      -4.906  12.287   4.079  0.00  0.00     0.036 C 
ATOM     63  H   ASN d   1      -4.755  11.292   4.497  0.00  0.00     0.051 H 
ATOM     64  H   ASN d   1      -4.090  12.607   3.431  0.00  0.00     0.051 H 
BRANCH  62  65
ATOM     65  CG  ASN d   1      -6.172  12.248   3.241  0.00  0.00     0.217 C 
ATOM     66  OD1 ASN d   1      -6.763  13.283   2.925  0.00  0.00    -0.274 OA
ATOM     67  ND2 ASN d   1      -6.587  11.042   2.863  0.00  0.00    -0.370 N 
ATOM     68  H   ASN d   1      -7.425  10.948   2.289  0.00  0.00     0.159 HD
ATOM     69  H   ASN d   1      -6.067  10.212   3.147  0.00  0.00     0.159 HD
ENDBRANCH  62  65
ENDBRANCH  37  62
ENDBRANCH  25  37
ENDBRANCH  20  23
ENDBRANCH  17  19
BRANCH  17  70
ATOM     70  CB  ASN d   1      -9.936  13.219   2.325  0.00  0.00     0.036 C 
ATOM     71  H   ASN d   1     -10.682  12.682   1.739  0.00  0.00     0.051 H 
ATOM     72  H   ASN d   1      -8.917  12.994   2.011  0.00  0.00     0.051 H 
BRANCH  70  73
ATOM     73  CG  ASN d   1     -10.168  14.703   2.130  0.00  0.00     0.217 C 
ATOM     74  OD1 ASN d   1     -11.277  15.204   2.330  0.00  0.00    -0.274 OA
ATOM     75  ND2 ASN d   1      -9.119  15.419   1.735  0.00  0.00    -0.370 N 
ATOM     76  H   ASN d   1      -9.214  16.424   1.586  0.00  0.00     0.159 HD
ATOM     77  H   ASN d   1      -8.219  14.963   1.581  0.00  0.00     0.159 HD
ENDBRANCH  70  73
ENDBRANCH  17  70
ENDBRANCH  14  17
ENDBRANCH  11  13
BRANCH  11  78
ATOM     78  CB  ALA d   1      -8.032   8.982   6.057  0.00  0.00    -0.049 C 
ATOM     79  H   ALA d   1      -7.066   9.410   5.789  0.00  0.00     0.030 H 
ATOM     80  H   ALA d   1      -8.374   9.414   6.998  0.00  0.00     0.030 H 
ATOM     81  H   ALA d   1      -7.935   7.902   6.166  0.00  0.00     0.030 H 
ENDBRANCH  11  78
ENDBRANCH   8  11
ENDBRANCH   5   7
BRANCH   5  82
ATOM     82  CB  LYS d   1     -11.514   5.179   4.258  0.00  0.00    -0.038 C 
ATOM     83  H   LYS d   1     -11.034   4.448   4.909  0.00  0.00     0.036 H 
ATOM     84  H   LYS d   1     -10.959   5.417   3.351  0.00  0.00     0.036 H 
BRANCH  82  85
ATOM     85  CG  LYS d   1     -12.839   4.577   3.820  0.00  0.00    -0.061 C 
ATOM     86  H   LYS d   1     -12.700   4.089   2.855  0.00  0.00     0.033 H 
ATOM     87  H   LYS d   1     -13.580   5.374   3.751  0.00  0.00     0.033 H 
BRANCH  85  88
ATOM     88  CD  LYS d   1     -13.323   3.548   4.820  0.00  0.00    -0.043 C 
ATOM     89  H   LYS d   1     -14.396   3.675   4.962  0.00  0.00     0.035 H 
ATOM     90  H   LYS d   1     -12.788   3.692   5.759  0.00  0.00     0.035 H 
BRANCH  88  91
ATOM     91  CE  LYS d   1     -13.059   2.140   4.317  0.00  0.00     0.080 C 
ATOM     92  H   LYS d   1     -12.957   1.465   5.167  0.00  0.00     0.075 H 
ATOM     93  H   LYS d   1     -12.140   2.131   3.731  0.00  0.00     0.075 H 
BRANCH  91  94
ATOM     94  NZ  LYS d   1     -14.191   1.696   3.467  0.00  0.00    -0.079 N 
ATOM     95  H   LYS d   1     -14.011   0.750   3.130  0.00  0.00     0.274 HD
ATOM     96  H   LYS d   1     -15.051   1.705   4.016  0.00  0.00     0.274 HD
ATOM     97  H   LYS d   1     -14.287   2.329   2.672  0.00  0.00     0.274 HD
ENDBRANCH  91  94
ENDBRANCH  88  91
ENDBRANCH  85  88
ENDBRANCH  82  85
ENDBRANCH   5  82
ENDBRANCH   1   5
BRANCH   3  98
ATOM     98  CA  VAL d   1     -13.292   5.960   8.488  0.00  0.00     0.092 C 
ATOM     99  H   VAL d   1     -12.537   6.492   9.067  0.00  0.00     0.088 H 
BRANCH  98 100
ATOM    100  C   VAL d   1     -13.176   4.469   8.832  0.00  0.00     0.241 C 
ATOM    101  O   VAL d   1     -13.772   3.606   8.159  0.00  0.00    -0.271 OA
ATOM    102  N   TRP d   1     -12.412   4.180   9.885  0.00  0.00    -0.346 N 
ATOM    103  H   TRP d   1     -11.909   4.941  10.341  0.00  0.00     0.163 HD
BRANCH 102 104
ATOM    104  CA  TRP d   1     -12.257   2.824  10.422  0.00  0.00     0.093 C 
ATOM    105  H   TRP d   1     -12.071   2.168   9.571  0.00  0.00     0.088 H 
BRANCH 104 106
ATOM    106  C   TRP d   1     -13.523   2.333  11.142  0.00  0.00     0.241 C 
ATOM    107  O   TRP d   1     -14.137   3.071  11.932  0.00  0.00    -0.271 OA
ATOM    108  N   GLN d   1     -13.901   1.085  10.872  0.00  0.00    -0.346 N 
ATOM    109  H   GLN d   1     -13.430   0.576  10.125  0.00  0.00     0.163 HD
BRANCH 108 110
ATOM    110  CA  GLN d   1     -14.977   0.421  11.619  0.00  0.00     0.090 C 
ATOM    111  H   GLN d   1     -15.375   1.110  12.364  0.00  0.00     0.087 H 
BRANCH 110 112
ATOM    112  C   GLN d   1     -14.410  -0.809  12.301  0.00  0.00     0.241 C 
ATOM    113  O   GLN d   1     -13.834  -1.652  11.642  0.00  0.00    -0.271 OA
ATOM    114  N   GLU d   1     -14.566  -0.910  13.616  0.00  0.00    -0.346 N 
ATOM    115  H   GLU d   1     -15.177  -0.251  14.098  0.00  0.00     0.163 HD
BRANCH 114 116
ATOM    116  CA  GLU d   1     -13.879  -1.949  14.392  0.00  0.00     0.090 C 
ATOM    117  H   GLU d   1     -12.947  -2.160  13.868  0.00  0.00     0.087 H 
BRANCH 116 118
ATOM    118  C   GLU d   1     -14.665  -3.259  14.459  0.00  0.00     0.241 C 
ATOM    119  O   GLU d   1     -15.896  -3.253  14.433  0.00  0.00    -0.271 OA
ATOM    120  N   ILE d   1     -13.947  -4.378  14.554  0.00  0.00    -0.344 N 
ATOM    121  H   ILE d   1     -12.934  -4.329  14.448  0.00  0.00     0.163 HD
BRANCH 120 122
ATOM    122  CA  ILE d   1     -14.574  -5.674  14.806  0.00  0.00     0.099 C 
ATOM    123  H   ILE d   1     -15.650  -5.502  14.802  0.00  0.00     0.090 H 
BRANCH 122 124
ATOM    124  C   ILE d   1     -14.201  -6.233  16.182  0.00  0.00     0.197 C 
ATOM    125  O   ILE d   1     -13.048  -6.153  16.613  0.00  0.00    -0.646 OA
ATOM    126  O   ILE d   1     -15.088  -6.785  16.887  0.00  0.00    -0.646 OA
ENDBRANCH 122 124
BRANCH 122 127
ATOM    127  CB  ILE d   1     -14.263  -6.700  13.685  0.00  0.00    -0.029 C 
ATOM    128  H   ILE d   1     -13.286  -6.445  13.274  0.00  0.00     0.043 H 
BRANCH 127 129
ATOM    129  CG1 ILE d   1     -15.334  -6.640  12.591  0.00  0.00    -0.063 C 
ATOM    130  H   ILE d   1     -16.298  -6.567  13.095  0.00  0.00     0.033 H 
ATOM    131  H   ILE d   1     -15.208  -7.530  11.975  0.00  0.00     0.033 H 
BRANCH 129 132
ATOM    132  CD1 ILE d   1     -15.228  -5.442  11.663  0.00  0.00    -0.076 C 
ATOM    133  H   ILE d   1     -15.319  -4.524  12.244  0.00  0.00     0.027 H 
ATOM    134  H   ILE d   1     -14.262  -5.459  11.158  0.00  0.00     0.027 H 
ATOM    135  H   ILE d   1     -16.027  -5.486  10.923  0.00  0.00     0.027 H 
ENDBRANCH 129 132
ENDBRANCH 127 129
BRANCH 127 136
ATOM    136  CG2 ILE d   1     -14.241  -8.117  14.238  0.00  0.00    -0.070 C 
ATOM    137  H   ILE d   1     -13.473  -8.194  15.007  0.00  0.00     0.028 H 
ATOM    138  H   ILE d   1     -15.214  -8.352  14.670  0.00  0.00     0.028 H 
ATOM    139  H   ILE d   1     -14.021  -8.817  13.432  0.00  0.00     0.028 H 
ENDBRANCH 127 136
ENDBRANCH 122 127
ENDBRANCH 120 122
ENDBRANCH 116 118
BRANCH 116 140
ATOM    140  CB  GLU d   1     -13.569  -1.448  15.815  0.00  0.00    -0.029 C 
ATOM    141  H   GLU d   1     -14.525  -1.196  16.273  0.00  0.00     0.037 H 
ATOM    142  H   GLU d   1     -12.871  -0.617  15.709  0.00  0.00     0.037 H 
BRANCH 140 143
ATOM    143  CG  GLU d   1     -12.889  -2.484  16.747  0.00  0.00     0.018 C 
ATOM    144  H   GLU d   1     -13.178  -3.474  16.396  0.00  0.00     0.049 H 
ATOM    145  H   GLU d   1     -13.211  -2.264  17.765  0.00  0.00     0.049 H 
BRANCH 143 146
ATOM    146  CD  GLU d   1     -11.369  -2.425  16.731  0.00  0.00     0.172 C 
ATOM    147  OE1 GLU d   1     -10.809  -1.800  15.821  0.00  0.00    -0.648 OA
ATOM    148  OE2 GLU d   1     -10.726  -3.000  17.644  0.00  0.00    -0.648 OA
ENDBRANCH 143 146
ENDBRANCH 140 143
ENDBRANCH 116 140
ENDBRANCH 114 116
ENDBRANCH 110 112
BRANCH 110 149
ATOM    149  CB  GLN d   1     -16.122   0.025  10.687  0.00  0.00    -0.030 C 
ATOM    150  H   GLN d   1     -16.880  -0.468  11.296  0.00  0.00     0.037 H 
ATOM    151  H   GLN d   1     -15.701  -0.610   9.907  0.00  0.00     0.037 H 
BRANCH 149 152
ATOM    152  CG  GLN d   1     -16.790   1.203   9.999  0.00  0.00     0.011 C 
ATOM    153  H   GLN d   1     -16.067   1.644   9.313  0.00  0.00     0.047 H 
ATOM    154  H   GLN d   1     -17.117   1.899  10.771  0.00  0.00     0.047 H 
BRANCH 152 155
ATOM    155  CD  GLN d   1     -18.001   0.799   9.197  0.00  0.00     0.215 C 
ATOM    156  OE1 GLN d   1     -18.866   0.061   9.673  0.00  0.00    -0.274 OA
ATOM    157  NE2 GLN d   1     -18.080   1.291   7.968  0.00  0.00    -0.370 N 
ATOM    158  H   GLN d   1     -18.879   1.062   7.377  0.00  0.00     0.159 HD
ATOM    159  H   GLN d   1     -17.341   1.898   7.613  0.00  0.00     0.159 HD
ENDBRANCH 152 155
ENDBRANCH 149 152
ENDBRANCH 110 149
ENDBRANCH 108 110
ENDBRANCH 104 106
BRANCH 104 160
ATOM    160  CB  TRP d   1     -11.077   2.775  11.409  0.00  0.00    -0.012 C 
ATOM    161  H   TRP d   1     -11.277   3.494  12.203  0.00  0.00     0.044 H 
ATOM    162  H   TRP d   1     -10.168   3.000  10.852  0.00  0.00     0.044 H 
BRANCH 160 163
ATOM    163  CG  TRP d   1     -10.902   1.424  12.047  0.00  0.00    -0.028 A 
ATOM    164  CD1 TRP d   1     -11.297   1.040  13.303  0.00  0.00    -0.015 A 
ATOM    165  NE1 TRP d   1     -10.974  -0.287  13.518  0.00  0.00    -0.365 N 
ATOM    166  H   TRP d   1     -11.793   1.687  14.026  0.00  0.00     0.112 H 
ATOM    167  CE2 TRP d   1     -10.368  -0.775  12.390  0.00  0.00     0.042 A 
ATOM    168  H   TRP d   1     -11.156  -0.814  14.372  0.00  0.00     0.165 HD
ATOM    169  CD2 TRP d   1     -10.299   0.278  11.450  0.00  0.00    -0.002 A 
ATOM    170  CZ2 TRP d   1      -9.858  -2.041  12.125  0.00  0.00    -0.056 A 
ATOM    171  CE3 TRP d   1      -9.726   0.029  10.197  0.00  0.00    -0.070 A 
ATOM    172  CZ3 TRP d   1      -9.223  -1.220   9.940  0.00  0.00    -0.082 A 
ATOM    173  H   TRP d   1      -9.681   0.813   9.441  0.00  0.00     0.084 H 
ATOM    174  CH2 TRP d   1      -9.295  -2.245  10.897  0.00  0.00    -0.081 A 
ATOM    175  H   TRP d   1      -8.758  -1.421   8.975  0.00  0.00     0.083 H 
ATOM    176  H   TRP d   1      -8.892  -3.228  10.654  0.00  0.00     0.083 H 
ATOM    177  H   TRP d   1      -9.905  -2.838  12.867  0.00  0.00     0.086 H 
ENDBRANCH 160 163
ENDBRANCH 104 160
ENDBRANCH 102 104
ENDBRANCH  98 100
BRANCH  98 178
ATOM    178  CB  VAL d   1     -14.714   6.456   8.868  0.00  0.00    -0.033 C 
ATOM    179  H   VAL d   1     -15.430   5.969   8.206  0.00  0.00     0.042 H 
BRANCH 178 180
ATOM    180  CG1 VAL d   1     -15.078   6.067  10.308  0.00  0.00    -0.071 C 
ATOM    181  H   VAL d   1     -15.052   4.982  10.408  0.00  0.00     0.028 H 
ATOM    182  H   VAL d   1     -14.360   6.514  10.996  0.00  0.00     0.028 H 
ATOM    183  H   VAL d   1     -16.079   6.430  10.539  0.00  0.00     0.028 H 
ENDBRANCH 178 180
BRANCH 178 184
ATOM    184  CG2 VAL d   1     -14.814   7.975   8.675  0.00  0.00    -0.071 C 
ATOM    185  H   VAL d   1     -14.081   8.470   9.312  0.00  0.00     0.028 H 
ATOM    186  H   VAL d   1     -14.616   8.221   7.632  0.00  0.00     0.028 H 
ATOM    187  H   VAL d   1     -15.816   8.309   8.945  0.00  0.00     0.028 H 
ENDBRANCH 178 184
ENDBRANCH  98 178
ENDBRANCH   3  98
TORSDOF 50
