REMARK WARNING: 32 MAX_TORS EXCEEDED!!!
REMARK  82 active torsions:
REMARK  status: ('A' for Active; 'I' for Inactive)
REMARK    1  A    between atoms: N_1  and  CA_2 
REMARK    2  A    between atoms: CA_2  and  C_3 
REMARK    3  A    between atoms: CA_2  and  CB_5 
REMARK       I    between atoms: C_3  and  N_9 
REMARK    4  A    between atoms: CB_5  and  CG_6 
REMARK    5  A    between atoms: CG_6  and  CD1_7 
REMARK    6  A    between atoms: CG_6  and  CD2_8 
REMARK    7  A    between atoms: N_9  and  CA_10 
REMARK    8  A    between atoms: CA_10  and  C_11 
REMARK    9  A    between atoms: CA_10  and  CB_13 
REMARK       I    between atoms: C_11  and  N_15 
REMARK   10  A    between atoms: CB_13  and  OG_14 
REMARK   11  A    between atoms: N_15  and  CA_16 
REMARK   12  A    between atoms: CA_16  and  C_17 
REMARK   13  A    between atoms: CA_16  and  CB_19 
REMARK       I    between atoms: C_17  and  N_23 
REMARK   14  A    between atoms: CB_19  and  CG1_20 
REMARK   15  A    between atoms: CB_19  and  CG2_21 
REMARK   16  A    between atoms: CG1_20  and  CD1_22 
REMARK   17  A    between atoms: N_23  and  CA_24 
REMARK   18  A    between atoms: CA_24  and  C_25 
REMARK   19  A    between atoms: CA_24  and  CB_27 
REMARK       I    between atoms: C_25  and  N_32 
REMARK   20  A    between atoms: CB_27  and  CG_28 
REMARK   21  A    between atoms: CG_28  and  CD_29 
REMARK   22  A    between atoms: N_32  and  CA_33 
REMARK   23  A    between atoms: CA_33  and  C_34 
REMARK   24  A    between atoms: CA_33  and  CB_36 
REMARK       I    between atoms: C_34  and  N_41 
REMARK   25  A    between atoms: CB_36  and  CG_37 
REMARK   26  A    between atoms: CG_37  and  CD_38 
REMARK   27  A    between atoms: N_41  and  CA_42 
REMARK   28  A    between atoms: CA_42  and  C_43 
REMARK   29  A    between atoms: CA_42  and  CB_45 
REMARK       I    between atoms: C_43  and  N_48 
REMARK   30  A    between atoms: CB_45  and  OG1_46 
REMARK   31  A    between atoms: CB_45  and  CG2_47 
REMARK   32  A    between atoms: N_48  and  CA_49 
REMARK   33  A    between atoms: CA_49  and  C_50 
REMARK   34  A    between atoms: CA_49  and  CB_52 
REMARK       I    between atoms: C_50  and  N_56 
REMARK   35  A    between atoms: CB_52  and  CG_53 
REMARK       I    between atoms: CG_53  and  ND2_55 
REMARK   36  A    between atoms: N_56  and  CA_57 
REMARK   37  A    between atoms: CA_57  and  C_58 
REMARK   38  A    between atoms: CA_57  and  CB_60 
REMARK       I    between atoms: C_58  and  N_65 
REMARK   39  A    between atoms: CB_60  and  CG_61 
REMARK   40  A    between atoms: CG_61  and  CD_62 
REMARK   41  A    between atoms: N_65  and  CA_66 
REMARK   42  A    between atoms: CA_66  and  C_67 
REMARK   43  A    between atoms: CA_66  and  CB_69 
REMARK       I    between atoms: C_67  and  N_73 
REMARK   44  A    between atoms: CB_69  and  CG1_70 
REMARK   45  A    between atoms: CB_69  and  CG2_71 
REMARK   46  A    between atoms: CG1_70  and  CD1_72 
REMARK   47  A    between atoms: N_73  and  CA_74 
REMARK   48  A    between atoms: CA_74  and  C_75 
REMARK   49  A    between atoms: CA_74  and  CB_77 
REMARK       I    between atoms: C_75  and  N_84 
REMARK   50  A    between atoms: CB_77  and  CG_78 
REMARK   51  A    between atoms: CG_78  and  CD_79 
REMARK   52  A    between atoms: CD_79  and  NE_80 
REMARK       I    between atoms: NE_80  and  CZ_81 
REMARK       I    between atoms: CZ_81  and  NH1_82 
REMARK   53  A    between atoms: N_84  and  CA_85 
REMARK   54  A    between atoms: CA_85  and  C_86 
REMARK   55  A    between atoms: CA_85  and  CB_88 
REMARK       I    between atoms: C_86  and  N_89 
REMARK   56  A    between atoms: N_89  and  CA_90 
REMARK   57  A    between atoms: CA_90  and  C_91 
REMARK   58  A    between atoms: CA_90  and  CB_93 
REMARK       I    between atoms: C_91  and  N_94 
REMARK   59  A    between atoms: N_94  and  CA_95 
REMARK   60  A    between atoms: CA_95  and  C_96 
REMARK   61  A    between atoms: CA_95  and  CB_98 
REMARK       I    between atoms: C_96  and  N_102 
REMARK   62  A    between atoms: CB_98  and  CG_99 
REMARK   63  A    between atoms: CG_99  and  CD1_100 
REMARK   64  A    between atoms: CG_99  and  CD2_101 
REMARK   65  A    between atoms: N_102  and  CA_103 
REMARK   66  A    between atoms: CA_103  and  C_104 
REMARK       I    between atoms: C_104  and  N_106 
REMARK   67  A    between atoms: N_106  and  CA_107 
REMARK   68  A    between atoms: CA_107  and  C_108 
REMARK   69  A    between atoms: CA_107  and  CB_110 
REMARK       I    between atoms: C_108  and  N_114 
REMARK   70  A    between atoms: CB_110  and  CG_111 
REMARK   71  A    between atoms: CG_111  and  SD_112 
REMARK   72  A    between atoms: SD_112  and  CE_113 
REMARK   73  A    between atoms: N_114  and  CA_115 
REMARK   74  A    between atoms: CA_115  and  C_116 
REMARK   75  A    between atoms: CA_115  and  CB_118 
REMARK       I    between atoms: C_116  and  N_119 
REMARK   76  A    between atoms: CA_120  and  C_121 
REMARK       I    between atoms: C_121  and  N_126 
REMARK   77  A    between atoms: N_126  and  CA_127 
REMARK   78  A    between atoms: CA_127  and  C_128 
REMARK   79  A    between atoms: CA_127  and  CB_130 
REMARK   80  A    between atoms: CB_130  and  CG1_131 
REMARK   81  A    between atoms: CB_130  and  CG2_132 
REMARK   82  A    between atoms: CG1_131  and  CD1_133 
ROOT
ATOM      1  CA  ILE d   1       1.628 -15.292  -0.745  0.00  0.00     0.092 C 
ATOM      2  H   ILE d   1       1.140 -15.899   0.018  0.00  0.00     0.088 H 
ENDROOT
BRANCH   1   3
ATOM      3  N   ILE d   1       2.717 -16.079  -1.316  0.00  0.00    -0.346 N 
ATOM      4  C   GLU d   1       2.535 -17.301  -1.813  0.00  0.00     0.241 C 
ATOM      5  O   GLU d   1       1.454 -17.891  -1.784  0.00  0.00    -0.271 OA
ATOM      6  H   ILE d   1       3.654 -15.677  -1.335  0.00  0.00     0.163 HD
BRANCH   4   7
ATOM      7  CA  GLU d   1       3.765 -17.947  -2.446  0.00  0.00     0.090 C 
ATOM      8  H   GLU d   1       3.445 -18.773  -3.081  0.00  0.00     0.087 H 
BRANCH   7   9
ATOM      9  N   GLU d   1       4.476 -16.984  -3.298  0.00  0.00    -0.346 N 
ATOM     10  C   ASN d   1       3.914 -16.461  -4.390  0.00  0.00     0.241 C 
ATOM     11  O   ASN d   1       2.814 -16.811  -4.808  0.00  0.00    -0.271 OA
ATOM     12  H   GLU d   1       5.425 -16.707  -3.048  0.00  0.00     0.163 HD
BRANCH  10  13
ATOM     13  CA  ASN d   1       4.685 -15.353  -5.115  0.00  0.00     0.097 C 
ATOM     14  H   ASN d   1       3.928 -14.672  -5.505  0.00  0.00     0.088 H 
BRANCH  13  15
ATOM     15  N   ASN d   1       5.530 -14.561  -4.225  0.00  0.00    -0.345 N 
ATOM     16  C   THR d   1       5.004 -13.796  -3.270  0.00  0.00     0.243 C 
ATOM     17  O   THR d   1       3.789 -13.693  -3.081  0.00  0.00    -0.271 OA
ATOM     18  H   ASN d   1       6.543 -14.594  -4.337  0.00  0.00     0.163 HD
BRANCH  16  19
ATOM     19  CA  THR d   1       5.995 -13.050  -2.380  0.00  0.00     0.113 C 
ATOM     20  H   THR d   1       5.488 -12.695  -1.483  0.00  0.00     0.091 H 
BRANCH  19  21
ATOM     21  N   THR d   1       7.062 -13.955  -1.948  0.00  0.00    -0.344 N 
ATOM     22  C   GLU d   1       6.806 -15.051  -1.226  0.00  0.00     0.241 C 
ATOM     23  O   GLU d   1       5.690 -15.318  -0.780  0.00  0.00    -0.271 OA
ATOM     24  H   THR d   1       8.026 -13.744  -2.205  0.00  0.00     0.163 HD
BRANCH  22  25
ATOM     25  CA  GLU d   1       7.980 -16.000  -0.975  0.00  0.00     0.090 C 
ATOM     26  H   GLU d   1       7.572 -17.006  -0.879  0.00  0.00     0.087 H 
BRANCH  25  27
ATOM     27  N   GLU d   1       8.905 -16.018  -2.106  0.00  0.00    -0.346 N 
ATOM     28  C   GLU d   1       8.536 -16.576  -3.259  0.00  0.00     0.241 C 
ATOM     29  O   GLU d   1       7.430 -17.102  -3.416  0.00  0.00    -0.271 OA
ATOM     30  H   GLU d   1       9.832 -15.604  -2.013  0.00  0.00     0.163 HD
BRANCH  28  31
ATOM     31  CA  GLU d   1       9.533 -16.527  -4.422  0.00  0.00     0.090 C 
ATOM     32  H   GLU d   1       8.947 -16.701  -5.324  0.00  0.00     0.087 H 
BRANCH  31  33
ATOM     33  N   GLU d   1      10.150 -15.211  -4.633  0.00  0.00    -0.346 N 
ATOM     34  C   ILE d   1       9.421 -14.144  -4.957  0.00  0.00     0.241 C 
ATOM     35  O   ILE d   1       8.199 -14.187  -5.082  0.00  0.00    -0.271 OA
ATOM     36  H   GLU d   1      11.160 -15.112  -4.529  0.00  0.00     0.163 HD
BRANCH  34  37
ATOM     37  CA  ILE d   1      10.182 -12.825  -5.150  0.00  0.00     0.092 C 
ATOM     38  H   ILE d   1       9.497 -11.983  -5.045  0.00  0.00     0.088 H 
BRANCH  37  39
ATOM     39  N   ILE d   1      11.204 -12.680  -4.117  0.00  0.00    -0.346 N 
ATOM     40  C   SER d   1      10.889 -12.693  -2.821  0.00  0.00     0.243 C 
ATOM     41  O   SER d   1       9.725 -12.735  -2.408  0.00  0.00    -0.271 OA
ATOM     42  H   ILE d   1      12.180 -12.566  -4.392  0.00  0.00     0.163 HD
BRANCH  40  43
ATOM     43  CA  SER d   1      12.063 -12.668  -1.845  0.00  0.00     0.109 C 
ATOM     44  H   SER d   1      12.837 -12.016  -2.249  0.00  0.00     0.090 H 
BRANCH  43  45
ATOM     45  N   SER d   1      11.680 -12.109  -0.544  0.00  0.00    -0.344 N 
ATOM     46  C   LEU d   1      11.180 -10.881  -0.443  0.00  0.00     0.249 C 
ATOM     47  O   LEU d   1      11.006 -10.151  -1.414  0.00  0.00    -0.271 OA
ATOM     48  H   SER d   1      11.799 -12.672   0.298  0.00  0.00     0.163 HD
BRANCH  46  49
ATOM     49  CA  LEU d   1      10.818 -10.401   0.950  0.00  0.00     0.176 C 
ATOM     50  H   LEU d   1      11.312 -11.033   1.688  0.00  0.00     0.099 H 
BRANCH  49  51
ATOM     51  N   LEU d   1      11.269  -8.995   1.115  0.00  0.00    -0.066 N 
ATOM     52  H   LEU d   1      12.277  -8.943   0.969  0.00  0.00     0.275 HD
ATOM     53  H   LEU d   1      10.795  -8.405   0.432  0.00  0.00     0.275 HD
ATOM     54  H   LEU d   1      11.043  -8.675   2.057  0.00  0.00     0.275 HD
ENDBRANCH  49  51
BRANCH  49  55
ATOM     55  CB  LEU d   1       9.306 -10.493   1.166  0.00  0.00    -0.028 C 
ATOM     56  H   LEU d   1       8.848  -9.985   0.317  0.00  0.00     0.037 H 
ATOM     57  H   LEU d   1       9.115 -10.065   2.150  0.00  0.00     0.037 H 
BRANCH  55  58
ATOM     58  CG  LEU d   1       8.704 -11.900   1.192  0.00  0.00    -0.059 C 
ATOM     59  H   LEU d   1       9.059 -12.423   0.304  0.00  0.00     0.038 H 
BRANCH  58  60
ATOM     60  CD1 LEU d   1       9.165 -12.656   2.420  0.00  0.00    -0.073 C 
ATOM     61  H   LEU d   1       8.784 -12.161   3.314  0.00  0.00     0.028 H 
ATOM     62  H   LEU d   1       8.787 -13.677   2.380  0.00  0.00     0.028 H 
ATOM     63  H   LEU d   1      10.255 -12.671   2.448  0.00  0.00     0.028 H 
ENDBRANCH  58  60
BRANCH  58  64
ATOM     64  CD2 LEU d   1       7.193 -11.864   1.130  0.00  0.00    -0.073 C 
ATOM     65  H   LEU d   1       6.808 -12.883   1.085  0.00  0.00     0.028 H 
ATOM     66  H   LEU d   1       6.806 -11.367   2.019  0.00  0.00     0.028 H 
ATOM     67  H   LEU d   1       6.880 -11.317   0.241  0.00  0.00     0.028 H 
ENDBRANCH  58  64
ENDBRANCH  55  58
ENDBRANCH  49  55
ENDBRANCH  46  49
ENDBRANCH  43  45
BRANCH  43  68
ATOM     68  CB  SER d   1      12.619 -14.087  -1.691  0.00  0.00     0.044 C 
ATOM     69  H   SER d   1      13.402 -14.075  -0.932  0.00  0.00     0.077 H 
ATOM     70  H   SER d   1      13.012 -14.415  -2.653  0.00  0.00     0.077 H 
BRANCH  68  71
ATOM     71  OG  SER d   1      11.605 -14.988  -1.284  0.00  0.00    -0.398 OA
ATOM     72  H   SER d   1      10.906 -15.000  -1.942  0.00  0.00     0.209 HD
ENDBRANCH  68  71
ENDBRANCH  43  68
ENDBRANCH  40  43
ENDBRANCH  37  39
BRANCH  37  73
ATOM     73  CB  ILE d   1      10.780 -12.766  -6.589  0.00  0.00    -0.030 C 
ATOM     74  H   ILE d   1      11.414 -13.642  -6.726  0.00  0.00     0.043 H 
BRANCH  73  75
ATOM     75  CG1 ILE d   1      11.652 -11.519  -6.772  0.00  0.00    -0.063 C 
ATOM     76  H   ILE d   1      12.421 -11.550  -6.000  0.00  0.00     0.033 H 
ATOM     77  H   ILE d   1      10.991 -10.655  -6.714  0.00  0.00     0.033 H 
BRANCH  75  78
ATOM     78  CD1 ILE d   1      12.372 -11.444  -8.121  0.00  0.00    -0.076 C 
ATOM     79  H   ILE d   1      13.026 -12.309  -8.231  0.00  0.00     0.027 H 
ATOM     80  H   ILE d   1      11.636 -11.439  -8.925  0.00  0.00     0.027 H 
ATOM     81  H   ILE d   1      12.965 -10.531  -8.164  0.00  0.00     0.027 H 
ENDBRANCH  75  78
ENDBRANCH  73  75
BRANCH  73  82
ATOM     82  CG2 ILE d   1       9.665 -12.810  -7.643  0.00  0.00    -0.071 C 
ATOM     83  H   ILE d   1       9.100 -13.736  -7.534  0.00  0.00     0.028 H 
ATOM     84  H   ILE d   1       9.000 -11.958  -7.502  0.00  0.00     0.028 H 
ATOM     85  H   ILE d   1      10.106 -12.768  -8.639  0.00  0.00     0.028 H 
ENDBRANCH  73  82
ENDBRANCH  37  73
ENDBRANCH  34  37
ENDBRANCH  31  33
BRANCH  31  86
ATOM     86  CB  GLU d   1      10.577 -17.654  -4.309  0.00  0.00    -0.029 C 
ATOM     87  H   GLU d   1      10.686 -18.072  -5.310  0.00  0.00     0.037 H 
ATOM     88  H   GLU d   1      10.209 -18.337  -3.543  0.00  0.00     0.037 H 
BRANCH  86  89
ATOM     89  CG  GLU d   1      11.972 -17.231  -3.869  0.00  0.00     0.018 C 
ATOM     90  H   GLU d   1      12.499 -18.122  -3.529  0.00  0.00     0.049 H 
ATOM     91  H   GLU d   1      11.862 -16.481  -3.086  0.00  0.00     0.049 H 
BRANCH  89  92
ATOM     92  CD  GLU d   1      12.783 -16.612  -4.995  0.00  0.00     0.172 C 
ATOM     93  OE1 GLU d   1      13.326 -15.508  -4.791  0.00  0.00    -0.648 OA
ATOM     94  OE2 GLU d   1      12.869 -17.219  -6.087  0.00  0.00    -0.648 OA
ENDBRANCH  89  92
ENDBRANCH  86  89
ENDBRANCH  31  86
ENDBRANCH  28  31
ENDBRANCH  25  27
BRANCH  25  95
ATOM     95  CB  GLU d   1       8.693 -15.680   0.342  0.00  0.00    -0.029 C 
ATOM     96  H   GLU d   1       8.866 -14.604   0.362  0.00  0.00     0.037 H 
ATOM     97  H   GLU d   1       9.604 -16.277   0.369  0.00  0.00     0.037 H 
BRANCH  95  98
ATOM     98  CG  GLU d   1       7.878 -16.035   1.601  0.00  0.00     0.018 C 
ATOM     99  H   GLU d   1       6.896 -15.574   1.493  0.00  0.00     0.049 H 
ATOM    100  H   GLU d   1       8.440 -15.677   2.464  0.00  0.00     0.049 H 
BRANCH  98 101
ATOM    101  CD  GLU d   1       7.658 -17.535   1.791  0.00  0.00     0.172 C 
ATOM    102  OE1 GLU d   1       8.527 -18.333   1.383  0.00  0.00    -0.648 OA
ATOM    103  OE2 GLU d   1       6.616 -17.905   2.369  0.00  0.00    -0.648 OA
ENDBRANCH  98 101
ENDBRANCH  95  98
ENDBRANCH  25  95
ENDBRANCH  22  25
ENDBRANCH  19  21
BRANCH  19 104
ATOM    104  CB  THR d   1       6.546 -11.803  -3.126  0.00  0.00     0.060 C 
ATOM    105  H   THR d   1       7.065 -12.151  -4.019  0.00  0.00     0.086 H 
BRANCH 104 106
ATOM    106  OG1 THR d   1       7.445 -11.086  -2.272  0.00  0.00    -0.393 OA
ATOM    107  H   THR d   1       8.175 -11.658  -2.026  0.00  0.00     0.210 HD
ENDBRANCH 104 106
BRANCH 104 108
ATOM    108  CG2 THR d   1       5.415 -10.863  -3.546  0.00  0.00    -0.050 C 
ATOM    109  H   THR d   1       4.732 -11.392  -4.211  0.00  0.00     0.031 H 
ATOM    110  H   THR d   1       4.875 -10.528  -2.660  0.00  0.00     0.031 H 
ATOM    111  H   THR d   1       5.834 -10.001  -4.065  0.00  0.00     0.031 H 
ENDBRANCH 104 108
ENDBRANCH  19 104
ENDBRANCH  16  19
ENDBRANCH  13  15
BRANCH  13 112
ATOM    112  CB  ASN d   1       5.487 -15.901  -6.301  0.00  0.00     0.036 C 
ATOM    113  H   ASN d   1       4.987 -16.802  -6.657  0.00  0.00     0.051 H 
ATOM    114  H   ASN d   1       6.503 -16.095  -5.958  0.00  0.00     0.051 H 
BRANCH 112 115
ATOM    115  CG  ASN d   1       5.563 -14.915  -7.463  0.00  0.00     0.217 C 
ATOM    116  OD1 ASN d   1       4.687 -14.060  -7.631  0.00  0.00    -0.274 OA
ATOM    117  ND2 ASN d   1       6.606 -15.038  -8.277  0.00  0.00    -0.370 N 
ATOM    118  H   ASN d   1       6.705 -14.412  -9.077  0.00  0.00     0.159 HD
ATOM    119  H   ASN d   1       7.307 -15.758  -8.102  0.00  0.00     0.159 HD
ENDBRANCH 112 115
ENDBRANCH  13 112
ENDBRANCH  10  13
ENDBRANCH   7   9
BRANCH   7 120
ATOM    120  CB  GLU d   1       4.682 -18.509  -1.353  0.00  0.00    -0.029 C 
ATOM    121  H   GLU d   1       4.035 -18.922  -0.579  0.00  0.00     0.037 H 
ATOM    122  H   GLU d   1       5.322 -17.690  -1.026  0.00  0.00     0.037 H 
BRANCH 120 123
ATOM    123  CG  GLU d   1       5.602 -19.634  -1.805  0.00  0.00     0.018 C 
ATOM    124  H   GLU d   1       6.457 -19.659  -1.129  0.00  0.00     0.049 H 
ATOM    125  H   GLU d   1       5.887 -19.438  -2.839  0.00  0.00     0.049 H 
BRANCH 123 126
ATOM    126  CD  GLU d   1       4.928 -21.003  -1.757  0.00  0.00     0.172 C 
ATOM    127  OE1 GLU d   1       5.235 -21.785  -0.829  0.00  0.00    -0.648 OA
ATOM    128  OE2 GLU d   1       4.090 -21.298  -2.636  0.00  0.00    -0.648 OA
ENDBRANCH 123 126
ENDBRANCH 120 123
ENDBRANCH   7 120
ENDBRANCH   4   7
ENDBRANCH   1   3
BRANCH   1 129
ATOM    129  C   ILE d   1       0.581 -14.952  -1.812  0.00  0.00     0.241 C 
ATOM    130  O   ILE d   1      -0.619 -15.102  -1.574  0.00  0.00    -0.271 OA
ATOM    131  N   ARG d   1       1.041 -14.516  -2.986  0.00  0.00    -0.346 N 
ATOM    132  H   ARG d   1       2.047 -14.404  -3.110  0.00  0.00     0.163 HD
BRANCH 131 133
ATOM    133  CA  ARG d   1       0.148 -14.192  -4.107  0.00  0.00     0.089 C 
ATOM    134  H   ARG d   1      -0.533 -13.421  -3.746  0.00  0.00     0.087 H 
BRANCH 133 135
ATOM    135  C   ARG d   1      -0.702 -15.387  -4.545  0.00  0.00     0.241 C 
ATOM    136  O   ARG d   1      -1.909 -15.247  -4.752  0.00  0.00    -0.271 OA
ATOM    137  N   GLU d   1      -0.067 -16.551  -4.673  0.00  0.00    -0.346 N 
ATOM    138  H   GLU d   1       0.932 -16.592  -4.471  0.00  0.00     0.163 HD
BRANCH 137 139
ATOM    139  CA  GLU d   1      -0.754 -17.775  -5.094  0.00  0.00     0.086 C 
ATOM    140  H   GLU d   1      -1.223 -17.574  -6.057  0.00  0.00     0.086 H 
BRANCH 139 141
ATOM    141  C   GLU d   1      -1.864 -18.166  -4.118  0.00  0.00     0.240 C 
ATOM    142  O   GLU d   1      -2.967 -18.522  -4.537  0.00  0.00    -0.271 OA
ATOM    143  N   LYS d   1      -1.568 -18.073  -2.822  0.00  0.00    -0.346 N 
ATOM    144  H   LYS d   1      -0.632 -17.765  -2.557  0.00  0.00     0.163 HD
BRANCH 143 145
ATOM    145  CA  LYS d   1      -2.527 -18.394  -1.760  0.00  0.00     0.086 C 
ATOM    146  H   LYS d   1      -2.916 -19.388  -1.982  0.00  0.00     0.086 H 
BRANCH 145 147
ATOM    147  C   LYS d   1      -3.724 -17.441  -1.728  0.00  0.00     0.240 C 
ATOM    148  O   LYS d   1      -4.818 -17.824  -1.306  0.00  0.00    -0.271 OA
ATOM    149  N   LEU d   1      -3.505 -16.204  -2.173  0.00  0.00    -0.346 N 
ATOM    150  H   LEU d   1      -2.566 -15.954  -2.484  0.00  0.00     0.163 HD
BRANCH 149 151
ATOM    151  CA  LEU d   1      -4.559 -15.190  -2.233  0.00  0.00     0.089 C 
ATOM    152  H   LEU d   1      -5.235 -15.380  -1.399  0.00  0.00     0.087 H 
BRANCH 151 153
ATOM    153  C   LEU d   1      -5.380 -15.286  -3.520  0.00  0.00     0.240 C 
ATOM    154  O   LEU d   1      -6.359 -14.554  -3.699  0.00  0.00    -0.271 OA
ATOM    155  N   GLY d   1      -4.977 -16.195  -4.406  0.00  0.00    -0.351 N 
ATOM    156  H   GLY d   1      -4.159 -16.764  -4.188  0.00  0.00     0.163 HD
BRANCH 155 157
ATOM    157  CA  GLY d   1      -5.662 -16.409  -5.679  0.00  0.00     0.069 C 
ATOM    158  H   GLY d   1      -6.733 -16.312  -5.503  0.00  0.00     0.078 H 
ATOM    159  H   GLY d   1      -5.384 -17.397  -6.047  0.00  0.00     0.078 H 
BRANCH 157 160
ATOM    160  C   GLY d   1      -5.269 -15.393  -6.731  0.00  0.00     0.236 C 
ATOM    161  O   GLY d   1      -6.019 -15.143  -7.676  0.00  0.00    -0.272 OA
ATOM    162  N   MET d   1      -4.085 -14.806  -6.564  0.00  0.00    -0.346 N 
ATOM    163  H   MET d   1      -3.507 -15.082  -5.770  0.00  0.00     0.163 HD
BRANCH 162 164
ATOM    164  CA  MET d   1      -3.585 -13.784  -7.474  0.00  0.00     0.090 C 
ATOM    165  H   MET d   1      -4.447 -13.349  -7.981  0.00  0.00     0.087 H 
BRANCH 164 166
ATOM    166  C   MET d   1      -2.654 -14.377  -8.525  0.00  0.00     0.241 C 
ATOM    167  O   MET d   1      -2.087 -15.456  -8.331  0.00  0.00    -0.271 OA
ATOM    168  N   LYS d   1      -2.502 -13.656  -9.634  0.00  0.00    -0.346 N 
ATOM    169  H   LYS d   1      -3.089 -12.832  -9.768  0.00  0.00     0.163 HD
BRANCH 168 170
ATOM    170  CA  LYS d   1      -1.528 -13.999 -10.666  0.00  0.00     0.086 C 
ATOM    171  H   LYS d   1      -1.682 -15.035 -10.969  0.00  0.00     0.086 H 
BRANCH 170 172
ATOM    172  C   LYS d   1      -0.111 -13.846 -10.110  0.00  0.00     0.243 C 
ATOM    173  O   LYS d   1       0.131 -12.974  -9.269  0.00  0.00    -0.271 OA
ATOM    174  N   PRO d   1       0.828 -14.700 -10.560  0.00  0.00    -0.337 N 
ATOM    175  CA  PRO d   1       2.207 -14.582 -10.089  0.00  0.00     0.091 C 
ATOM    176  CD  PRO d   1       0.664 -15.816 -11.513  0.00  0.00    -0.001 C 
ATOM    177  CB  PRO d   1       2.843 -15.899 -10.544  0.00  0.00    -0.036 C 
ATOM    178  H   PRO d   1       2.257 -14.410  -9.014  0.00  0.00     0.087 H 
ATOM    179  CG  PRO d   1       2.073 -16.288 -11.749  0.00  0.00    -0.048 C 
ATOM    180  H   PRO d   1       2.799 -16.663  -9.768  0.00  0.00     0.036 H 
ATOM    181  H   PRO d   1       3.906 -15.786 -10.758  0.00  0.00     0.036 H 
ATOM    182  H   PRO d   1       2.106 -17.366 -11.907  0.00  0.00     0.035 H 
ATOM    183  H   PRO d   1       2.494 -15.838 -12.648  0.00  0.00     0.035 H 
ATOM    184  H   PRO d   1       0.167 -15.509 -12.433  0.00  0.00     0.064 H 
ATOM    185  H   PRO d   1       0.019 -16.605 -11.125  0.00  0.00     0.064 H 
BRANCH 175 186
ATOM    186  C   PRO d   1       2.940 -13.397 -10.716  0.00  0.00     0.241 C 
ATOM    187  O   PRO d   1       2.527 -12.894 -11.765  0.00  0.00    -0.271 OA
ATOM    188  N   ILE d   1       4.011 -12.955 -10.063  0.00  0.00    -0.344 N 
ATOM    189  H   ILE d   1       4.214 -13.329  -9.136  0.00  0.00     0.163 HD
BRANCH 188 190
ATOM    190  CA  ILE d   1       4.903 -11.952 -10.632  0.00  0.00     0.099 C 
ATOM    191  H   ILE d   1       4.295 -11.212 -11.153  0.00  0.00     0.090 H 
BRANCH 190 192
ATOM    192  C   ILE d   1       5.863 -12.633 -11.608  0.00  0.00     0.197 C 
ATOM    193  O   ILE d   1       6.578 -13.569 -11.243  0.00  0.00    -0.646 OA
ATOM    194  OXT ILE d   1       5.943 -12.265 -12.781  0.00  0.00    -0.646 OA
ENDBRANCH 190 192
BRANCH 190 195
ATOM    195  CB  ILE d   1       5.704 -11.207  -9.541  0.00  0.00    -0.029 C 
ATOM    196  H   ILE d   1       6.190 -11.946  -8.904  0.00  0.00     0.043 H 
BRANCH 195 197
ATOM    197  CG1 ILE d   1       4.771 -10.362  -8.667  0.00  0.00    -0.063 C 
ATOM    198  H   ILE d   1       3.903 -10.978  -8.432  0.00  0.00     0.033 H 
ATOM    199  H   ILE d   1       4.535  -9.457  -9.227  0.00  0.00     0.033 H 
BRANCH 197 200
ATOM    200  CD1 ILE d   1       5.387  -9.926  -7.344  0.00  0.00    -0.076 C 
ATOM    201  H   ILE d   1       5.661 -10.807  -6.764  0.00  0.00     0.027 H 
ATOM    202  H   ILE d   1       6.276  -9.327  -7.539  0.00  0.00     0.027 H 
ATOM    203  H   ILE d   1       4.663  -9.333  -6.785  0.00  0.00     0.027 H 
ENDBRANCH 197 200
ENDBRANCH 195 197
BRANCH 195 204
ATOM    204  CG2 ILE d   1       6.775 -10.334 -10.177  0.00  0.00    -0.070 C 
ATOM    205  H   ILE d   1       7.456 -10.959 -10.755  0.00  0.00     0.028 H 
ATOM    206  H   ILE d   1       6.303  -9.604 -10.835  0.00  0.00     0.028 H 
ATOM    207  H   ILE d   1       7.331  -9.816  -9.396  0.00  0.00     0.028 H 
ENDBRANCH 195 204
ENDBRANCH 190 195
ENDBRANCH 188 190
ENDBRANCH 175 186
ENDBRANCH 170 172
BRANCH 170 208
ATOM    208  CB  LYS d   1      -1.715 -13.101 -11.890  0.00  0.00    -0.049 C 
ATOM    209  H   LYS d   1      -2.720 -13.237 -12.289  0.00  0.00     0.030 H 
ATOM    210  H   LYS d   1      -1.576 -12.060 -11.600  0.00  0.00     0.030 H 
ATOM    211  H   LYS d   1      -0.982 -13.369 -12.651  0.00  0.00     0.030 H 
ENDBRANCH 170 208
ENDBRANCH 168 170
ENDBRANCH 164 166
BRANCH 164 212
ATOM    212  CB  MET d   1      -2.837 -12.696  -6.693  0.00  0.00    -0.030 C 
ATOM    213  H   MET d   1      -2.427 -12.005  -7.429  0.00  0.00     0.037 H 
ATOM    214  H   MET d   1      -2.095 -13.204  -6.077  0.00  0.00     0.037 H 
BRANCH 212 215
ATOM    215  CG  MET d   1      -3.704 -11.873  -5.750  0.00  0.00    -0.021 C 
ATOM    216  H   MET d   1      -4.183 -12.560  -5.053  0.00  0.00     0.049 H 
ATOM    217  H   MET d   1      -4.419 -11.317  -6.356  0.00  0.00     0.049 H 
BRANCH 215 218
ATOM    218  SD  MET d   1      -2.753 -10.678  -4.782  0.00  0.00    -0.173 SA
BRANCH 218 219
ATOM    219  CE  MET d   1      -2.156  -9.573  -6.060  0.00  0.00    -0.035 C 
ATOM    220  H   MET d   1      -1.548 -10.135  -6.769  0.00  0.00     0.041 H 
ATOM    221  H   MET d   1      -3.005  -9.128  -6.580  0.00  0.00     0.041 H 
ATOM    222  H   MET d   1      -1.554  -8.786  -5.606  0.00  0.00     0.041 H 
ENDBRANCH 218 219
ENDBRANCH 215 218
ENDBRANCH 212 215
ENDBRANCH 164 212
ENDBRANCH 162 164
ENDBRANCH 157 160
ENDBRANCH 155 157
ENDBRANCH 151 153
BRANCH 151 223
ATOM    223  CB  LEU d   1      -3.963 -13.787  -2.088  0.00  0.00    -0.035 C 
ATOM    224  H   LEU d   1      -4.788 -13.099  -2.275  0.00  0.00     0.037 H 
ATOM    225  H   LEU d   1      -3.114 -13.759  -2.771  0.00  0.00     0.037 H 
BRANCH 223 226
ATOM    226  CG  LEU d   1      -3.401 -13.390  -0.720  0.00  0.00    -0.059 C 
ATOM    227  H   LEU d   1      -2.812 -14.227  -0.346  0.00  0.00     0.038 H 
BRANCH 226 228
ATOM    228  CD1 LEU d   1      -2.500 -12.169  -0.861  0.00  0.00    -0.073 C 
ATOM    229  H   LEU d   1      -1.675 -12.403  -1.534  0.00  0.00     0.028 H 
ATOM    230  H   LEU d   1      -3.077 -11.338  -1.267  0.00  0.00     0.028 H 
ATOM    231  H   LEU d   1      -2.106 -11.895   0.118  0.00  0.00     0.028 H 
ENDBRANCH 226 228
BRANCH 226 232
ATOM    232  CD2 LEU d   1      -4.508 -13.133   0.303  0.00  0.00    -0.073 C 
ATOM    233  H   LEU d   1      -5.147 -12.324  -0.051  0.00  0.00     0.028 H 
ATOM    234  H   LEU d   1      -5.102 -14.038   0.429  0.00  0.00     0.028 H 
ATOM    235  H   LEU d   1      -4.061 -12.855   1.258  0.00  0.00     0.028 H 
ENDBRANCH 226 232
ENDBRANCH 223 226
ENDBRANCH 151 223
ENDBRANCH 149 151
ENDBRANCH 145 147
BRANCH 145 236
ATOM    236  CB  LYS d   1      -1.830 -18.401  -0.398  0.00  0.00    -0.049 C 
ATOM    237  H   LYS d   1      -1.038 -19.150  -0.401  0.00  0.00     0.030 H 
ATOM    238  H   LYS d   1      -1.402 -17.417  -0.205  0.00  0.00     0.030 H 
ATOM    239  H   LYS d   1      -2.556 -18.641   0.379  0.00  0.00     0.030 H 
ENDBRANCH 145 236
ENDBRANCH 143 145
ENDBRANCH 139 141
BRANCH 139 240
ATOM    240  CB  GLU d   1       0.246 -18.922  -5.267  0.00  0.00    -0.049 C 
ATOM    241  H   GLU d   1       0.981 -18.650  -6.025  0.00  0.00     0.030 H 
ATOM    242  H   GLU d   1       0.751 -19.108  -4.319  0.00  0.00     0.030 H 
ATOM    243  H   GLU d   1      -0.285 -19.821  -5.580  0.00  0.00     0.030 H 
ENDBRANCH 139 240
ENDBRANCH 137 139
ENDBRANCH 133 135
BRANCH 133 244
ATOM    244  CB  ARG d   1       0.939 -13.642  -5.300  0.00  0.00    -0.036 C 
ATOM    245  H   ARG d   1       0.252 -13.594  -6.145  0.00  0.00     0.036 H 
ATOM    246  H   ARG d   1       1.792 -14.304  -5.452  0.00  0.00     0.036 H 
BRANCH 244 247
ATOM    247  CG  ARG d   1       1.495 -12.232  -5.091  0.00  0.00    -0.048 C 
ATOM    248  H   ARG d   1       2.162 -12.251  -4.229  0.00  0.00     0.035 H 
ATOM    249  H   ARG d   1       0.656 -11.552  -4.940  0.00  0.00     0.035 H 
BRANCH 247 250
ATOM    250  CD  ARG d   1       2.291 -11.750  -6.302  0.00  0.00     0.009 C 
ATOM    251  H   ARG d   1       2.946 -12.562  -6.617  0.00  0.00     0.064 H 
ATOM    252  H   ARG d   1       2.842 -10.857  -6.007  0.00  0.00     0.064 H 
BRANCH 250 253
ATOM    253  NE  ARG d   1       1.434 -11.396  -7.436  0.00  0.00    -0.227 N 
ATOM    254  CZ  ARG d   1       0.965 -10.175  -7.689  0.00  0.00     0.665 C 
ATOM    255  NH1 ARG d   1       0.189  -9.967  -8.743  0.00  0.00    -0.235 N 
ATOM    256  NH2 ARG d   1       1.260  -9.154  -6.890  0.00  0.00    -0.235 N 
ATOM    257  H   ARG d   1      -0.050 -10.742  -9.361  0.00  0.00     0.174 HD
ATOM    258  H   ARG d   1      -0.170  -9.032  -8.936  0.00  0.00     0.174 HD
ATOM    259  H   ARG d   1       1.852  -9.301  -6.072  0.00  0.00     0.174 HD
ATOM    260  H   ARG d   1       0.895  -8.224  -7.095  0.00  0.00     0.174 HD
ATOM    261  H   ARG d   1       1.176 -12.142  -8.082  0.00  0.00     0.177 HD
ENDBRANCH 250 253
ENDBRANCH 247 250
ENDBRANCH 244 247
ENDBRANCH 133 244
ENDBRANCH 131 133
ENDBRANCH   1 129
BRANCH   1 262
ATOM    262  CB  ILE d   1       2.164 -14.008  -0.042  0.00  0.00    -0.030 C 
ATOM    263  H   ILE d   1       2.846 -13.504  -0.727  0.00  0.00     0.043 H 
BRANCH 262 264
ATOM    264  CG1 ILE d   1       2.932 -14.386   1.231  0.00  0.00    -0.063 C 
ATOM    265  H   ILE d   1       3.601 -15.205   0.968  0.00  0.00     0.033 H 
ATOM    266  H   ILE d   1       2.189 -14.633   1.990  0.00  0.00     0.033 H 
BRANCH 264 267
ATOM    267  CD1 ILE d   1       3.798 -13.270   1.803  0.00  0.00    -0.076 C 
ATOM    268  H   ILE d   1       4.540 -12.971   1.062  0.00  0.00     0.027 H 
ATOM    269  H   ILE d   1       3.169 -12.416   2.054  0.00  0.00     0.027 H 
ATOM    270  H   ILE d   1       4.303 -13.627   2.701  0.00  0.00     0.027 H 
ENDBRANCH 264 267
ENDBRANCH 262 264
BRANCH 262 271
ATOM    271  CG2 ILE d   1       1.028 -13.032   0.278  0.00  0.00    -0.071 C 
ATOM    272  H   ILE d   1       0.531 -12.739  -0.647  0.00  0.00     0.028 H 
ATOM    273  H   ILE d   1       0.310 -13.516   0.940  0.00  0.00     0.028 H 
ATOM    274  H   ILE d   1       1.437 -12.148   0.767  0.00  0.00     0.028 H 
ENDBRANCH 262 271
ENDBRANCH   1 262
TORSDOF 82
