REMARK  5 active torsions:
REMARK  status: ('A' for Active; 'I' for Inactive)
REMARK    1  A    between atoms: C3_3  and  N23_23 
REMARK    2  A    between atoms: N5_5  and  C21_21 
REMARK    3  A    between atoms: C6_6  and  C15_15 
REMARK    4  A    between atoms: C8_8  and  N24_24 
REMARK    5  A    between atoms: C21_21  and  C22_22 
ROOT
ATOM      1  C1   ET d   1      35.034  -7.582  11.223  0.00  0.00    -0.068 A 
ATOM      2  C2   ET d   1      35.641  -6.550  11.935  0.00  0.00    -0.057 A 
ATOM      3  C3   ET d   1      37.023  -6.412  11.924  0.00  0.00     0.027 A 
ATOM      4  C4   ET d   1      37.798  -7.305  11.194  0.00  0.00    -0.031 A 
ATOM      5  N5   ET d   1      38.005  -9.233   9.739  0.00  0.00    -0.367 N 
ATOM      6  C6   ET d   1      37.399 -10.268   9.019  0.00  0.00     0.064 A 
ATOM      7  C7   ET d   1      35.418 -11.464   8.310  0.00  0.00    -0.049 A 
ATOM      8  C8   ET d   1      34.043 -11.625   8.302  0.00  0.00     0.026 A 
ATOM      9  C9   ET d   1      33.244 -10.743   9.023  0.00  0.00    -0.057 A 
ATOM     10  C10  ET d   1      33.827  -9.706   9.746  0.00  0.00    -0.069 A 
ATOM     11  C11  ET d   1      36.012 -10.423   9.030  0.00  0.00    -0.018 A 
ATOM     12  C12  ET d   1      35.215  -9.534   9.759  0.00  0.00    -0.015 A 
ATOM     13  C13  ET d   1      35.809  -8.487  10.486  0.00  0.00     0.001 A 
ATOM     14  C14  ET d   1      37.201  -8.339  10.474  0.00  0.00     0.044 A 
ATOM     15  H    ET d   1      33.949  -7.686  11.239  0.00  0.00     0.085 H 
ATOM     16  H    ET d   1      35.029  -5.849  12.503  0.00  0.00     0.086 H 
ATOM     17  H    ET d   1      38.883  -7.196  11.184  0.00  0.00     0.090 H 
ATOM     18  H    ET d   1      37.379  -9.290   8.539  0.00  0.00     0.088 H 
ATOM     19  H    ET d   1      36.045 -12.157   7.748  0.00  0.00     0.087 H 
ATOM     20  H    ET d   1      32.161 -10.864   9.022  0.00  0.00     0.086 H 
ATOM     21  H    ET d   1      33.194  -9.020  10.309  0.00  0.00     0.085 H 
ENDROOT
BRANCH   6  22
ATOM     22  C15  ET d   1      38.176 -11.169   8.310  0.00  0.00    -0.031 A 
ATOM     23  C16  ET d   1      38.368 -11.033   6.938  0.00  0.00    -0.074 A 
ATOM     24  C17  ET d   1      39.142 -11.976   6.264  0.00  0.00    -0.082 A 
ATOM     25  H    ET d   1      37.919 -10.200   6.398  0.00  0.00     0.084 H 
ATOM     26  C18  ET d   1      39.711 -13.043   6.955  0.00  0.00    -0.083 A 
ATOM     27  H    ET d   1      39.303 -11.878   5.190  0.00  0.00     0.083 H 
ATOM     28  C19  ET d   1      39.508 -13.175   8.326  0.00  0.00    -0.082 A 
ATOM     29  H    ET d   1      40.316 -13.776   6.421  0.00  0.00     0.083 H 
ATOM     30  C20  ET d   1      38.735 -12.239   9.002  0.00  0.00    -0.074 A 
ATOM     31  H    ET d   1      39.954 -14.010   8.867  0.00  0.00     0.083 H 
ATOM     32  H    ET d   1      38.567 -12.343  10.074  0.00  0.00     0.084 H 
ENDBRANCH   6  22
BRANCH   5  33
ATOM     33  C21  ET d   1      39.486  -9.088   9.731  0.00  0.00    -0.007 C 
ATOM     34  H    ET d   1      39.922 -10.047   9.453  0.00  0.00     0.063 H 
ATOM     35  H    ET d   1      39.804  -8.771  10.724  0.00  0.00     0.063 H 
BRANCH  33  36
ATOM     36  C22  ET d   1      39.951  -8.035   8.717  0.00  0.00    -0.061 C 
ATOM     37  H    ET d   1      39.630  -8.329   7.717  0.00  0.00     0.029 H 
ATOM     38  H    ET d   1      39.514  -7.069   8.971  0.00  0.00     0.029 H 
ATOM     39  H    ET d   1      41.038  -7.962   8.744  0.00  0.00     0.029 H 
ENDBRANCH  33  36
ENDBRANCH   5  33
BRANCH   8  40
ATOM     40  N24  ET d   1      33.504 -12.626   7.609  0.00  0.00    -0.399 N 
ATOM     41  H    ET d   1      32.492 -12.755   7.602  0.00  0.00     0.156 HD
ATOM     42  H    ET d   1      34.103 -13.264   7.085  0.00  0.00     0.156 HD
ENDBRANCH   8  40
BRANCH   3  43
ATOM     43  N23  ET d   1      37.609  -5.429  12.601  0.00  0.00    -0.399 N 
ATOM     44  H    ET d   1      38.624  -5.332  12.583  0.00  0.00     0.156 HD
ATOM     45  H    ET d   1      37.043  -4.772  13.138  0.00  0.00     0.156 HD
ENDBRANCH   3  43
TORSDOF 5
