REMARK  21 active torsions:
REMARK  status: ('A' for Active; 'I' for Inactive)
REMARK    1  A    between atoms: O1_13  and  C1_1 
REMARK    2  A    between atoms: C2_2  and  O2_14 
REMARK    3  A    between atoms: C3_3  and  O3_18 
REMARK    4  A    between atoms: C4_4  and  O4_22 
REMARK    5  A    between atoms: C5_5  and  C6_6 
REMARK    6  A    between atoms: C6_6  and  O6_27 
REMARK    7  A    between atoms: C12_8  and  C11_7 
REMARK    8  A    between atoms: C11_7  and  O81_40 
REMARK    9  A    between atoms: C12_8  and  O1_13 
REMARK   10  A    between atoms: C13_9  and  O91_44 
REMARK   11  A    between atoms: C14_10  and  O71_36 
REMARK   12  A    between atoms: C15_11  and  C16_12 
REMARK   13  A    between atoms: C16_12  and  O51_32 
REMARK   14  A    between atoms: O2_14  and  S2_48 
REMARK   15  A    between atoms: O3_18  and  S3_49 
REMARK   16  A    between atoms: O4_22  and  S4_50 
REMARK   17  A    between atoms: O6_27  and  S6_51 
REMARK   18  A    between atoms: O51_32  and  S14_55 
REMARK   19  A    between atoms: O71_36  and  S13_54 
REMARK   20  A    between atoms: O81_40  and  S11_52 
REMARK   21  A    between atoms: O91_44  and  S12_53 
ROOT
ATOM      1  O1  SCR d   1       7.814 -39.673  43.028  0.00  0.00    -0.318 OA
ENDROOT
BRANCH   1   2
ATOM      2  C1  SCR d   1       7.841 -41.075  43.525  0.00  0.00     0.164 C 
ATOM      3  C2  SCR d   1       9.290 -41.473  43.833  0.00  0.00     0.136 C 
ATOM      4  C3  SCR d   1      10.094 -41.639  42.521  0.00  0.00     0.119 C 
ATOM      5  H   SCR d   1       9.311 -42.433  44.349  0.00  0.00     0.097 H 
ATOM      6  C4  SCR d   1       9.410 -42.565  41.482  0.00  0.00     0.116 C 
ATOM      7  H   SCR d   1      10.137 -40.646  42.074  0.00  0.00     0.094 H 
ATOM      8  C5  SCR d   1       7.876 -42.371  41.443  0.00  0.00     0.092 C 
ATOM      9  H   SCR d   1       9.610 -43.601  41.755  0.00  0.00     0.094 H 
ATOM     10  O5  SCR d   1       7.261 -42.152  42.740  0.00  0.00    -0.348 OA
ATOM     11  H   SCR d   1       7.793 -41.461  40.849  0.00  0.00     0.091 H 
ATOM     12  H   SCR d   1       7.170 -41.001  44.381  0.00  0.00     0.133 H 
BRANCH   3  13
ATOM     13  O2  SCR d   1       9.876 -40.472  44.688  0.00  0.00    -0.244 OA
BRANCH  13  14
ATOM     14  S2  SCR d   1       9.687 -40.663  46.117  0.00  0.00     0.252 S 
ATOM     15  O22 SCR d   1      10.232 -39.469  46.849  0.00  0.00    -0.572 OA
ATOM     16  O23 SCR d   1      10.434 -41.889  46.560  0.00  0.00    -0.572 OA
ATOM     17  O24 SCR d   1       8.232 -40.803  46.477  0.00  0.00    -0.572 OA
ENDBRANCH  13  14
ENDBRANCH   3  13
BRANCH   4  18
ATOM     18  O3  SCR d   1      11.427 -42.111  42.795  0.00  0.00    -0.246 OA
BRANCH  18  19
ATOM     19  S3  SCR d   1      12.455 -41.174  42.405  0.00  0.00     0.252 S 
ATOM     20  O32 SCR d   1      12.434 -39.987  43.327  0.00  0.00    -0.572 OA
ATOM     21  O33 SCR d   1      13.799 -41.837  42.495  0.00  0.00    -0.572 OA
ATOM     22  O34 SCR d   1      12.245 -40.707  40.991  0.00  0.00    -0.572 OA
ENDBRANCH  18  19
ENDBRANCH   4  18
BRANCH   6  23
ATOM     23  O4  SCR d   1       9.934 -42.216  40.191  0.00  0.00    -0.246 OA
BRANCH  23  24
ATOM     24  S4  SCR d   1      10.258 -43.266  39.255  0.00  0.00     0.252 S 
ATOM     25  O42 SCR d   1      11.749 -43.342  39.090  0.00  0.00    -0.572 OA
ATOM     26  O43 SCR d   1       9.643 -42.919  37.929  0.00  0.00    -0.572 OA
ATOM     27  O44 SCR d   1       9.747 -44.604  39.712  0.00  0.00    -0.572 OA
ENDBRANCH  23  24
ENDBRANCH   6  23
BRANCH   8  28
ATOM     28  C6  SCR d   1       7.097 -43.506  40.737  0.00  0.00     0.067 C 
ATOM     29  H   SCR d   1       7.770 -43.966  40.013  0.00  0.00     0.080 H 
ATOM     30  H   SCR d   1       6.210 -43.063  40.283  0.00  0.00     0.080 H 
BRANCH  28  31
ATOM     31  O6  SCR d   1       6.655 -44.539  41.636  0.00  0.00    -0.254 OA
BRANCH  31  32
ATOM     32  S6  SCR d   1       6.355 -45.852  41.128  0.00  0.00     0.251 S 
ATOM     33  O62 SCR d   1       7.623 -46.512  40.662  0.00  0.00    -0.572 OA
ATOM     34  O63 SCR d   1       5.400 -45.745  39.973  0.00  0.00    -0.572 OA
ATOM     35  O64 SCR d   1       5.732 -46.689  42.209  0.00  0.00    -0.572 OA
ENDBRANCH  31  32
ENDBRANCH  28  31
ENDBRANCH   8  28
ENDBRANCH   1   2
BRANCH   1  36
ATOM     36  C12 SCR d   1       6.850 -39.210  42.016  0.00  0.00     0.221 C 
ATOM     37  C13 SCR d   1       6.835 -37.667  41.959  0.00  0.00     0.144 C 
ATOM     38  C14 SCR d   1       6.890 -37.333  40.459  0.00  0.00     0.118 C 
ATOM     39  H   SCR d   1       5.959 -37.255  42.460  0.00  0.00     0.098 H 
ATOM     40  C15 SCR d   1       6.688 -38.696  39.792  0.00  0.00     0.093 C 
ATOM     41  H   SCR d   1       7.826 -36.864  40.155  0.00  0.00     0.094 H 
ATOM     42  O10 SCR d   1       7.349 -39.585  40.715  0.00  0.00    -0.341 OA
ATOM     43  H   SCR d   1       5.632 -38.900  39.613  0.00  0.00     0.091 H 
BRANCH  36  44
ATOM     44  C11 SCR d   1       5.418 -39.755  42.235  0.00  0.00     0.095 C 
ATOM     45  H   SCR d   1       5.377 -40.755  41.802  0.00  0.00     0.085 H 
ATOM     46  H   SCR d   1       4.724 -39.054  41.770  0.00  0.00     0.085 H 
BRANCH  44  47
ATOM     47  O81 SCR d   1       5.058 -39.867  43.620  0.00  0.00    -0.252 OA
BRANCH  47  48
ATOM     48  S11 SCR d   1       4.171 -40.913  44.043  0.00  0.00     0.251 S 
ATOM     49  O82 SCR d   1       4.621 -42.223  43.467  0.00  0.00    -0.572 OA
ATOM     50  O83 SCR d   1       2.782 -40.603  43.563  0.00  0.00    -0.572 OA
ATOM     51  O84 SCR d   1       4.178 -41.010  45.542  0.00  0.00    -0.572 OA
ENDBRANCH  47  48
ENDBRANCH  44  47
ENDBRANCH  36  44
BRANCH  37  52
ATOM     52  O91 SCR d   1       7.992 -37.120  42.607  0.00  0.00    -0.243 OA
BRANCH  52  53
ATOM     53  S12 SCR d   1       7.663 -36.050  43.511  0.00  0.00     0.252 S 
ATOM     54  O92 SCR d   1       8.867 -35.744  44.349  0.00  0.00    -0.572 OA
ATOM     55  O93 SCR d   1       6.528 -36.456  44.409  0.00  0.00    -0.572 OA
ATOM     56  O94 SCR d   1       7.291 -34.824  42.724  0.00  0.00    -0.572 OA
ENDBRANCH  52  53
ENDBRANCH  37  52
BRANCH  38  57
ATOM     57  O71 SCR d   1       5.892 -36.336  40.074  0.00  0.00    -0.246 OA
BRANCH  57  58
ATOM     58  S13 SCR d   1       4.469 -36.608  39.886  0.00  0.00     0.252 S 
ATOM     59  O72 SCR d   1       3.757 -35.301  39.690  0.00  0.00    -0.572 OA
ATOM     60  O73 SCR d   1       3.868 -37.289  41.081  0.00  0.00    -0.572 OA
ATOM     61  O74 SCR d   1       4.239 -37.457  38.666  0.00  0.00    -0.572 OA
ENDBRANCH  57  58
ENDBRANCH  38  57
BRANCH  40  62
ATOM     62  C16 SCR d   1       7.330 -38.817  38.409  0.00  0.00     0.067 C 
ATOM     63  H   SCR d   1       6.587 -39.195  37.706  0.00  0.00     0.080 H 
ATOM     64  H   SCR d   1       8.179 -39.498  38.472  0.00  0.00     0.080 H 
BRANCH  62  65
ATOM     65  O51 SCR d   1       7.787 -37.552  37.959  0.00  0.00    -0.254 OA
BRANCH  65  66
ATOM     66  S14 SCR d   1       7.313 -36.940  36.762  0.00  0.00     0.251 S 
ATOM     67  O52 SCR d   1       6.102 -37.637  36.216  0.00  0.00    -0.572 OA
ATOM     68  O53 SCR d   1       8.411 -36.999  35.748  0.00  0.00    -0.572 OA
ATOM     69  O54 SCR d   1       6.967 -35.516  37.060  0.00  0.00    -0.572 OA
ENDBRANCH  65  66
ENDBRANCH  62  65
ENDBRANCH  40  62
ENDBRANCH   1  36
TORSDOF 21
