REMARK WARNING: 32 MAX_TORS EXCEEDED!!!
REMARK  33 active torsions:
REMARK  status: ('A' for Active; 'I' for Inactive)
REMARK    1  A    between atoms: N_1  and  CA_2 
REMARK    2  A    between atoms: CA_2  and  C_3 
REMARK    3  A    between atoms: CA_2  and  CB_5 
REMARK       I    between atoms: C_3  and  N_8 
REMARK    4  A    between atoms: CB_5  and  OG1_6 
REMARK    5  A    between atoms: CB_5  and  CG2_7 
REMARK    6  A    between atoms: N_8  and  CA_9 
REMARK    7  A    between atoms: CA_9  and  C_10 
REMARK    8  A    between atoms: CA_9  and  CB_12 
REMARK       I    between atoms: C_10  and  N_13 
REMARK    9  A    between atoms: CA_14  and  C_15 
REMARK       I    between atoms: C_15  and  N_20 
REMARK   10  A    between atoms: N_20  and  CA_21 
REMARK   11  A    between atoms: CA_21  and  CB_22 
REMARK   12  A    between atoms: CA_21  and  C_29 
REMARK   13  A    between atoms: CB_22  and  CG2_23 
REMARK   14  A    between atoms: CB_22  and  OG1_24 
REMARK   15  A    between atoms: OG1_24  and  P_25 
REMARK       I    between atoms: C_29  and  N_31 
REMARK   16  A    between atoms: N_31  and  CA_32 
REMARK   17  A    between atoms: CA_32  and  C_33 
REMARK   18  A    between atoms: CA_32  and  CB_35 
REMARK       I    between atoms: C_33  and  N_40 
REMARK   19  A    between atoms: CB_35  and  CG_36 
REMARK   20  A    between atoms: CG_36  and  CD_37 
REMARK   21  A    between atoms: N_40  and  CA_41 
REMARK   22  A    between atoms: CA_41  and  C_42 
REMARK   23  A    between atoms: CA_41  and  CB_44 
REMARK       I    between atoms: C_42  and  N_49 
REMARK   24  A    between atoms: CB_44  and  CG_45 
REMARK   25  A    between atoms: CG_45  and  CD_46 
REMARK   26  A    between atoms: CD_46  and  CE_47 
REMARK   27  A    between atoms: CE_47  and  NZ_48 
REMARK   28  A    between atoms: N_49  and  CA_50 
REMARK   29  A    between atoms: CA_50  and  C_51 
REMARK   30  A    between atoms: CA_50  and  CB_53 
REMARK   31  A    between atoms: CB_53  and  CG1_54 
REMARK   32  A    between atoms: CB_53  and  CG2_55 
REMARK   33  A    between atoms: CG1_54  and  CD1_56 
ROOT
ATOM      1  C   TPO d   1       6.904  11.555  44.358  0.00  0.00     0.243 C 
ATOM      2  O   TPO d   1       7.216  11.209  45.488  0.00  0.00    -0.271 OA
ATOM      3  N   GLU d   1       6.668  10.684  43.379  0.00  0.00    -0.346 N 
ATOM      4  H   GLU d   1       6.334  11.019  42.475  0.00  0.00     0.163 HD
ENDROOT
BRANCH   1   5
ATOM      5  CA  TPO d   1       6.731  13.007  44.038  0.00  0.00     0.114 C 
ATOM      6  H   TPO d   1       6.146  13.041  43.119  0.00  0.00     0.091 H 
BRANCH   5   7
ATOM      7  N   TPO d   1       6.080  13.705  45.132  0.00  0.00    -0.344 N 
ATOM      8  C   PRO d   1       4.855  13.401  45.534  0.00  0.00     0.241 C 
ATOM      9  O   PRO d   1       4.149  12.560  44.986  0.00  0.00    -0.271 OA
ATOM     10  H   TPO d   1       6.583  14.455  45.607  0.00  0.00     0.163 HD
BRANCH   8  11
ATOM     11  CA  PRO d   1       4.327  14.205  46.715  0.00  0.00     0.091 C 
ATOM     12  N   PRO d   1       2.928  14.574  46.520  0.00  0.00    -0.337 N 
ATOM     13  C   ALA d   1       2.521  15.174  45.380  0.00  0.00     0.243 C 
ATOM     14  CD  PRO d   1       2.159  14.472  47.775  0.00  0.00    -0.001 C 
ATOM     15  O   ALA d   1       3.309  15.688  44.565  0.00  0.00    -0.271 OA
ATOM     16  CG  PRO d   1       3.159  13.947  48.771  0.00  0.00    -0.048 C 
ATOM     17  H   PRO d   1       1.291  13.820  47.677  0.00  0.00     0.064 H 
ATOM     18  H   PRO d   1       1.735  15.429  48.079  0.00  0.00     0.064 H 
ATOM     19  CB  PRO d   1       4.283  13.335  47.967  0.00  0.00    -0.036 C 
ATOM     20  H   PRO d   1       3.528  14.747  49.413  0.00  0.00     0.035 H 
ATOM     21  H   PRO d   1       2.703  13.208  49.430  0.00  0.00     0.035 H 
ATOM     22  H   PRO d   1       5.230  13.325  48.507  0.00  0.00     0.036 H 
ATOM     23  H   PRO d   1       4.115  12.282  47.742  0.00  0.00     0.036 H 
ATOM     24  H   PRO d   1       4.983  15.071  46.805  0.00  0.00     0.087 H 
BRANCH  13  25
ATOM     25  CA  ALA d   1       1.018  15.202  45.111  0.00  0.00     0.086 C 
ATOM     26  H   ALA d   1       0.498  15.533  46.010  0.00  0.00     0.086 H 
BRANCH  25  27
ATOM     27  N   ALA d   1       0.763  16.087  44.016  0.00  0.00    -0.346 N 
ATOM     28  C   THR d   1       0.815  17.410  44.068  0.00  0.00     0.251 C 
ATOM     29  O   THR d   1       0.939  18.059  45.116  0.00  0.00    -0.271 OA
ATOM     30  H   ALA d   1       0.521  15.664  43.120  0.00  0.00     0.163 HD
BRANCH  28  31
ATOM     31  CA  THR d   1       0.701  18.059  42.672  0.00  0.00     0.199 C 
ATOM     32  H   THR d   1       1.658  17.889  42.178  0.00  0.00     0.103 H 
BRANCH  31  33
ATOM     33  N   THR d   1      -0.376  17.399  41.858  0.00  0.00    -0.064 N 
ATOM     34  H   THR d   1      -0.229  16.390  41.856  0.00  0.00     0.275 HD
ATOM     35  H   THR d   1      -1.287  17.610  42.266  0.00  0.00     0.275 HD
ATOM     36  H   THR d   1      -0.341  17.751  40.901  0.00  0.00     0.275 HD
ENDBRANCH  31  33
BRANCH  31  37
ATOM     37  CB  THR d   1       0.531  19.585  42.712  0.00  0.00     0.068 C 
ATOM     38  H   THR d   1      -0.281  19.832  43.396  0.00  0.00     0.086 H 
BRANCH  37  39
ATOM     39  OG1 THR d   1       0.235  20.061  41.388  0.00  0.00    -0.393 OA
ATOM     40  H   THR d   1       0.128  21.015  41.409  0.00  0.00     0.210 HD
ENDBRANCH  37  39
BRANCH  37  41
ATOM     41  CG2 THR d   1       1.807  20.244  43.193  0.00  0.00    -0.050 C 
ATOM     42  H   THR d   1       2.623  19.989  42.517  0.00  0.00     0.031 H 
ATOM     43  H   THR d   1       1.672  21.325  43.210  0.00  0.00     0.031 H 
ATOM     44  H   THR d   1       2.041  19.890  44.197  0.00  0.00     0.031 H 
ENDBRANCH  37  41
ENDBRANCH  31  37
ENDBRANCH  28  31
ENDBRANCH  25  27
BRANCH  25  45
ATOM     45  CB  ALA d   1       0.540  13.816  44.716  0.00  0.00    -0.049 C 
ATOM     46  H   ALA d   1      -0.528  13.849  44.499  0.00  0.00     0.030 H 
ATOM     47  H   ALA d   1       1.082  13.485  43.830  0.00  0.00     0.030 H 
ATOM     48  H   ALA d   1       0.724  13.122  45.536  0.00  0.00     0.030 H 
ENDBRANCH  25  45
ENDBRANCH  13  25
ENDBRANCH   8  11
ENDBRANCH   5   7
BRANCH   5  49
ATOM     49  CB  TPO d   1       8.072  13.701  43.882  0.00  0.00     0.076 C 
ATOM     50  H   TPO d   1       8.704  13.483  44.743  0.00  0.00     0.087 H 
BRANCH  49  51
ATOM     51  CG2 TPO d   1       8.830  13.192  42.658  0.00  0.00    -0.049 C 
ATOM     52  H   TPO d   1       9.006  12.121  42.761  0.00  0.00     0.031 H 
ATOM     53  H   TPO d   1       8.239  13.380  41.762  0.00  0.00     0.031 H 
ATOM     54  H   TPO d   1       9.784  13.713  42.581  0.00  0.00     0.031 H 
ENDBRANCH  49  51
BRANCH  49  55
ATOM     55  OG1 TPO d   1       7.825  15.113  43.792  0.00  0.00    -0.275 OA
BRANCH  55  56
ATOM     56  P   TPO d   1       8.442  16.169  44.836  0.00  0.00     0.422 P 
ATOM     57  O1P TPO d   1       9.925  15.884  44.772  0.00  0.00    -0.617 OA
ATOM     58  O2P TPO d   1       7.773  15.793  46.140  0.00  0.00    -0.617 OA
ATOM     59  O3P TPO d   1       8.070  17.520  44.295  0.00  0.00    -0.617 OA
ENDBRANCH  55  56
ENDBRANCH  49  55
ENDBRANCH   5  49
ENDBRANCH   1   5
BRANCH   3  60
ATOM     60  CA  GLU d   1       6.882   9.258  43.584  0.00  0.00     0.090 C 
ATOM     61  H   GLU d   1       6.612   9.012  44.611  0.00  0.00     0.087 H 
BRANCH  60  62
ATOM     62  C   GLU d   1       8.348   8.943  43.346  0.00  0.00     0.241 C 
ATOM     63  O   GLU d   1       8.936   9.383  42.355  0.00  0.00    -0.271 OA
ATOM     64  N   LYS d   1       8.937   8.199  44.276  0.00  0.00    -0.346 N 
ATOM     65  H   LYS d   1       8.384   7.867  45.066  0.00  0.00     0.163 HD
BRANCH  64  66
ATOM     66  CA  LYS d   1      10.343   7.843  44.203  0.00  0.00     0.089 C 
ATOM     67  H   LYS d   1      10.919   8.707  43.872  0.00  0.00     0.087 H 
BRANCH  66  68
ATOM     68  C   LYS d   1      10.561   6.726  43.176  0.00  0.00     0.241 C 
ATOM     69  O   LYS d   1       9.906   5.690  43.228  0.00  0.00    -0.271 OA
ATOM     70  N   ILE d   1      11.463   6.963  42.228  0.00  0.00    -0.344 N 
ATOM     71  H   ILE d   1      11.902   7.883  42.190  0.00  0.00     0.163 HD
BRANCH  70  72
ATOM     72  CA  ILE d   1      11.852   5.956  41.236  0.00  0.00     0.099 C 
ATOM     73  H   ILE d   1      11.019   5.264  41.115  0.00  0.00     0.090 H 
BRANCH  72  74
ATOM     74  C   ILE d   1      13.096   5.233  41.735  0.00  0.00     0.197 C 
ATOM     75  O   ILE d   1      13.285   4.058  41.447  0.00  0.00    -0.646 OA
ATOM     76  O   ILE d   1      13.935   5.847  42.447  0.00  0.00    -0.646 OA
ENDBRANCH  72  74
BRANCH  72  77
ATOM     77  CB  ILE d   1      12.140   6.579  39.837  0.00  0.00    -0.029 C 
ATOM     78  H   ILE d   1      12.966   7.281  39.953  0.00  0.00     0.043 H 
BRANCH  77  79
ATOM     79  CG1 ILE d   1      10.917   7.340  39.319  0.00  0.00    -0.063 C 
ATOM     80  H   ILE d   1      10.577   8.000  40.117  0.00  0.00     0.033 H 
ATOM     81  H   ILE d   1      10.171   6.602  39.023  0.00  0.00     0.033 H 
BRANCH  79  82
ATOM     82  CD1 ILE d   1      11.213   8.194  38.118  0.00  0.00    -0.076 C 
ATOM     83  H   ILE d   1      11.974   8.931  38.376  0.00  0.00     0.027 H 
ATOM     84  H   ILE d   1      11.576   7.564  37.306  0.00  0.00     0.027 H 
ATOM     85  H   ILE d   1      10.303   8.705  37.804  0.00  0.00     0.027 H 
ENDBRANCH  79  82
ENDBRANCH  77  79
BRANCH  77  86
ATOM     86  CG2 ILE d   1      12.563   5.500  38.821  0.00  0.00    -0.070 C 
ATOM     87  H   ILE d   1      13.468   5.005  39.174  0.00  0.00     0.028 H 
ATOM     88  H   ILE d   1      11.763   4.767  38.717  0.00  0.00     0.028 H 
ATOM     89  H   ILE d   1      12.757   5.968  37.856  0.00  0.00     0.028 H 
ENDBRANCH  77  86
ENDBRANCH  72  77
ENDBRANCH  70  72
ENDBRANCH  66  68
BRANCH  66  90
ATOM     90  CB  LYS d   1      10.843   7.433  45.596  0.00  0.00    -0.038 C 
ATOM     91  H   LYS d   1      10.411   6.454  45.805  0.00  0.00     0.036 H 
ATOM     92  H   LYS d   1      10.550   8.231  46.278  0.00  0.00     0.036 H 
BRANCH  90  93
ATOM     93  CG  LYS d   1      12.356   7.278  45.733  0.00  0.00    -0.061 C 
ATOM     94  H   LYS d   1      12.738   6.850  44.806  0.00  0.00     0.033 H 
ATOM     95  H   LYS d   1      12.555   6.640  46.594  0.00  0.00     0.033 H 
BRANCH  93  96
ATOM     96  CD  LYS d   1      13.054   8.613  45.961  0.00  0.00    -0.043 C 
ATOM     97  H   LYS d   1      12.505   9.160  46.727  0.00  0.00     0.035 H 
ATOM     98  H   LYS d   1      13.076   9.155  45.015  0.00  0.00     0.035 H 
BRANCH  96  99
ATOM     99  CE  LYS d   1      14.496   8.425  46.442  0.00  0.00     0.080 C 
ATOM    100  H   LYS d   1      15.022   7.806  45.715  0.00  0.00     0.075 H 
ATOM    101  H   LYS d   1      14.471   7.958  47.427  0.00  0.00     0.075 H 
BRANCH  99 102
ATOM    102  NZ  LYS d   1      15.216   9.731  46.558  0.00  0.00    -0.079 N 
ATOM    103  H   LYS d   1      16.169   9.565  46.880  0.00  0.00     0.274 HD
ATOM    104  H   LYS d   1      15.238  10.188  45.646  0.00  0.00     0.274 HD
ATOM    105  H   LYS d   1      14.729  10.328  47.227  0.00  0.00     0.274 HD
ENDBRANCH  99 102
ENDBRANCH  96  99
ENDBRANCH  93  96
ENDBRANCH  90  93
ENDBRANCH  66  90
ENDBRANCH  64  66
ENDBRANCH  60  62
BRANCH  60 106
ATOM    106  CB  GLU d   1       5.981   8.398  42.686  0.00  0.00    -0.029 C 
ATOM    107  H   GLU d   1       6.085   7.364  43.014  0.00  0.00     0.037 H 
ATOM    108  H   GLU d   1       6.294   8.563  41.655  0.00  0.00     0.037 H 
BRANCH 106 109
ATOM    109  CG  GLU d   1       4.505   8.760  42.778  0.00  0.00     0.018 C 
ATOM    110  H   GLU d   1       4.343   9.630  42.142  0.00  0.00     0.049 H 
ATOM    111  H   GLU d   1       4.278   8.937  43.829  0.00  0.00     0.049 H 
BRANCH 109 112
ATOM    112  CD  GLU d   1       3.576   7.662  42.291  0.00  0.00     0.172 C 
ATOM    113  OE1 GLU d   1       3.929   6.926  41.344  0.00  0.00    -0.648 OA
ATOM    114  OE2 GLU d   1       2.473   7.547  42.861  0.00  0.00    -0.648 OA
ENDBRANCH 109 112
ENDBRANCH 106 109
ENDBRANCH  60 106
ENDBRANCH   3  60
TORSDOF 33
