REMARK  13 active torsions:
REMARK  status: ('A' for Active; 'I' for Inactive)
REMARK    1  A    between atoms: N3_2  and  C7_6 
REMARK       I    between atoms: C8_7  and  N3_2 
REMARK    2  A    between atoms: C7_6  and  C6_5 
REMARK    3  A    between atoms: C6_5  and  N2_33 
REMARK    4  A    between atoms: C9_35  and  C8_7 
REMARK    5  A    between atoms: N4_27  and  C10_8 
REMARK    6  A    between atoms: C13_9  and  O1_22 
REMARK    7  A    between atoms: C20_12  and  C22_14 
REMARK    8  A    between atoms: C23_36  and  C24_15 
REMARK    9  A    between atoms: O1_22  and  C16_21 
REMARK   10  A    between atoms: C1_28  and  N4_27 
REMARK   11  A    between atoms: C9_35  and  C23_36 
REMARK   12  A    between atoms: C23_36  and  O2_37 
REMARK   13  A    between atoms: C23_36  and  C25_38 
ROOT
ATOM      1  N1  03P d   1      14.734  33.559  13.161  0.00  0.00    -0.222 NA
ATOM      2  C4  03P d   1      15.890  35.034  17.235  0.00  0.00    -0.018 A 
ATOM      3  C5  03P d   1      14.518  34.854  17.058  0.00  0.00    -0.038 A 
ATOM      4  C1  03P d   1      15.875  33.886  13.812  0.00  0.00     0.159 A 
ATOM      5  C   03P d   1      13.519  33.645  13.738  0.00  0.00     0.089 A 
ATOM      6  C3  03P d   1      15.733  34.309  15.146  0.00  0.00     0.110 A 
ATOM      7  C2  03P d   1      14.475  34.412  15.705  0.00  0.00     0.090 A 
ATOM      8  N   03P d   1      13.371  34.064  15.005  0.00  0.00    -0.240 NA
ATOM      9  N2  03P d   1      16.593  34.740  16.100  0.00  0.00    -0.350 N 
ATOM     10  H2  03P d   1      16.346  35.368  18.166  0.00  0.00     0.111 H 
ATOM     11  H3  03P d   1      13.702  35.009  17.762  0.00  0.00     0.089 H 
ATOM     12  H19 03P d   1      12.641  33.369  13.166  0.00  0.00     0.146 H 
ENDROOT
BRANCH   4  13
ATOM     13  N4  03P d   1      17.081  33.810  13.180  0.00  0.00    -0.339 N 
ATOM     14  H18 03P d   1      17.933  33.973  13.736  0.00  0.00     0.167 HD
BRANCH  13  15
ATOM     15  C10 03P d   1      17.224  33.527  11.835  0.00  0.00     0.035 A 
ATOM     16  C15 03P d   1      18.135  32.543  11.422  0.00  0.00    -0.054 A 
ATOM     17  C14 03P d   1      18.317  32.250  10.052  0.00  0.00    -0.046 A 
ATOM     18  H8  03P d   1      18.707  32.000  12.165  0.00  0.00     0.087 H 
ATOM     19  C13 03P d   1      17.550  32.921   9.098  0.00  0.00     0.098 A 
ATOM     20  H17 03P d   1      19.047  31.510   9.744  0.00  0.00     0.087 H 
ATOM     21  C12 03P d   1      16.654  33.895   9.521  0.00  0.00     0.070 A 
ATOM     22 CL   03P d   1      15.676  34.766   8.319  0.00  0.00    -0.081 Cl
ATOM     23  C11 03P d   1      16.476  34.203  10.862  0.00  0.00    -0.033 A 
ATOM     24  H16 03P d   1      15.761  34.963  11.156  0.00  0.00     0.089 H 
BRANCH  19  25
ATOM     25  O1  03P d   1      17.688  32.640   7.745  0.00  0.00    -0.309 OA
BRANCH  25  26
ATOM     26  C16 03P d   1      17.456  31.366   7.300  0.00  0.00     0.076 A 
ATOM     27  C17 03P d   1      18.404  30.743   6.486  0.00  0.00    -0.050 A 
ATOM     28  C18 03P d   1      18.188  29.452   6.017  0.00  0.00    -0.080 A 
ATOM     29  H9  03P d   1      19.313  31.269   6.218  0.00  0.00     0.087 H 
ATOM     30  C19 03P d   1      17.012  28.782   6.348  0.00  0.00    -0.068 A 
ATOM     31  H15 03P d   1      18.933  28.968   5.395  0.00  0.00     0.083 H 
ATOM     32  C20 03P d   1      16.048  29.394   7.164  0.00  0.00     0.050 A 
ATOM     33  H14 03P d   1      16.840  27.780   5.972  0.00  0.00     0.084 H 
ATOM     34  C21 03P d   1      16.266  30.695   7.625  0.00  0.00    -0.036 A 
ATOM     35  H10 03P d   1      15.516  31.187   8.234  0.00  0.00     0.089 H 
BRANCH  32  36
ATOM     36  C22 03P d   1      14.802  28.623   7.500  0.00  0.00     0.417 C 
ATOM     37  F2  03P d   1      13.867  29.356   8.056  0.00  0.00    -0.166 F 
ATOM     38  F   03P d   1      14.283  28.118   6.395  0.00  0.00    -0.166 F 
ATOM     39  F1  03P d   1      15.102  27.632   8.330  0.00  0.00    -0.166 F 
ENDBRANCH  32  36
ENDBRANCH  25  26
ENDBRANCH  19  25
ENDBRANCH  13  15
ENDBRANCH   4  13
BRANCH   9  40
ATOM     40  C6  03P d   1      18.073  34.788  16.054  0.00  0.00     0.014 C 
ATOM     41  H4  03P d   1      18.427  34.630  17.083  0.00  0.00     0.067 H 
ATOM     42  H5  03P d   1      18.398  33.949  15.422  0.00  0.00     0.067 H 
BRANCH  40  43
ATOM     43  C7  03P d   1      18.783  36.032  15.531  0.00  0.00     0.010 C 
ATOM     44  H6  03P d   1      18.368  36.301  14.549  0.00  0.00     0.066 H 
ATOM     45  H7  03P d   1      18.627  36.862  16.235  0.00  0.00     0.066 H 
BRANCH  43  46
ATOM     46  N3  03P d   1      20.225  35.775  15.395  0.00  0.00    -0.359 N 
ATOM     47  C8  03P d   1      20.715  35.001  14.407  0.00  0.00     0.220 C 
ATOM     48  O   03P d   1      20.014  34.442  13.583  0.00  0.00    -0.274 OA
ATOM     49  H1  03P d   1      20.857  36.185  16.052  0.00  0.00     0.162 HD
BRANCH  47  50
ATOM     50  C9  03P d   1      22.220  34.825  14.324  0.00  0.00     0.037 C 
ATOM     51  H20 03P d   1      22.662  35.074  15.300  0.00  0.00     0.051 H 
ATOM     52  H21 03P d   1      22.616  35.507  13.557  0.00  0.00     0.051 H 
BRANCH  50  53
ATOM     53  C23 03P d   1      22.607  33.386  13.956  0.00  0.00     0.059 C 
BRANCH  53  54
ATOM     54  C24 03P d   1      24.121  33.228  14.043  0.00  0.00    -0.048 C 
ATOM     55  H11 03P d   1      24.398  32.197  13.779  0.00  0.00     0.031 H 
ATOM     56  H12 03P d   1      24.454  33.446  15.068  0.00  0.00     0.031 H 
ATOM     57  H13 03P d   1      24.603  33.927  13.344  0.00  0.00     0.031 H 
ENDBRANCH  53  54
BRANCH  53  58
ATOM     58  O2  03P d   1      22.020  32.500  14.919  0.00  0.00    -0.390 OA
ATOM     59  H22 03P d   1      21.075  32.598  14.903  0.00  0.00     0.210 HD
ENDBRANCH  53  58
BRANCH  53  60
ATOM     60  C25 03P d   1      22.147  32.956  12.561  0.00  0.00    -0.048 C 
ATOM     61  H23 03P d   1      22.462  31.919  12.375  0.00  0.00     0.031 H 
ATOM     62  H24 03P d   1      22.598  33.617  11.806  0.00  0.00     0.031 H 
ATOM     63  H25 03P d   1      21.051  33.023  12.499  0.00  0.00     0.031 H 
ENDBRANCH  53  60
ENDBRANCH  50  53
ENDBRANCH  47  50
ENDBRANCH  43  46
ENDBRANCH  40  43
ENDBRANCH   9  40
TORSDOF 13
