REMARK  11 active torsions:
REMARK  status: ('A' for Active; 'I' for Inactive)
REMARK    1  A    between atoms: O1_1  and  C2_2 
REMARK    2  A    between atoms: C2_2  and  C3_3 
REMARK    3  A    between atoms: C3_3  and  O4_4 
REMARK    4  A    between atoms: O4_4  and  C5_5 
REMARK    5  A    between atoms: C5_5  and  C6_6 
REMARK    6  A    between atoms: C6_6  and  N7_7 
REMARK    7  A    between atoms: C14_14  and  N15_15 
REMARK    8  A    between atoms: N15_15  and  C16_16 
REMARK    9  A    between atoms: C19_19  and  O20_20 
REMARK   10  A    between atoms: O20_20  and  C21_21 
REMARK   11  A    between atoms: C25_25  and  C27_27 
ROOT
ATOM      1  N7  03Q d   1      16.711  11.455  28.835  0.00  0.00    -0.350 N 
ATOM      2  C8  03Q d   1      17.248  10.426  29.552  0.00  0.00    -0.018 A 
ATOM      3  C9  03Q d   1      18.570  10.621  29.744  0.00  0.00    -0.038 A 
ATOM      4  C10 03Q d   1      18.915  11.871  29.091  0.00  0.00     0.090 A 
ATOM      5  N11 03Q d   1      20.060  12.566  28.947  0.00  0.00    -0.240 NA
ATOM      6  C12 03Q d   1      20.073  13.702  28.276  0.00  0.00     0.089 A 
ATOM      7  N13 03Q d   1      18.965  14.211  27.729  0.00  0.00    -0.222 NA
ATOM      8  C14 03Q d   1      17.778  13.583  27.824  0.00  0.00     0.159 A 
ATOM      9  C34 03Q d   1      17.710  12.358  28.525  0.00  0.00     0.110 A 
ATOM     10  H10 03Q d   1      16.688   9.567  29.919  0.00  0.00     0.111 H 
ATOM     11  H11 03Q d   1      19.249   9.965  30.286  0.00  0.00     0.089 H 
ATOM     12  H12 03Q d   1      21.009  14.238  28.165  0.00  0.00     0.146 H 
ENDROOT
BRANCH   8  13
ATOM     13  N15 03Q d   1      16.633  14.129  27.253  0.00  0.00    -0.338 N 
ATOM     14  H13 03Q d   1      15.726  13.670  27.418  0.00  0.00     0.167 HD
BRANCH  13  15
ATOM     15  C16 03Q d   1      16.674  15.283  26.461  0.00  0.00     0.053 A 
ATOM     16  C17 03Q d   1      15.830  16.347  26.775  0.00  0.00     0.031 A 
ATOM     17  N18 03Q d   1      15.816  17.460  26.065  0.00  0.00    -0.233 NA
ATOM     18  H14 03Q d   1      15.166  16.258  27.627  0.00  0.00     0.118 H 
ATOM     19  C19 03Q d   1      16.613  17.627  25.038  0.00  0.00     0.192 A 
ATOM     20  C31 03Q d   1      17.491  16.602  24.657  0.00  0.00     0.089 A 
ATOM     21 CL32 03Q d   1      18.530  16.801  23.292  0.00  0.00    -0.080 Cl
ATOM     22  C33 03Q d   1      17.530  15.411  25.373  0.00  0.00    -0.030 A 
ATOM     23  H19 03Q d   1      18.204  14.610  25.093  0.00  0.00     0.089 H 
BRANCH  19  24
ATOM     24  O20 03Q d   1      16.547  18.810  24.362  0.00  0.00    -0.291 OA
BRANCH  24  25
ATOM     25  C21 03Q d   1      17.383  19.853  24.657  0.00  0.00     0.078 A 
ATOM     26  C22 03Q d   1      18.444  19.738  25.553  0.00  0.00    -0.050 A 
ATOM     27  C23 03Q d   1      19.283  20.819  25.810  0.00  0.00    -0.080 A 
ATOM     28  H15 03Q d   1      18.619  18.794  26.057  0.00  0.00     0.087 H 
ATOM     29  C24 03Q d   1      19.083  22.033  25.177  0.00  0.00    -0.068 A 
ATOM     30  H16 03Q d   1      20.101  20.709  26.513  0.00  0.00     0.083 H 
ATOM     31  C25 03Q d   1      18.032  22.139  24.278  0.00  0.00     0.050 A 
ATOM     32  H17 03Q d   1      19.730  22.879  25.378  0.00  0.00     0.084 H 
ATOM     33  C26 03Q d   1      17.194  21.064  24.014  0.00  0.00    -0.036 A 
ATOM     34  H18 03Q d   1      16.386  21.174  23.299  0.00  0.00     0.089 H 
BRANCH  31  35
ATOM     35  C27 03Q d   1      17.817  23.452  23.592  0.00  0.00     0.417 C 
ATOM     36  F28 03Q d   1      16.867  23.402  22.593  0.00  0.00    -0.166 F 
ATOM     37  F29 03Q d   1      19.036  23.876  23.071  0.00  0.00    -0.166 F 
ATOM     38  F30 03Q d   1      17.330  24.362  24.497  0.00  0.00    -0.166 F 
ENDBRANCH  31  35
ENDBRANCH  24  25
ENDBRANCH  19  24
ENDBRANCH  13  15
ENDBRANCH   8  13
BRANCH   1  39
ATOM     39  C6  03Q d   1      15.287  11.504  28.425  0.00  0.00     0.019 C 
ATOM     40  H8  03Q d   1      15.223  12.016  27.454  0.00  0.00     0.068 H 
ATOM     41  H9  03Q d   1      14.921  10.472  28.320  0.00  0.00     0.068 H 
BRANCH  39  42
ATOM     42  C5  03Q d   1      14.386  12.236  29.415  0.00  0.00     0.035 C 
ATOM     43  H6  03Q d   1      13.392  11.765  29.444  0.00  0.00     0.076 H 
ATOM     44  H7  03Q d   1      14.831  12.216  30.421  0.00  0.00     0.076 H 
BRANCH  42  45
ATOM     45  O4  03Q d   1      14.282  13.578  28.949  0.00  0.00    -0.387 OA
BRANCH  45  46
ATOM     46  C3  03Q d   1      13.642  14.488  29.843  0.00  0.00     0.039 C 
ATOM     47  H4  03Q d   1      13.060  13.918  30.582  0.00  0.00     0.077 H 
ATOM     48  H5  03Q d   1      14.409  15.083  30.360  0.00  0.00     0.077 H 
BRANCH  46  49
ATOM     49  C2  03Q d   1      12.701  15.432  29.083  0.00  0.00     0.036 C 
ATOM     50  H2  03Q d   1      11.663  15.132  29.290  0.00  0.00     0.077 H 
ATOM     51  H3  03Q d   1      12.866  16.457  29.448  0.00  0.00     0.077 H 
BRANCH  49  52
ATOM     52  O1  03Q d   1      12.904  15.416  27.666  0.00  0.00    -0.399 OA
ATOM     53  H1  03Q d   1      12.295  16.017  27.253  0.00  0.00     0.209 HD
ENDBRANCH  49  52
ENDBRANCH  46  49
ENDBRANCH  45  46
ENDBRANCH  42  45
ENDBRANCH  39  42
ENDBRANCH   1  39
TORSDOF 11
