REMARK  8 active torsions:
REMARK  status: ('A' for Active; 'I' for Inactive)
REMARK    1  A    between atoms: C1_1  and  N2_2 
REMARK    2  A    between atoms: N6_6  and  C7_7 
REMARK    3  A    between atoms: C7_7  and  C8_8 
REMARK    4  A    between atoms: C8_8  and  O10_9 
REMARK    5  A    between atoms: C8_8  and  C11_10 
REMARK    6  A    between atoms: C11_10  and  O12_11 
REMARK    7  A    between atoms: C16_15  and  N17_16 
REMARK    8  A    between atoms: N17_16  and  C18_17 
ROOT
ATOM      1  N2  IZG d   1     -34.337  32.016   3.749  0.00  0.00    -0.303 N 
ATOM      2  C3  IZG d   1     -33.041  31.559   3.887  0.00  0.00     0.146 A 
ATOM      3  N4  IZG d   1     -32.034  32.010   3.098  0.00  0.00    -0.252 NA
ATOM      4  C5  IZG d   1     -30.791  31.569   3.225  0.00  0.00     0.079 A 
ATOM      5  N6  IZG d   1     -30.421  30.628   4.153  0.00  0.00    -0.327 N 
ATOM      6  C13 IZG d   1     -31.384  30.114   4.999  0.00  0.00     0.261 A 
ATOM      7  O14 IZG d   1     -31.099  29.272   5.842  0.00  0.00    -0.267 OA
ATOM      8  C15 IZG d   1     -32.734  30.587   4.874  0.00  0.00     0.103 A 
ATOM      9  C16 IZG d   1     -33.818  30.094   5.725  0.00  0.00     0.073 A 
ATOM     10  C26 IZG d   1     -35.093  30.619   5.527  0.00  0.00     0.196 A 
ATOM     11  F27 IZG d   1     -36.124  30.209   6.286  0.00  0.00    -0.233 F 
ATOM     12  C28 IZG d   1     -35.338  31.574   4.535  0.00  0.00     0.265 A 
ATOM     13  O29 IZG d   1     -36.487  31.993   4.394  0.00  0.00    -0.269 OA
ATOM     14  H   IZG d   1     -30.244  32.457   3.542  0.00  0.00     0.100 H 
ATOM     15  H   IZG d   1     -30.609  31.065   2.276  0.00  0.00     0.100 H 
ATOM     16  H   IZG d   1     -34.008  30.581   5.629  0.00  0.00     0.117 H 
ENDROOT
BRANCH   9  17
ATOM     17  N17 IZG d   1     -33.541  29.140   6.691  0.00  0.00    -0.353 N 
ATOM     18  H   IZG d   1     -32.702  29.304   7.248  0.00  0.00     0.166 HD
BRANCH  17  19
ATOM     19  C18 IZG d   1     -34.261  27.980   7.004  0.00  0.00     0.071 A 
ATOM     20  C19 IZG d   1     -35.398  27.568   6.306  0.00  0.00    -0.053 A 
ATOM     21  C20 IZG d   1     -36.070  26.400   6.669  0.00  0.00    -0.065 A 
ATOM     22  H   IZG d   1     -35.764  28.164   5.470  0.00  0.00     0.087 H 
ATOM     23  C21 IZG d   1     -35.640  25.619   7.749  0.00  0.00     0.009 A 
ATOM     24  H   IZG d   1     -36.947  26.090   6.101  0.00  0.00     0.085 H 
ATOM     25  I22 IZG d   1     -36.686  23.852   8.304  0.00  0.00    -0.044 I 
ATOM     26  C23 IZG d   1     -34.502  26.043   8.445  0.00  0.00    -0.027 A 
ATOM     27  C24 IZG d   1     -33.811  27.207   8.081  0.00  0.00     0.144 A 
ATOM     28  H   IZG d   1     -34.145  25.454   9.290  0.00  0.00     0.090 H 
ATOM     29  F25 IZG d   1     -32.711  27.590   8.778  0.00  0.00    -0.204 F 
ENDBRANCH  17  19
ENDBRANCH   9  17
BRANCH   1  30
ATOM     30  C1  IZG d   1     -34.643  33.018   2.736  0.00  0.00    -0.010 C 
ATOM     31  H   IZG d   1     -35.386  32.620   2.046  0.00  0.00     0.057 H 
ATOM     32  H   IZG d   1     -35.036  33.913   3.219  0.00  0.00     0.057 H 
ATOM     33  H   IZG d   1     -33.734  33.269   2.188  0.00  0.00     0.057 H 
ENDBRANCH   1  30
BRANCH   5  34
ATOM     34  C7  IZG d   1     -29.019  30.145   4.203  0.00  0.00     0.025 C 
ATOM     35  H   IZG d   1     -28.698  30.052   3.166  0.00  0.00     0.068 H 
ATOM     36  H   IZG d   1     -29.039  29.231   4.796  0.00  0.00     0.068 H 
BRANCH  34  37
ATOM     37  C8  IZG d   1     -27.994  31.064   4.880  0.00  0.00     0.071 C 
ATOM     38  H   IZG d   1     -27.942  32.015   4.351  0.00  0.00     0.088 H 
BRANCH  37  39
ATOM     39  O10 IZG d   1     -28.379  31.346   6.232  0.00  0.00    -0.392 OA
ATOM     40  H   IZG d   1     -28.433  30.525   6.726  0.00  0.00     0.210 HD
ENDBRANCH  37  39
BRANCH  37  41
ATOM     41  C11 IZG d   1     -26.618  30.361   4.842  0.00  0.00     0.042 C 
ATOM     42  H   IZG d   1     -25.919  31.046   4.362  0.00  0.00     0.077 H 
ATOM     43  H   IZG d   1     -26.753  29.418   4.312  0.00  0.00     0.077 H 
BRANCH  41  44
ATOM     44  O12 IZG d   1     -26.080  30.046   6.143  0.00  0.00    -0.398 OA
ATOM     45  H   IZG d   1     -25.970  30.855   6.647  0.00  0.00     0.209 HD
ENDBRANCH  41  44
ENDBRANCH  37  41
ENDBRANCH  34  37
ENDBRANCH   5  34
TORSDOF 8
