REMARK  8 active torsions:
REMARK  status: ('A' for Active; 'I' for Inactive)
REMARK    1  A    between atoms: C49_6  and  C51_7 
REMARK       I    between atoms: C51_7  and  N53_9 
REMARK    2  A    between atoms: N53_9  and  C55_10 
REMARK    3  A    between atoms: C57_12  and  C59_13 
REMARK    4  A    between atoms: C58_16  and  C61_17 
REMARK       I    between atoms: C61_17  and  N63_19 
REMARK    5  A    between atoms: N63_19  and  C65_20 
REMARK    6  A    between atoms: C71_23  and  S75_24 
REMARK    7  A    between atoms: C69_31  and  S73_32 
REMARK    8  A    between atoms: C76_37  and  S83_38 
ROOT
ATOM      1  C61 SVR d   1      26.984  19.985  45.919  0.00  0.00     0.256 C 
ATOM      2  O64 SVR d   1      25.765  19.894  45.774  0.00  0.00    -0.267 OA
ATOM      3  N63 SVR d   1      27.857  20.252  44.924  0.00  0.00    -0.322 N 
ATOM      4  H   SVR d   1      28.835  20.289  45.209  0.00  0.00     0.169 HD
ENDROOT
BRANCH   1   5
ATOM      5  C58 SVR d   1      27.616  19.758  47.329  0.00  0.00     0.034 A 
ATOM      6  C56 SVR d   1      28.164  20.807  48.084  0.00  0.00    -0.041 A 
ATOM      7  C55 SVR d   1      28.727  20.598  49.359  0.00  0.00     0.042 A 
ATOM      8  H   SVR d   1      28.154  21.816  47.671  0.00  0.00     0.088 H 
ATOM      9  C57 SVR d   1      28.744  19.289  49.878  0.00  0.00    -0.035 A 
ATOM     10  C60 SVR d   1      28.198  18.239  49.132  0.00  0.00    -0.074 A 
ATOM     11  C62 SVR d   1      27.640  18.472  47.872  0.00  0.00    -0.067 A 
ATOM     12  H   SVR d   1      28.208  17.227  49.538  0.00  0.00     0.084 H 
ATOM     13  H   SVR d   1      27.219  17.640  47.307  0.00  0.00     0.085 H 
BRANCH   7  14
ATOM     14  N53 SVR d   1      29.248  21.654  50.031  0.00  0.00    -0.322 N 
ATOM     15  C51 SVR d   1      28.697  22.236  51.117  0.00  0.00     0.256 C 
ATOM     16  O54 SVR d   1      27.654  21.851  51.651  0.00  0.00    -0.267 OA
ATOM     17  H   SVR d   1      30.128  22.040  49.688  0.00  0.00     0.169 HD
BRANCH  15  18
ATOM     18  C49 SVR d   1      29.463  23.453  51.707  0.00  0.00     0.032 A 
ATOM     19  C47 SVR d   1      29.335  23.772  53.066  0.00  0.00    -0.068 A 
ATOM     20  C46 SVR d   1      30.014  24.866  53.613  0.00  0.00    -0.082 A 
ATOM     21  H   SVR d   1      28.698  23.160  53.705  0.00  0.00     0.085 H 
ATOM     22  C48 SVR d   1      30.826  25.658  52.799  0.00  0.00    -0.083 A 
ATOM     23  H   SVR d   1      29.909  25.100  54.672  0.00  0.00     0.083 H 
ATOM     24  C50 SVR d   1      30.957  25.353  51.442  0.00  0.00    -0.082 A 
ATOM     25  H   SVR d   1      31.356  26.512  53.221  0.00  0.00     0.083 H 
ATOM     26  C52 SVR d   1      30.279  24.256  50.899  0.00  0.00    -0.068 A 
ATOM     27  H   SVR d   1      31.589  25.971  50.804  0.00  0.00     0.083 H 
ATOM     28  H   SVR d   1      30.386  24.024  49.839  0.00  0.00     0.085 H 
ENDBRANCH  15  18
ENDBRANCH   7  14
BRANCH   9  29
ATOM     29  C59 SVR d   1      29.346  18.966  51.256  0.00  0.00    -0.049 C 
ATOM     30  H   SVR d   1      28.575  18.537  51.896  0.00  0.00     0.033 H 
ATOM     31  H   SVR d   1      30.161  18.252  51.137  0.00  0.00     0.033 H 
ATOM     32  H   SVR d   1      29.727  19.882  51.708  0.00  0.00     0.033 H 
ENDBRANCH   9  29
ENDBRANCH   1   5
BRANCH   3  33
ATOM     33  C65 SVR d   1      27.637  20.479  43.601  0.00  0.00     0.047 A 
ATOM     34  C67 SVR d   1      26.375  20.847  43.111  0.00  0.00    -0.055 A 
ATOM     35  C70 SVR d   1      26.157  21.080  41.749  0.00  0.00    -0.056 A 
ATOM     36  H   SVR d   1      25.544  20.954  43.809  0.00  0.00     0.087 H 
ATOM     37  C71 SVR d   1      27.200  20.962  40.830  0.00  0.00     0.091 A 
ATOM     38  H   SVR d   1      25.162  21.357  41.402  0.00  0.00     0.086 H 
ATOM     39  C68 SVR d   1      28.468  20.605  41.301  0.00  0.00     0.004 A 
ATOM     40  C66 SVR d   1      28.703  20.361  42.677  0.00  0.00     0.027 A 
ATOM     41  C72 SVR d   1      29.507  20.492  40.371  0.00  0.00    -0.047 A 
ATOM     42  C69 SVR d   1      30.014  20.000  43.065  0.00  0.00     0.095 A 
ATOM     43  C74 SVR d   1      31.029  19.895  42.113  0.00  0.00    -0.035 A 
ATOM     44  C76 SVR d   1      30.789  20.137  40.768  0.00  0.00     0.083 A 
ATOM     45  H   SVR d   1      32.033  19.617  42.433  0.00  0.00     0.088 H 
ATOM     46  H   SVR d   1      29.307  20.686  39.317  0.00  0.00     0.087 H 
BRANCH  37  47
ATOM     47  S75 SVR d   1      26.939  21.264  39.084  0.00  0.00     0.138 S 
ATOM     48  O80 SVR d   1      25.555  21.463  38.794  0.00  0.00    -0.591 OA
ATOM     49  O81 SVR d   1      27.423  20.101  38.274  0.00  0.00    -0.591 OA
ATOM     50  O82 SVR d   1      27.703  22.486  38.675  0.00  0.00    -0.591 OA
ENDBRANCH  37  47
BRANCH  42  51
ATOM     51  S73 SVR d   1      30.511  19.657  44.722  0.00  0.00     0.138 S 
ATOM     52  O77 SVR d   1      31.908  19.344  44.733  0.00  0.00    -0.591 OA
ATOM     53  O78 SVR d   1      29.750  18.477  45.260  0.00  0.00    -0.591 OA
ATOM     54  O79 SVR d   1      30.297  20.863  45.591  0.00  0.00    -0.591 OA
ENDBRANCH  42  51
BRANCH  44  55
ATOM     55  S83 SVR d   1      32.096  19.993  39.592  0.00  0.00     0.137 S 
ATOM     56  O85 SVR d   1      31.946  18.777  38.847  0.00  0.00    -0.591 OA
ATOM     57  O86 SVR d   1      33.409  19.983  40.321  0.00  0.00    -0.591 OA
ATOM     58  O84 SVR d   1      32.059  21.163  38.649  0.00  0.00    -0.591 OA
ENDBRANCH  44  55
ENDBRANCH   3  33
TORSDOF 8
