REMARK  7 active torsions:
REMARK  status: ('A' for Active; 'I' for Inactive)
REMARK    1  A    between atoms: C7_7  and  N14_14 
REMARK    2  A    between atoms: C8_8  and  C10_10 
REMARK    3  A    between atoms: C10_10  and  O12_12 
REMARK    4  A    between atoms: O12_12  and  C13_13 
REMARK    5  A    between atoms: N14_14  and  C15_15 
REMARK    6  A    between atoms: C23_23  and  N24_24 
REMARK    7  A    between atoms: N24_24  and  O25_25 
ROOT
ATOM      1  N14 FOI d   1      83.528   7.141  -7.289  0.00  0.00    -0.353 N 
ATOM      2  H   FOI d   1      84.389   6.651  -7.048  0.00  0.00     0.166 HD
ENDROOT
BRANCH   1   3
ATOM      3  C7  FOI d   1      83.717   8.382  -7.809  0.00  0.00     0.086 A 
ATOM      4  C5  FOI d   1      82.761   9.455  -8.023  0.00  0.00     0.030 A 
ATOM      5  C4  FOI d   1      83.448  10.455  -8.555  0.00  0.00     0.106 A 
ATOM      6  C6  FOI d   1      81.409   9.581  -7.814  0.00  0.00    -0.051 A 
ATOM      7  C3  FOI d   1      82.835  11.650  -8.886  0.00  0.00     0.035 A 
ATOM      8  O9  FOI d   1      84.766  10.168  -8.697  0.00  0.00    -0.300 OA
ATOM      9  N2  FOI d   1      81.505  11.813  -8.687  0.00  0.00    -0.270 NA
ATOM     10  H   FOI d   1      83.424  12.464  -9.309  0.00  0.00     0.119 H 
ATOM     11  C1  FOI d   1      80.794  10.790  -8.151  0.00  0.00     0.003 A 
ATOM     12  H   FOI d   1      79.725  10.913  -7.980  0.00  0.00     0.114 H 
ATOM     13  C8  FOI d   1      84.927   8.881  -8.228  0.00  0.00     0.178 A 
ATOM     14  H   FOI d   1      80.830   8.758  -7.395  0.00  0.00     0.087 H 
BRANCH  13  15
ATOM     15  C10 FOI d   1      86.323   8.345  -8.278  0.00  0.00     0.319 C 
ATOM     16  O11 FOI d   1      87.293   8.961  -8.715  0.00  0.00    -0.257 OA
BRANCH  15  17
ATOM     17  O12 FOI d   1      86.389   7.069  -7.754  0.00  0.00    -0.321 OA
BRANCH  17  18
ATOM     18  C13 FOI d   1      87.699   6.491  -7.754  0.00  0.00     0.013 C 
ATOM     19  H   FOI d   1      88.069   6.432  -8.778  0.00  0.00     0.067 H 
ATOM     20  H   FOI d   1      88.369   7.112  -7.160  0.00  0.00     0.067 H 
ATOM     21  H   FOI d   1      87.653   5.490  -7.325  0.00  0.00     0.067 H 
ENDBRANCH  17  18
ENDBRANCH  15  17
ENDBRANCH  13  15
ENDBRANCH   1   3
BRANCH   1  22
ATOM     22  C15 FOI d   1      82.348   6.410  -7.023  0.00  0.00     0.033 A 
ATOM     23  C16 FOI d   1      82.253   5.671  -5.881  0.00  0.00    -0.056 A 
ATOM     24  C17 FOI d   1      81.105   4.962  -5.637  0.00  0.00    -0.068 A 
ATOM     25  H   FOI d   1      83.079   5.644  -5.171  0.00  0.00     0.086 H 
ATOM     26  C18 FOI d   1      80.075   5.018  -6.519  0.00  0.00    -0.003 A 
ATOM     27  H   FOI d   1      81.020   4.354  -4.736  0.00  0.00     0.085 H 
ATOM     28  C19 FOI d   1      80.156   5.710  -7.617  0.00  0.00    -0.043 A 
ATOM     29  C23 FOI d   1      78.856   4.354  -6.419  0.00  0.00     0.072 A 
ATOM     30  C20 FOI d   1      81.278   6.433  -7.908  0.00  0.00    -0.050 A 
ATOM     31  C21 FOI d   1      78.921   5.626  -8.449  0.00  0.00    -0.035 A 
ATOM     32  H   FOI d   1      81.333   7.021  -8.824  0.00  0.00     0.087 H 
ATOM     33  C22 FOI d   1      78.018   4.695  -7.628  0.00  0.00    -0.018 A 
ATOM     34  H   FOI d   1      79.112   5.252  -9.455  0.00  0.00     0.040 H 
ATOM     35  H   FOI d   1      78.468   6.600  -8.634  0.00  0.00     0.040 H 
ATOM     36  H   FOI d   1      77.717   3.809  -8.188  0.00  0.00     0.043 H 
ATOM     37  H   FOI d   1      77.073   5.166  -7.358  0.00  0.00     0.043 H 
BRANCH  29  38
ATOM     38  N24 FOI d   1      78.534   3.598  -5.414  0.00  0.00    -0.140 NA
BRANCH  38  39
ATOM     39  O25 FOI d   1      77.244   3.077  -5.579  0.00  0.00    -0.266 OA
ATOM     40  H   FOI d   1      77.026   2.522  -4.827  0.00  0.00     0.247 HD
ENDBRANCH  38  39
ENDBRANCH  29  38
ENDBRANCH   1  22
TORSDOF 7
