REMARK  5 active torsions:
REMARK  status: ('A' for Active; 'I' for Inactive)
REMARK    1  A    between atoms: C8_8  and  C10_10 
REMARK    2  A    between atoms: C9_9  and  N11_11 
REMARK       I    between atoms: C10_10  and  N24_24 
REMARK    3  A    between atoms: N11_11  and  C12_12 
REMARK    4  A    between atoms: C18_18  and  O23_23 
REMARK    5  A    between atoms: N24_24  and  C25_25 
ROOT
ATOM      1  C1  FNI d   1      80.722  10.963  -8.445  0.00  0.00     0.003 A 
ATOM      2  N2  FNI d   1      81.495  11.856  -9.106  0.00  0.00    -0.270 NA
ATOM      3  C3  FNI d   1      82.807  11.599  -9.310  0.00  0.00     0.035 A 
ATOM      4  C4  FNI d   1      83.365  10.396  -8.832  0.00  0.00     0.106 A 
ATOM      5  C5  FNI d   1      82.582   9.465  -8.150  0.00  0.00     0.030 A 
ATOM      6  C6  FNI d   1      81.216   9.737  -7.940  0.00  0.00    -0.051 A 
ATOM      7  O7  FNI d   1      84.664   9.979  -8.948  0.00  0.00    -0.300 OA
ATOM      8  C8  FNI d   1      84.619   8.733  -8.290  0.00  0.00     0.171 A 
ATOM      9  C9  FNI d   1      83.341   8.344  -7.768  0.00  0.00     0.086 A 
ATOM     10  H   FNI d   1      79.669  11.200  -8.294  0.00  0.00     0.114 H 
ATOM     11  H   FNI d   1      83.430  12.319  -9.841  0.00  0.00     0.119 H 
ATOM     12  H   FNI d   1      80.569   9.036  -7.413  0.00  0.00     0.087 H 
ENDROOT
BRANCH   9  13
ATOM     13  N11 FNI d   1      83.067   7.204  -7.107  0.00  0.00    -0.353 N 
ATOM     14  H   FNI d   1      83.875   6.880  -6.575  0.00  0.00     0.166 HD
BRANCH  13  15
ATOM     15  C12 FNI d   1      82.024   6.379  -6.957  0.00  0.00     0.033 A 
ATOM     16  C13 FNI d   1      82.054   5.465  -5.883  0.00  0.00    -0.056 A 
ATOM     17  C14 FNI d   1      80.978   4.578  -5.682  0.00  0.00    -0.067 A 
ATOM     18  H   FNI d   1      82.910   5.445  -5.208  0.00  0.00     0.086 H 
ATOM     19  C15 FNI d   1      79.873   4.609  -6.556  0.00  0.00     0.007 A 
ATOM     20  H   FNI d   1      81.000   3.870  -4.853  0.00  0.00     0.085 H 
ATOM     21  C16 FNI d   1      79.843   5.525  -7.631  0.00  0.00    -0.021 A 
ATOM     22  C18 FNI d   1      78.795   3.723  -6.354  0.00  0.00     0.076 A 
ATOM     23  C17 FNI d   1      80.919   6.412  -7.834  0.00  0.00    -0.046 A 
ATOM     24  C21 FNI d   1      78.739   5.557  -8.506  0.00  0.00    -0.072 A 
ATOM     25  H   FNI d   1      80.898   7.119  -8.663  0.00  0.00     0.088 H 
ATOM     26  C20 FNI d   1      77.662   4.669  -8.303  0.00  0.00    -0.080 A 
ATOM     27  H   FNI d   1      78.717   6.264  -9.335  0.00  0.00     0.084 H 
ATOM     28  C19 FNI d   1      77.689   3.753  -7.229  0.00  0.00    -0.050 A 
ATOM     29  H   FNI d   1      76.806   4.690  -8.978  0.00  0.00     0.083 H 
ATOM     30  H   FNI d   1      76.855   3.068  -7.076  0.00  0.00     0.087 H 
BRANCH  22  31
ATOM     31  O23 FNI d   1      78.818   2.830  -5.311  0.00  0.00    -0.360 OA
ATOM     32  H   FNI d   1      78.068   2.994  -4.734  0.00  0.00     0.217 HD
ENDBRANCH  22  31
ENDBRANCH  13  15
ENDBRANCH   9  13
BRANCH   8  33
ATOM     33  C10 FNI d   1      85.833   7.995  -8.216  0.00  0.00     0.283 C 
ATOM     34  O22 FNI d   1      85.766   6.768  -8.167  0.00  0.00    -0.265 OA
ATOM     35  N24 FNI d   1      86.959   8.719  -8.167  0.00  0.00    -0.306 N 
ATOM     36  H   FNI d   1      86.821   9.729  -8.191  0.00  0.00     0.170 HD
BRANCH  35  37
ATOM     37  C25 FNI d   1      88.311   8.304  -8.087  0.00  0.00     0.133 A 
ATOM     38  N26 FNI d   1      89.310   9.203  -8.253  0.00  0.00    -0.224 NA
ATOM     39  C27 FNI d   1      90.570   8.738  -8.167  0.00  0.00     0.088 A 
ATOM     40  N28 FNI d   1      90.926   7.453  -7.929  0.00  0.00    -0.254 NA
ATOM     41  H   FNI d   1      91.376   9.460  -8.301  0.00  0.00     0.146 H 
ATOM     42  C29 FNI d   1      89.943   6.536  -7.760  0.00  0.00     0.007 A 
ATOM     43  C30 FNI d   1      88.593   6.937  -7.834  0.00  0.00    -0.022 A 
ATOM     44  H   FNI d   1      90.195   5.493  -7.568  0.00  0.00     0.115 H 
ATOM     45  H   FNI d   1      87.787   6.215  -7.700  0.00  0.00     0.091 H 
ENDBRANCH  35  37
ENDBRANCH   8  33
TORSDOF 5
