REMARK  7 active torsions:
REMARK  status: ('A' for Active; 'I' for Inactive)
REMARK    1  A    between atoms: C01_1  and  N02_2 
REMARK    2  A    between atoms: N02_2  and  C03_3 
REMARK    3  A    between atoms: N02_2  and  C04_4 
REMARK    4  A    between atoms: N02_2  and  C05_5 
REMARK    5  A    between atoms: C05_5  and  C06_6 
REMARK    6  A    between atoms: C06_6  and  C08_8 
REMARK    7  A    between atoms: C08_8  and  C09_9 
ROOT
ATOM      1  N02 DCK d   1      -1.247  29.611   9.343  0.00  0.00    -0.072 N 
ENDROOT
BRANCH   1   2
ATOM      2  C01 DCK d   1      -1.785  28.833  10.446  0.00  0.00     0.068 C 
ATOM      3  H   DCK d   1      -1.140  28.946  11.317  0.00  0.00     0.068 H 
ATOM      4  H   DCK d   1      -2.787  29.189  10.686  0.00  0.00     0.068 H 
ATOM      5  H   DCK d   1      -1.831  27.782  10.159  0.00  0.00     0.068 H 
ENDBRANCH   1   2
BRANCH   1   6
ATOM      6  C03 DCK d   1       0.104  29.122   9.244  0.00  0.00     0.068 C 
ATOM      7  H   DCK d   1       0.617  29.637   8.432  0.00  0.00     0.068 H 
ATOM      8  H   DCK d   1       0.627  29.309  10.182  0.00  0.00     0.068 H 
ATOM      9  H   DCK d   1       0.087  28.051   9.044  0.00  0.00     0.068 H 
ENDBRANCH   1   6
BRANCH   1  10
ATOM     10  C04 DCK d   1      -2.041  29.294   8.179  0.00  0.00     0.068 C 
ATOM     11  H   DCK d   1      -3.053  29.677   8.316  0.00  0.00     0.068 H 
ATOM     12  H   DCK d   1      -1.593  29.755   7.299  0.00  0.00     0.068 H 
ATOM     13  H   DCK d   1      -2.075  28.212   8.047  0.00  0.00     0.068 H 
ENDBRANCH   1  10
BRANCH   1  14
ATOM     14  C05 DCK d   1      -1.138  31.036   9.609  0.00  0.00     0.138 C 
ATOM     15  H   DCK d   1      -0.208  31.289   9.099  0.00  0.00     0.088 H 
ATOM     16  H   DCK d   1      -1.311  31.077  10.684  0.00  0.00     0.088 H 
BRANCH  14  17
ATOM     17  C06 DCK d   1      -2.071  32.107   9.103  0.00  0.00     0.162 C 
ATOM     18  O07 DCK d   1      -3.320  31.909   8.903  0.00  0.00    -0.296 OA
BRANCH  17  19
ATOM     19  C08 DCK d   1      -1.724  33.517   9.527  0.00  0.00     0.072 C 
ATOM     20  H   DCK d   1      -1.099  33.954   8.748  0.00  0.00     0.060 H 
ATOM     21  H   DCK d   1      -1.222  33.460  10.493  0.00  0.00     0.060 H 
BRANCH  19  22
ATOM     22  C09 DCK d   1      -2.933  34.394   9.691  0.00  0.00     0.179 C 
ATOM     23  O10 DCK d   1      -4.031  34.005   9.790  0.00  0.00    -0.648 OA
ATOM     24  O11 DCK d   1      -2.597  35.649   9.465  0.00  0.00    -0.648 OA
ENDBRANCH  19  22
ENDBRANCH  17  19
ENDBRANCH  14  17
ENDBRANCH   1  14
TORSDOF 7
