REMARK  10 active torsions:
REMARK  status: ('A' for Active; 'I' for Inactive)
REMARK    1  A    between atoms: C2_2  and  C7_7 
REMARK    2  A    between atoms: C10_10  and  C12_12 
REMARK    3  A    between atoms: C12_12  and  C13_13 
REMARK    4  A    between atoms: C12_12  and  O14_14 
REMARK    5  A    between atoms: C13_13  and  C15_15 
REMARK    6  A    between atoms: C15_15  and  C16_16 
REMARK    7  A    between atoms: C16_16  and  C17_17 
REMARK    8  A    between atoms: C17_17  and  C18_18 
REMARK    9  A    between atoms: C18_18  and  C19_19 
REMARK   10  A    between atoms: C19_19  and  C20_20 
ROOT
ATOM      1  C15 JG2 d   1     -14.151  43.333  -3.262  0.00  0.00    -0.062 C 
ATOM      2  H   JG2 d   1     -13.233  43.793  -3.629  0.00  0.00     0.033 H 
ATOM      3  H   JG2 d   1     -14.144  43.229  -2.177  0.00  0.00     0.033 H 
ENDROOT
BRANCH   1   4
ATOM      4  C13 JG2 d   1     -14.272  41.925  -3.884  0.00  0.00    -0.034 C 
ATOM      5  H   JG2 d   1     -15.185  41.465  -3.507  0.00  0.00     0.037 H 
ATOM      6  H   JG2 d   1     -14.283  42.033  -4.969  0.00  0.00     0.037 H 
BRANCH   4   7
ATOM      7  C12 JG2 d   1     -13.086  41.018  -3.504  0.00  0.00     0.101 C 
ATOM      8  H   JG2 d   1     -13.014  41.002  -2.417  0.00  0.00     0.096 H 
BRANCH   7   9
ATOM      9  C10 JG2 d   1     -13.303  39.628  -4.072  0.00  0.00     0.198 A 
ATOM     10  N9  JG2 d   1     -12.795  38.526  -3.549  0.00  0.00    -0.124 NA
ATOM     11  N8  JG2 d   1     -13.132  37.554  -4.230  0.00  0.00    -0.119 NA
ATOM     12  C7  JG2 d   1     -13.894  37.957  -5.233  0.00  0.00     0.221 A 
ATOM     13  O11 JG2 d   1     -14.031  39.315  -5.167  0.00  0.00    -0.269 OA
BRANCH  12  14
ATOM     14  C2  JG2 d   1     -14.457  37.155  -6.218  0.00  0.00     0.111 A 
ATOM     15  N1  JG2 d   1     -14.223  35.830  -6.182  0.00  0.00    -0.257 NA
ATOM     16  C6  JG2 d   1     -14.721  35.019  -7.099  0.00  0.00     0.003 A 
ATOM     17  C5  JG2 d   1     -15.504  35.520  -8.133  0.00  0.00    -0.066 A 
ATOM     18  H   JG2 d   1     -14.517  33.950  -7.044  0.00  0.00     0.114 H 
ATOM     19  C4  JG2 d   1     -15.766  36.887  -8.203  0.00  0.00    -0.079 A 
ATOM     20  H   JG2 d   1     -15.912  34.846  -8.886  0.00  0.00     0.085 H 
ATOM     21  C3  JG2 d   1     -15.231  37.719  -7.229  0.00  0.00    -0.051 A 
ATOM     22  H   JG2 d   1     -16.379  37.295  -9.007  0.00  0.00     0.083 H 
ATOM     23  H   JG2 d   1     -15.413  38.793  -7.255  0.00  0.00     0.087 H 
ENDBRANCH  12  14
ENDBRANCH   7   9
BRANCH   7  24
ATOM     24  O14 JG2 d   1     -11.873  41.510  -4.095  0.00  0.00    -0.387 OA
ATOM     25  H   JG2 d   1     -11.143  40.936  -3.850  0.00  0.00     0.210 HD
ENDBRANCH   7  24
ENDBRANCH   4   7
ENDBRANCH   1   4
BRANCH   1  26
ATOM     26  C16 JG2 d   1     -15.337  44.235  -3.656  0.00  0.00    -0.065 C 
ATOM     27  H   JG2 d   1     -15.246  45.187  -3.132  0.00  0.00     0.033 H 
ATOM     28  H   JG2 d   1     -16.266  43.734  -3.384  0.00  0.00     0.033 H 
BRANCH  26  29
ATOM     29  C17 JG2 d   1     -15.338  44.496  -5.156  0.00  0.00    -0.065 C 
ATOM     30  H   JG2 d   1     -15.397  43.525  -5.648  0.00  0.00     0.033 H 
ATOM     31  H   JG2 d   1     -14.435  45.064  -5.381  0.00  0.00     0.033 H 
BRANCH  29  32
ATOM     32  C18 JG2 d   1     -16.527  45.326  -5.658  0.00  0.00    -0.061 C 
ATOM     33  H   JG2 d   1     -16.583  46.287  -5.146  0.00  0.00     0.033 H 
ATOM     34  H   JG2 d   1     -17.473  44.824  -5.456  0.00  0.00     0.033 H 
BRANCH  32  35
ATOM     35  C19 JG2 d   1     -16.306  45.509  -7.160  0.00  0.00    -0.041 C 
ATOM     36  H   JG2 d   1     -16.219  44.505  -7.576  0.00  0.00     0.040 H 
ATOM     37  H   JG2 d   1     -15.434  46.156  -7.259  0.00  0.00     0.040 H 
BRANCH  35  38
ATOM     38  C20 JG2 d   1     -17.428  46.192  -7.938  0.00  0.00    -0.058 A 
ATOM     39  C21 JG2 d   1     -17.153  46.707  -9.208  0.00  0.00    -0.077 A 
ATOM     40  C22 JG2 d   1     -18.165  47.294  -9.961  0.00  0.00    -0.082 A 
ATOM     41  H   JG2 d   1     -16.142  46.648  -9.610  0.00  0.00     0.084 H 
ATOM     42  C23 JG2 d   1     -19.460  47.339  -9.448  0.00  0.00    -0.083 A 
ATOM     43  H   JG2 d   1     -17.947  47.715 -10.943  0.00  0.00     0.083 H 
ATOM     44  C24 JG2 d   1     -19.739  46.803  -8.188  0.00  0.00    -0.082 A 
ATOM     45  H   JG2 d   1     -20.259  47.795 -10.033  0.00  0.00     0.083 H 
ATOM     46  C25 JG2 d   1     -18.727  46.216  -7.434  0.00  0.00    -0.077 A 
ATOM     47  H   JG2 d   1     -20.754  46.845  -7.794  0.00  0.00     0.083 H 
ATOM     48  H   JG2 d   1     -18.948  45.780  -6.460  0.00  0.00     0.084 H 
ENDBRANCH  35  38
ENDBRANCH  32  35
ENDBRANCH  29  32
ENDBRANCH  26  29
ENDBRANCH   1  26
TORSDOF 10
