REMARK  4 active torsions:
REMARK  status: ('A' for Active; 'I' for Inactive)
REMARK    1  A    between atoms: N7_7  and  C4_4 
REMARK    2  A    between atoms: C6_6  and  O23_23 
REMARK    3  A    between atoms: C16_16  and  N7_7 
REMARK    4  A    between atoms: C15_15  and  C17_17 
ROOT
ATOM      1  C8  FP3 d   1      80.334  10.688  -8.466  0.00  0.00     0.003 A 
ATOM      2  N9  FP3 d   1      81.147  11.595  -9.055  0.00  0.00    -0.270 NA
ATOM      3  C10 FP3 d   1      82.459  11.310  -9.215  0.00  0.00     0.035 A 
ATOM      4  C11 FP3 d   1      82.970  10.075  -8.770  0.00  0.00     0.106 A 
ATOM      5  C12 FP3 d   1      82.143   9.135  -8.163  0.00  0.00     0.030 A 
ATOM      6  C13 FP3 d   1      80.778   9.431  -7.996  0.00  0.00    -0.051 A 
ATOM      7  O14 FP3 d   1      84.263   9.619  -8.848  0.00  0.00    -0.302 OA
ATOM      8  C15 FP3 d   1      84.204   8.334  -8.255  0.00  0.00     0.151 A 
ATOM      9  C16 FP3 d   1      82.934   7.986  -7.822  0.00  0.00     0.084 A 
ATOM     10  H   FP3 d   1      79.280  10.940  -8.348  0.00  0.00     0.114 H 
ATOM     11  H   FP3 d   1      83.121  12.035  -9.688  0.00  0.00     0.119 H 
ATOM     12  H   FP3 d   1      80.094   8.724  -7.526  0.00  0.00     0.087 H 
ENDROOT
BRANCH   9  13
ATOM     13  N7  FP3 d   1      82.549   6.838  -7.229  0.00  0.00    -0.353 N 
ATOM     14  H   FP3 d   1      83.280   6.358  -6.705  0.00  0.00     0.166 HD
BRANCH  13  15
ATOM     15  C4  FP3 d   1      81.351   6.228  -7.221  0.00  0.00     0.035 A 
ATOM     16  C3  FP3 d   1      80.398   6.533  -8.217  0.00  0.00    -0.055 A 
ATOM     17  C2  FP3 d   1      79.131   5.928  -8.226  0.00  0.00    -0.057 A 
ATOM     18  H   FP3 d   1      80.651   7.253  -8.995  0.00  0.00     0.087 H 
ATOM     19  C1  FP3 d   1      78.825   4.995  -7.221  0.00  0.00     0.067 A 
ATOM     20  H   FP3 d   1      78.401   6.177  -8.996  0.00  0.00     0.086 H 
ATOM     21  C6  FP3 d   1      79.772   4.681  -6.223  0.00  0.00     0.089 A 
ATOM     22 CL1  FP3 d   1      77.274   4.234  -7.214  0.00  0.00    -0.081 Cl
ATOM     23  C5  FP3 d   1      81.040   5.298  -6.214  0.00  0.00    -0.024 A 
ATOM     24  H   FP3 d   1      81.767   5.058  -5.439  0.00  0.00     0.091 H 
BRANCH  21  25
ATOM     25  O23 FP3 d   1      79.459   3.764  -5.248  0.00  0.00    -0.359 OA
ATOM     26  H   FP3 d   1      79.512   4.184  -4.386  0.00  0.00     0.217 HD
ENDBRANCH  21  25
ENDBRANCH  13  15
ENDBRANCH   9  13
BRANCH   8  27
ATOM     27  C17 FP3 d   1      85.382   7.521  -8.150  0.00  0.00     0.185 A 
ATOM     28  N18 FP3 d   1      86.578   8.137  -8.314  0.00  0.00    -0.239 NA
ATOM     29  C19 FP3 d   1      87.709   7.399  -8.229  0.00  0.00     0.006 A 
ATOM     30  C20 FP3 d   1      87.630   6.015  -7.975  0.00  0.00    -0.049 A 
ATOM     31  H   FP3 d   1      88.681   7.875  -8.357  0.00  0.00     0.114 H 
ATOM     32  C21 FP3 d   1      86.343   5.451  -7.818  0.00  0.00     0.006 A 
ATOM     33  H   FP3 d   1      88.528   5.402  -7.902  0.00  0.00     0.087 H 
ATOM     34  N22 FP3 d   1      85.220   6.201  -7.909  0.00  0.00    -0.239 NA
ATOM     35  H   FP3 d   1      86.253   4.383  -7.618  0.00  0.00     0.114 H 
ENDBRANCH   8  27
TORSDOF 4
