REMARK  4 active torsions:
REMARK  status: ('A' for Active; 'I' for Inactive)
REMARK    1  A    between atoms: C9_9  and  C1_1 
REMARK    2  A    between atoms: C3_3  and  N4_4 
REMARK    3  A    between atoms: C7_7  and  C13_13 
REMARK       I    between atoms: C13_13  and  N15_15 
REMARK    4  A    between atoms: N15_15  and  C16_16 
ROOT
ATOM      1  N2  3RZ d   1      47.080  12.871  28.643  0.00  0.00    -0.216 NA
ATOM      2  C3  3RZ d   1      47.688  13.851  29.317  0.00  0.00     0.136 A 
ATOM      3  C5  3RZ d   1      47.000  14.650  30.210  0.00  0.00     0.039 A 
ATOM      4  C6  3RZ d   1      45.641  14.423  30.390  0.00  0.00     0.088 A 
ATOM      5  C7  3RZ d   1      44.973  15.246  31.289  0.00  0.00     0.062 A 
ATOM      6  N8  3RZ d   1      45.021  13.449  29.712  0.00  0.00    -0.232 NA
ATOM      7  C9  3RZ d   1      45.774  12.728  28.880  0.00  0.00     0.125 A 
ATOM      8  C10 3RZ d   1      46.975  16.467  31.772  0.00  0.00    -0.081 A 
ATOM      9  C11 3RZ d   1      45.630  16.252  31.972  0.00  0.00    -0.065 A 
ATOM     10  C12 3RZ d   1      47.655  15.657  30.891  0.00  0.00    -0.067 A 
ATOM     11  H   3RZ d   1      47.493  17.266  32.303  0.00  0.00     0.083 H 
ATOM     12  H   3RZ d   1      45.080  16.879  32.673  0.00  0.00     0.085 H 
ATOM     13  H   3RZ d   1      48.722  15.812  30.729  0.00  0.00     0.085 H 
ENDROOT
BRANCH   5  14
ATOM     14  C13 3RZ d   1      43.535  15.091  31.597  0.00  0.00     0.259 C 
ATOM     15  O14 3RZ d   1      43.029  15.836  32.427  0.00  0.00    -0.267 OA
ATOM     16  N15 3RZ d   1      42.881  14.077  30.920  0.00  0.00    -0.308 N 
ATOM     17  H   3RZ d   1      43.357  13.613  30.146  0.00  0.00     0.170 HD
BRANCH  16  18
ATOM     18  C16 3RZ d   1      41.597  13.671  31.261  0.00  0.00     0.125 A 
ATOM     19  C17 3RZ d   1      40.820  12.781  30.479  0.00  0.00    -0.021 A 
ATOM     20  C18 3RZ d   1      39.642  12.631  31.164  0.00  0.00     0.025 A 
ATOM     21  H   3RZ d   1      41.099  12.315  29.534  0.00  0.00     0.091 H 
ATOM     22  N19 3RZ d   1      39.755  13.413  32.274  0.00  0.00    -0.186 NA
ATOM     23  H   3RZ d   1      38.790  12.013  30.879  0.00  0.00     0.117 H 
ATOM     24  N20 3RZ d   1      40.933  14.046  32.364  0.00  0.00    -0.263 N 
ATOM     25  H   3RZ d   1      41.252  14.671  33.104  0.00  0.00     0.190 HD
ENDBRANCH  16  18
ENDBRANCH   5  14
BRANCH   2  26
ATOM     26  N4  3RZ d   1      49.051  14.062  29.095  0.00  0.00    -0.383 N 
ATOM     27  H   3RZ d   1      49.557  13.475  28.432  0.00  0.00     0.157 HD
ATOM     28  H   3RZ d   1      49.541  14.803  29.596  0.00  0.00     0.157 HD
ENDBRANCH   2  26
BRANCH   7  29
ATOM     29  C1  3RZ d   1      45.084  11.654  28.140  0.00  0.00    -0.019 C 
ATOM     30  H   3RZ d   1      44.654  10.945  28.848  0.00  0.00     0.037 H 
ATOM     31  H   3RZ d   1      44.291  12.086  27.530  0.00  0.00     0.037 H 
ATOM     32  H   3RZ d   1      45.799  11.140  27.498  0.00  0.00     0.037 H 
ENDBRANCH   7  29
TORSDOF 4
