REMARK  6 active torsions:
REMARK  status: ('A' for Active; 'I' for Inactive)
REMARK    1  A    between atoms: C9_9  and  C1_1 
REMARK    2  A    between atoms: C3_3  and  N4_4 
REMARK    3  A    between atoms: C7_7  and  C13_13 
REMARK       I    between atoms: C13_13  and  N15_15 
REMARK    4  A    between atoms: N15_15  and  C16_16 
REMARK    5  A    between atoms: C19_19  and  O22_22 
REMARK    6  A    between atoms: O22_22  and  C23_23 
ROOT
ATOM      1  N2  3PS d   1      46.674  12.784  28.573  0.00  0.00    -0.216 NA
ATOM      2  C3  3PS d   1      47.375  13.753  29.162  0.00  0.00     0.136 A 
ATOM      3  C5  3PS d   1      46.793  14.589  30.095  0.00  0.00     0.039 A 
ATOM      4  C6  3PS d   1      45.449  14.420  30.401  0.00  0.00     0.088 A 
ATOM      5  C7  3PS d   1      44.857  15.255  31.330  0.00  0.00     0.062 A 
ATOM      6  N8  3PS d   1      44.734  13.466  29.817  0.00  0.00    -0.232 NA
ATOM      7  C9  3PS d   1      45.399  12.713  28.950  0.00  0.00     0.125 A 
ATOM      8  C10 3PS d   1      46.926  16.418  31.622  0.00  0.00    -0.081 A 
ATOM      9  C11 3PS d   1      45.595  16.249  31.942  0.00  0.00    -0.065 A 
ATOM     10  C12 3PS d   1      47.526  15.584  30.703  0.00  0.00    -0.067 A 
ATOM     11  H   3PS d   1      47.504  17.212  32.096  0.00  0.00     0.083 H 
ATOM     12  H   3PS d   1      45.125  16.901  32.679  0.00  0.00     0.085 H 
ATOM     13  H   3PS d   1      48.580  15.712  30.457  0.00  0.00     0.085 H 
ENDROOT
BRANCH   5  14
ATOM     14  C13 3PS d   1      43.434  15.101  31.719  0.00  0.00     0.258 C 
ATOM     15  O14 3PS d   1      42.998  15.825  32.608  0.00  0.00    -0.267 OA
ATOM     16  N15 3PS d   1      42.711  14.115  31.046  0.00  0.00    -0.322 N 
ATOM     17  H   3PS d   1      43.158  13.700  30.229  0.00  0.00     0.169 HD
BRANCH  16  18
ATOM     18  C16 3PS d   1      41.454  13.641  31.369  0.00  0.00     0.052 A 
ATOM     19  C17 3PS d   1      40.671  12.866  30.388  0.00  0.00     0.031 A 
ATOM     20  N18 3PS d   1      39.403  12.414  30.732  0.00  0.00    -0.235 NA
ATOM     21  H   3PS d   1      41.083  12.650  29.402  0.00  0.00     0.118 H 
ATOM     22  C19 3PS d   1      38.896  12.676  31.902  0.00  0.00     0.163 A 
ATOM     23  C20 3PS d   1      39.534  13.332  32.875  0.00  0.00    -0.030 A 
ATOM     24  C21 3PS d   1      40.842  13.807  32.548  0.00  0.00    -0.052 A 
ATOM     25  H   3PS d   1      39.086  13.495  33.855  0.00  0.00     0.090 H 
ATOM     26  H   3PS d   1      41.386  14.349  33.322  0.00  0.00     0.087 H 
BRANCH  22  27
ATOM     27  O22 3PS d   1      37.670  12.228  32.308  0.00  0.00    -0.339 OA
BRANCH  27  28
ATOM     28  C23 3PS d   1      36.617  13.183  32.224  0.00  0.00     0.012 C 
ATOM     29  H   3PS d   1      36.857  14.043  32.850  0.00  0.00     0.067 H 
ATOM     30  H   3PS d   1      36.503  13.506  31.189  0.00  0.00     0.067 H 
ATOM     31  H   3PS d   1      35.688  12.729  32.569  0.00  0.00     0.067 H 
ENDBRANCH  27  28
ENDBRANCH  22  27
ENDBRANCH  16  18
ENDBRANCH   5  14
BRANCH   2  32
ATOM     32  N4  3PS d   1      48.724  13.889  28.810  0.00  0.00    -0.383 N 
ATOM     33  H   3PS d   1      49.138  13.258  28.124  0.00  0.00     0.157 HD
ATOM     34  H   3PS d   1      49.292  14.619  29.240  0.00  0.00     0.157 HD
ENDBRANCH   2  32
BRANCH   7  35
ATOM     35  C1  3PS d   1      44.594  11.675  28.328  0.00  0.00    -0.019 C 
ATOM     36  H   3PS d   1      44.203  11.010  29.098  0.00  0.00     0.037 H 
ATOM     37  H   3PS d   1      43.766  12.134  27.787  0.00  0.00     0.037 H 
ATOM     38  H   3PS d   1      45.212  11.105  27.634  0.00  0.00     0.037 H 
ENDBRANCH   7  35
TORSDOF 6
