REMARK  3 active torsions:
REMARK  status: ('A' for Active; 'I' for Inactive)
REMARK    1  A    between atoms: C1_1  and  C6_6 
REMARK    2  A    between atoms: C2_2  and  C7_7 
REMARK    3  A    between atoms: N4_4  and  C13_13 
ROOT
ATOM      1  C1  SM7 d   1      41.815  29.050  33.243  0.00  0.00     0.023 A 
ATOM      2  C2  SM7 d   1      40.479  29.245  32.882  0.00  0.00     0.100 A 
ATOM      3  N3  SM7 d   1      40.190  30.528  32.743  0.00  0.00    -0.171 NA
ATOM      4  N4  SM7 d   1      41.341  31.190  33.013  0.00  0.00    -0.275 N 
ATOM      5  C5  SM7 d   1      42.369  30.319  33.330  0.00  0.00     0.012 A 
ATOM      6  H   SM7 d   1      43.395  30.576  33.592  0.00  0.00     0.115 H 
ENDROOT
BRANCH   1   7
ATOM      7  C6  SM7 d   1      42.557  27.813  33.508  0.00  0.00    -0.022 A 
ATOM      8  C19 SM7 d   1      43.360  27.761  34.677  0.00  0.00    -0.071 A 
ATOM      9  C20 SM7 d   1      44.112  26.611  35.011  0.00  0.00    -0.069 A 
ATOM     10  H   SM7 d   1      43.398  28.630  35.334  0.00  0.00     0.084 H 
ATOM     11  C21 SM7 d   1      44.023  25.522  34.123  0.00  0.00    -0.001 A 
ATOM     12  H   SM7 d   1      44.728  26.570  35.909  0.00  0.00     0.085 H 
ATOM     13  C22 SM7 d   1      43.237  25.543  32.955  0.00  0.00    -0.040 A 
ATOM     14  C24 SM7 d   1      44.655  24.233  34.180  0.00  0.00     0.069 A 
ATOM     15  C23 SM7 d   1      42.490  26.699  32.634  0.00  0.00    -0.065 A 
ATOM     16  C26 SM7 d   1      43.288  24.229  32.120  0.00  0.00    -0.013 A 
ATOM     17  H   SM7 d   1      41.876  26.733  31.734  0.00  0.00     0.085 H 
ATOM     18  C25 SM7 d   1      44.241  23.546  33.080  0.00  0.00    -0.006 A 
ATOM     19  H   SM7 d   1      43.580  24.300  31.072  0.00  0.00     0.047 H 
ATOM     20  H   SM7 d   1      42.346  23.730  31.893  0.00  0.00     0.047 H 
ATOM     21  C29 SM7 d   1      44.865  22.312  33.163  0.00  0.00     0.030 A 
ATOM     22  N28 SM7 d   1      45.607  22.398  34.341  0.00  0.00    -0.186 NA
ATOM     23  H   SM7 d   1      44.793  21.473  32.471  0.00  0.00     0.118 H 
ATOM     24  N27 SM7 d   1      45.485  23.597  34.987  0.00  0.00    -0.277 N 
ATOM     25  H   SM7 d   1      45.917  23.914  35.855  0.00  0.00     0.189 HD
ENDBRANCH   1   7
BRANCH   2  26
ATOM     26  C7  SM7 d   1      39.466  28.215  32.670  0.00  0.00    -0.002 A 
ATOM     27  C8  SM7 d   1      39.197  27.230  33.645  0.00  0.00    -0.054 A 
ATOM     28  C9  SM7 d   1      38.190  26.277  33.375  0.00  0.00     0.003 A 
ATOM     29  H   SM7 d   1      39.752  27.206  34.583  0.00  0.00     0.087 H 
ATOM     30  N10 SM7 d   1      37.472  26.285  32.228  0.00  0.00    -0.273 NA
ATOM     31  H   SM7 d   1      37.984  25.507  34.118  0.00  0.00     0.114 H 
ATOM     32  C11 SM7 d   1      37.717  27.235  31.298  0.00  0.00     0.003 A 
ATOM     33  C12 SM7 d   1      38.706  28.225  31.479  0.00  0.00    -0.054 A 
ATOM     34  H   SM7 d   1      37.132  27.236  30.378  0.00  0.00     0.114 H 
ATOM     35  H   SM7 d   1      38.880  28.983  30.715  0.00  0.00     0.087 H 
ENDBRANCH   2  26
BRANCH   4  36
ATOM     36  C13 SM7 d   1      41.349  32.651  32.949  0.00  0.00     0.037 C 
ATOM     37  C14 SM7 d   1      42.706  33.274  33.363  0.00  0.00    -0.022 C 
ATOM     38  C15 SM7 d   1      42.653  34.816  33.458  0.00  0.00     0.084 C 
ATOM     39  H   SM7 d   1      43.440  33.011  32.601  0.00  0.00     0.038 H 
ATOM     40  H   SM7 d   1      42.964  32.888  34.349  0.00  0.00     0.038 H 
ATOM     41  N16 SM7 d   1      41.503  35.281  34.276  0.00  0.00    -0.075 N 
ATOM     42  H   SM7 d   1      42.541  35.217  32.451  0.00  0.00     0.075 H 
ATOM     43  H   SM7 d   1      43.572  35.161  33.932  0.00  0.00     0.075 H 
ATOM     44  C17 SM7 d   1      40.181  34.784  33.821  0.00  0.00     0.084 C 
ATOM     45  H   SM7 d   1      41.479  36.298  34.205  0.00  0.00     0.277 HD
ATOM     46  H   SM7 d   1      41.646  34.925  35.221  0.00  0.00     0.277 HD
ATOM     47  C18 SM7 d   1      40.149  33.242  33.733  0.00  0.00    -0.022 C 
ATOM     48  H   SM7 d   1      39.986  35.189  32.828  0.00  0.00     0.075 H 
ATOM     49  H   SM7 d   1      39.428  35.102  34.542  0.00  0.00     0.075 H 
ATOM     50  H   SM7 d   1      40.194  32.852  34.750  0.00  0.00     0.038 H 
ATOM     51  H   SM7 d   1      39.238  32.960  33.205  0.00  0.00     0.038 H 
ATOM     52  H   SM7 d   1      41.225  32.928  31.902  0.00  0.00     0.076 H 
ENDBRANCH   4  36
TORSDOF 3
