REMARK  19 active torsions:
REMARK  status: ('A' for Active; 'I' for Inactive)
REMARK    1  A    between atoms: C_1  and  CH3_3 
REMARK       I    between atoms: C_1  and  N_4 
REMARK    2  A    between atoms: N_4  and  CA_5 
REMARK    3  A    between atoms: CA_5  and  C_6 
REMARK    4  A    between atoms: CA_5  and  CB_8 
REMARK       I    between atoms: C_6  and  N_9 
REMARK    5  A    between atoms: N_9  and  CA_10 
REMARK    6  A    between atoms: CA_10  and  C_11 
REMARK    7  A    between atoms: CA_10  and  CB_13 
REMARK       I    between atoms: C_11  and  N_20 
REMARK    8  A    between atoms: CB_13  and  CG_14 
REMARK    9  A    between atoms: CG_14  and  CD_15 
REMARK   10  A    between atoms: CD_15  and  NE_16 
REMARK       I    between atoms: NE_16  and  CZ_17 
REMARK       I    between atoms: CZ_17  and  NH1_18 
REMARK   11  A    between atoms: N_20  and  CA_21 
REMARK   12  A    between atoms: CA_21  and  C_22 
REMARK   13  A    between atoms: CA_21  and  CB_24 
REMARK       I    between atoms: C_22  and  N_27 
REMARK   14  A    between atoms: CB_24  and  OG1_25 
REMARK   15  A    between atoms: CB_24  and  CG2_26 
REMARK   16  A    between atoms: N_27  and  CA_28 
REMARK   17  A    between atoms: CA_28  and  C_29 
REMARK   18  A    between atoms: CA_28  and  CB_31 
REMARK   19  A    between atoms: CB_31  and  CG_32 
ROOT
ATOM      1  CA  ARG d   1     -16.392  16.180  21.012  0.00  0.00     0.089 C 
ATOM      2  H   ARG d   1     -15.658  16.664  21.657  0.00  0.00     0.087 H 
ENDROOT
BRANCH   1   3
ATOM      3  N   ARG d   1     -16.561  14.826  21.507  0.00  0.00    -0.346 N 
ATOM      4  C   ALA d   1     -16.954  14.640  22.808  0.00  0.00     0.240 C 
ATOM      5  O   ALA d   1     -17.066  15.608  23.598  0.00  0.00    -0.271 OA
ATOM      6  H   ARG d   1     -16.390  14.026  20.898  0.00  0.00     0.163 HD
BRANCH   4   7
ATOM      7  CA  ALA d   1     -17.146  13.226  23.298  0.00  0.00     0.086 C 
ATOM      8  H   ALA d   1     -17.931  13.299  24.051  0.00  0.00     0.086 H 
BRANCH   7   9
ATOM      9  N   ALA d   1     -17.651  12.273  22.291  0.00  0.00    -0.348 N 
ATOM     10  C   ACE d   1     -18.915  12.554  21.567  0.00  0.00     0.214 C 
ATOM     11  O   ACE d   1     -19.409  13.727  21.666  0.00  0.00    -0.274 OA
ATOM     12  H   ALA d   1     -17.130  11.419  22.092  0.00  0.00     0.163 HD
BRANCH  10  13
ATOM     13  CH3 ACE d   1     -19.425  11.557  20.542  0.00  0.00    -0.003 C 
ATOM     14  H   ACE d   1     -20.483  11.365  20.719  0.00  0.00     0.040 H 
ATOM     15  H   ACE d   1     -19.291  11.967  19.541  0.00  0.00     0.040 H 
ATOM     16  H   ACE d   1     -18.865  10.626  20.633  0.00  0.00     0.040 H 
ENDBRANCH  10  13
ENDBRANCH   7   9
BRANCH   7  17
ATOM     17  CB  ALA d   1     -15.894  12.708  23.892  0.00  0.00    -0.049 C 
ATOM     18  H   ALA d   1     -15.105  12.718  23.140  0.00  0.00     0.030 H 
ATOM     19  H   ALA d   1     -15.604  13.338  24.733  0.00  0.00     0.030 H 
ATOM     20  H   ALA d   1     -16.053  11.687  24.239  0.00  0.00     0.030 H 
ENDBRANCH   7  17
ENDBRANCH   4   7
ENDBRANCH   1   3
BRANCH   1  21
ATOM     21  C   ARG d   1     -17.656  17.071  21.145  0.00  0.00     0.241 C 
ATOM     22  O   ARG d   1     -17.561  18.276  21.251  0.00  0.00    -0.271 OA
ATOM     23  N   THR d   1     -18.838  16.486  21.167  0.00  0.00    -0.344 N 
ATOM     24  H   THR d   1     -18.893  15.467  21.168  0.00  0.00     0.163 HD
BRANCH  23  25
ATOM     25  CA  THR d   1     -20.034  17.250  21.190  0.00  0.00     0.113 C 
ATOM     26  H   THR d   1     -19.803  18.174  20.660  0.00  0.00     0.091 H 
BRANCH  25  27
ATOM     27  C   THR d   1     -20.507  17.614  22.619  0.00  0.00     0.243 C 
ATOM     28  O   THR d   1     -21.517  18.315  22.774  0.00  0.00    -0.271 OA
ATOM     29  N   LYS d   1     -19.755  17.208  23.608  0.00  0.00    -0.345 N 
ATOM     30  H   LYS d   1     -18.887  16.710  23.408  0.00  0.00     0.163 HD
BRANCH  29  31
ATOM     31  CA  LYS d   1     -20.145  17.461  25.016  0.00  0.00     0.096 C 
ATOM     32  H   LYS d   1     -21.134  17.919  25.024  0.00  0.00     0.089 H 
BRANCH  31  33
ATOM     33  C   LYS d   1     -19.225  18.463  25.737  0.00  0.00     0.196 C 
ATOM     34  O   LYS d   1     -18.005  18.531  25.372  0.00  0.00    -0.646 OA
ATOM     35  O   LYS d   1     -19.665  19.196  26.663  0.00  0.00    -0.646 OA
ENDBRANCH  31  33
BRANCH  31  36
ATOM     36  CB  LYS d   1     -20.139  16.128  25.734  0.00  0.00    -0.040 C 
ATOM     37  H   LYS d   1     -20.558  16.298  26.726  0.00  0.00     0.036 H 
ATOM     38  H   LYS d   1     -19.110  15.770  25.734  0.00  0.00     0.036 H 
BRANCH  36  39
ATOM     39  CG  LYS d   1     -21.000  15.033  25.060  0.00  0.00    -0.074 C 
ATOM     40  H   LYS d   1     -22.037  15.365  25.015  0.00  0.00     0.027 H 
ATOM     41  H   LYS d   1     -20.631  14.852  24.051  0.00  0.00     0.027 H 
ATOM     42  H   LYS d   1     -20.937  14.113  25.642  0.00  0.00     0.027 H 
ENDBRANCH  36  39
ENDBRANCH  31  36
ENDBRANCH  29  31
ENDBRANCH  25  27
BRANCH  25  43
ATOM     43  CB  THR d   1     -21.170  16.469  20.513  0.00  0.00     0.060 C 
ATOM     44  H   THR d   1     -22.044  17.110  20.403  0.00  0.00     0.086 H 
BRANCH  43  45
ATOM     45  OG1 THR d   1     -21.578  15.329  21.349  0.00  0.00    -0.393 OA
ATOM     46  H   THR d   1     -20.828  14.743  21.477  0.00  0.00     0.210 HD
ENDBRANCH  43  45
BRANCH  43  47
ATOM     47  CG2 THR d   1     -20.715  16.020  19.065  0.00  0.00    -0.050 C 
ATOM     48  H   THR d   1     -20.476  16.902  18.471  0.00  0.00     0.031 H 
ATOM     49  H   THR d   1     -19.833  15.384  19.143  0.00  0.00     0.031 H 
ATOM     50  H   THR d   1     -21.523  15.466  18.587  0.00  0.00     0.031 H 
ENDBRANCH  43  47
ENDBRANCH  25  43
ENDBRANCH  23  25
ENDBRANCH   1  21
BRANCH   1  51
ATOM     51  CB  ARG d   1     -15.835  16.142  19.527  0.00  0.00    -0.036 C 
ATOM     52  H   ARG d   1     -16.600  15.708  18.883  0.00  0.00     0.036 H 
ATOM     53  H   ARG d   1     -14.920  15.550  19.517  0.00  0.00     0.036 H 
BRANCH  51  54
ATOM     54  CG  ARG d   1     -15.508  17.547  19.012  0.00  0.00    -0.048 C 
ATOM     55  H   ARG d   1     -14.671  17.961  19.574  0.00  0.00     0.035 H 
ATOM     56  H   ARG d   1     -16.373  18.198  19.140  0.00  0.00     0.035 H 
BRANCH  54  57
ATOM     57  CD  ARG d   1     -15.133  17.454  17.491  0.00  0.00     0.009 C 
ATOM     58  H   ARG d   1     -14.787  18.440  17.180  0.00  0.00     0.064 H 
ATOM     59  H   ARG d   1     -16.020  17.111  16.957  0.00  0.00     0.064 H 
BRANCH  57  60
ATOM     60  NE  ARG d   1     -14.056  16.503  17.206  0.00  0.00    -0.227 N 
ATOM     61  CZ  ARG d   1     -12.748  16.853  17.214  0.00  0.00     0.665 C 
ATOM     62  NH1 ARG d   1     -12.390  18.133  17.364  0.00  0.00    -0.235 N 
ATOM     63  NH2 ARG d   1     -11.829  15.987  16.891  0.00  0.00    -0.235 N 
ATOM     64  H   ARG d   1     -13.104  18.853  17.473  0.00  0.00     0.174 HD
ATOM     65  H   ARG d   1     -11.403  18.389  17.369  0.00  0.00     0.174 HD
ATOM     66  H   ARG d   1     -12.093  15.037  16.630  0.00  0.00     0.174 HD
ATOM     67  H   ARG d   1     -10.846  16.259  16.900  0.00  0.00     0.174 HD
ATOM     68  H   ARG d   1     -14.302  15.536  16.992  0.00  0.00     0.177 HD
ENDBRANCH  57  60
ENDBRANCH  54  57
ENDBRANCH  51  54
ENDBRANCH   1  51
TORSDOF 19
