REMARK  5 active torsions:
REMARK  status: ('A' for Active; 'I' for Inactive)
REMARK    1  A    between atoms: N2_2  and  C11_11 
REMARK    2  A    between atoms: C11_11  and  C12_12 
REMARK       I    between atoms: C12_12  and  N14_14 
REMARK    3  A    between atoms: N14_14  and  C15_15 
REMARK    4  A    between atoms: C18_18  and  C25_25 
REMARK    5  A    between atoms: C19_19  and  C20_20 
ROOT
ATOM      1  C11 932 d   1       2.804  -1.191  32.416  0.00  0.00     0.077 C 
ATOM      2  H9  932 d   1       2.901  -1.315  33.505  0.00  0.00     0.079 H 
ATOM      3  H10 932 d   1       3.645  -1.691  31.913  0.00  0.00     0.079 H 
ENDROOT
BRANCH   1   4
ATOM      4  N2  932 d   1       2.870   0.265  32.103  0.00  0.00    -0.309 N 
ATOM      5  C1  932 d   1       2.307   1.173  33.045  0.00  0.00     0.044 A 
ATOM      6  C6  932 d   1       2.758   2.572  33.072  0.00  0.00    -0.031 A 
ATOM      7  C7  932 d   1       1.349   0.805  33.989  0.00  0.00    -0.056 A 
ATOM      8  C5  932 d   1       3.800   3.009  32.071  0.00  0.00    -0.031 C 
ATOM      9  C10 932 d   1       2.194   3.487  33.975  0.00  0.00    -0.075 A 
ATOM     10  C4  932 d   1       3.511   2.274  30.770  0.00  0.00     0.013 C 
ATOM     11  H3  932 d   1       3.737   4.096  31.912  0.00  0.00     0.040 H 
ATOM     12  H4  932 d   1       4.805   2.749  32.435  0.00  0.00     0.040 H 
ATOM     13  C3  932 d   1       3.481   0.785  30.993  0.00  0.00     0.225 C 
ATOM     14  H1  932 d   1       2.535   2.600  30.381  0.00  0.00     0.047 H 
ATOM     15  H2  932 d   1       4.297   2.513  30.038  0.00  0.00     0.047 H 
ATOM     16  O26 932 d   1       4.029   0.097  30.124  0.00  0.00    -0.273 OA
ATOM     17  C9  932 d   1       1.236   3.072  34.896  0.00  0.00    -0.082 A 
ATOM     18  H8  932 d   1       2.507   4.525  33.955  0.00  0.00     0.084 H 
ATOM     19  C8  932 d   1       0.837   1.742  34.892  0.00  0.00    -0.081 A 
ATOM     20  H7  932 d   1       0.809   3.774  35.603  0.00  0.00     0.083 H 
ATOM     21  H6  932 d   1       0.100   1.417  35.617  0.00  0.00     0.083 H 
ATOM     22  H5  932 d   1       0.997  -0.220  34.023  0.00  0.00     0.086 H 
ENDBRANCH   1   4
BRANCH   1  23
ATOM     23  C12 932 d   1       1.522  -1.860  31.975  0.00  0.00     0.240 C 
ATOM     24  O13 932 d   1       1.122  -2.943  32.406  0.00  0.00    -0.271 OA
ATOM     25  N14 932 d   1       0.833  -1.218  31.056  0.00  0.00    -0.319 N 
ATOM     26  H11 932 d   1       1.112  -0.287  30.819  0.00  0.00     0.169 HD
BRANCH  25  27
ATOM     27  C15 932 d   1      -0.243  -1.756  30.408  0.00  0.00     0.091 A 
ATOM     28  S16 932 d   1      -1.164  -3.146  30.809  0.00  0.00    -0.083 SA
ATOM     29  C17 932 d   1      -2.332  -3.052  29.480  0.00  0.00    -0.036 A 
ATOM     30  C18 932 d   1      -2.011  -1.942  28.665  0.00  0.00    -0.038 A 
ATOM     31  H12 932 d   1      -3.162  -3.738  29.317  0.00  0.00     0.095 H 
ATOM     32  C19 932 d   1      -0.822  -1.182  29.179  0.00  0.00     0.052 A 
BRANCH  30  33
ATOM     33  C25 932 d   1      -2.891  -1.699  27.447  0.00  0.00    -0.050 C 
ATOM     34  H15 932 d   1      -3.671  -2.474  27.397  0.00  0.00     0.033 H 
ATOM     35  H16 932 d   1      -2.276  -1.739  26.536  0.00  0.00     0.033 H 
ATOM     36  H17 932 d   1      -3.363  -0.709  27.527  0.00  0.00     0.033 H 
ENDBRANCH  30  33
BRANCH  32  37
ATOM     37  C20 932 d   1      -0.196   0.022  28.550  0.00  0.00     0.164 A 
ATOM     38  N21 932 d   1      -0.511   0.485  27.371  0.00  0.00    -0.130 NA
ATOM     39  N22 932 d   1       0.351   1.569  27.158  0.00  0.00    -0.143 NA
ATOM     40  C23 932 d   1       1.133   1.658  28.241  0.00  0.00     0.087 A 
ATOM     41  N24 932 d   1       0.802   0.684  29.125  0.00  0.00    -0.332 N 
ATOM     42  H13 932 d   1       1.916   2.400  28.390  0.00  0.00     0.146 H 
ATOM     43  H14 932 d   1       1.231   0.498  30.043  0.00  0.00     0.168 HD
ENDBRANCH  32  37
ENDBRANCH  25  27
ENDBRANCH   1  23
TORSDOF 5
