REMARK  13 active torsions:
REMARK  status: ('A' for Active; 'I' for Inactive)
REMARK    1  A    between atoms: C1_1  and  O1_2 
REMARK    2  A    between atoms: O1_2  and  C1'_11 
REMARK    3  A    between atoms: C2_3  and  O2_4 
REMARK    4  A    between atoms: C3_5  and  O3_6 
REMARK    5  A    between atoms: C4_7  and  C5_9 
REMARK    6  A    between atoms: C5_9  and  O5_10 
REMARK    7  A    between atoms: C1'_11  and  C2'_12 
REMARK    8  A    between atoms: C2'_12  and  C3'_13 
REMARK    9  A    between atoms: C3'_13  and  C4'_14 
REMARK   10  A    between atoms: C4'_14  and  C5'_15 
REMARK   11  A    between atoms: C5'_15  and  C6'_16 
REMARK   12  A    between atoms: C6'_16  and  C7'_17 
REMARK   13  A    between atoms: C7'_17  and  C8'_18 
ROOT
ATOM      1  C1' AFO d   1      93.086  11.750   3.478  0.00  0.00     0.023 C 
ATOM      2  H   AFO d   1      92.070  11.935   3.828  0.00  0.00     0.074 H 
ATOM      3  H   AFO d   1      93.278  12.442   2.658  0.00  0.00     0.074 H 
ENDROOT
BRANCH   1   4
ATOM      4  O1  AFO d   1      93.226  10.402   3.038  0.00  0.00    -0.359 OA
BRANCH   4   5
ATOM      5  C1  AFO d   1      92.542  10.115   1.816  0.00  0.00     0.158 C 
ATOM      6  C2  AFO d   1      92.883   8.675   1.449  0.00  0.00     0.110 C 
ATOM      7  C3  AFO d   1      93.887   8.759   0.317  0.00  0.00     0.092 C 
ATOM      8  H   AFO d   1      93.294   8.145   2.308  0.00  0.00     0.094 H 
ATOM      9  C4  AFO d   1      94.141  10.246   0.114  0.00  0.00     0.089 C 
ATOM     10  H   AFO d   1      93.536   8.278  -0.596  0.00  0.00     0.091 H 
ATOM     11  O4  AFO d   1      93.069  10.938   0.770  0.00  0.00    -0.348 OA
ATOM     12  H   AFO d   1      95.108  10.513   0.540  0.00  0.00     0.090 H 
ATOM     13  H   AFO d   1      91.472  10.284   1.933  0.00  0.00     0.133 H 
BRANCH   6  14
ATOM     14  O2  AFO d   1      91.722   7.926   1.065  0.00  0.00    -0.388 OA
ATOM     15  H   AFO d   1      91.098   7.909   1.794  0.00  0.00     0.210 HD
ENDBRANCH   6  14
BRANCH   7  16
ATOM     16  O3  AFO d   1      95.092   8.131   0.741  0.00  0.00    -0.390 OA
ATOM     17  H   AFO d   1      95.740   8.175   0.034  0.00  0.00     0.210 HD
ENDBRANCH   7  16
BRANCH   9  18
ATOM     18  C5  AFO d   1      94.247  10.645  -1.356  0.00  0.00     0.043 C 
ATOM     19  H   AFO d   1      93.247  10.745  -1.779  0.00  0.00     0.078 H 
ATOM     20  H   AFO d   1      94.796   9.878  -1.902  0.00  0.00     0.078 H 
BRANCH  18  21
ATOM     21  O5  AFO d   1      94.940  11.898  -1.462  0.00  0.00    -0.398 OA
ATOM     22  H   AFO d   1      95.006  12.149  -2.386  0.00  0.00     0.209 HD
ENDBRANCH  18  21
ENDBRANCH   9  18
ENDBRANCH   4   5
ENDBRANCH   1   4
BRANCH   1  23
ATOM     23  C2' AFO d   1      94.088  11.966   4.606  0.00  0.00    -0.045 C 
ATOM     24  H   AFO d   1      95.057  12.184   4.158  0.00  0.00     0.036 H 
ATOM     25  H   AFO d   1      94.105  11.064   5.218  0.00  0.00     0.036 H 
BRANCH  23  26
ATOM     26  C3' AFO d   1      93.710  13.140   5.506  0.00  0.00    -0.063 C 
ATOM     27  H   AFO d   1      92.827  12.883   6.091  0.00  0.00     0.033 H 
ATOM     28  H   AFO d   1      93.492  14.015   4.894  0.00  0.00     0.033 H 
BRANCH  26  29
ATOM     29  C4' AFO d   1      94.872  13.448   6.443  0.00  0.00    -0.065 C 
ATOM     30  H   AFO d   1      94.468  13.725   7.417  0.00  0.00     0.033 H 
ATOM     31  H   AFO d   1      95.459  14.259   6.012  0.00  0.00     0.033 H 
BRANCH  29  32
ATOM     32  C5' AFO d   1      95.779  12.234   6.621  0.00  0.00    -0.065 C 
ATOM     33  H   AFO d   1      96.713  12.578   7.066  0.00  0.00     0.033 H 
ATOM     34  H   AFO d   1      95.919  11.777   5.642  0.00  0.00     0.033 H 
BRANCH  32  35
ATOM     35  C6' AFO d   1      95.182  11.178   7.548  0.00  0.00    -0.065 C 
ATOM     36  H   AFO d   1      94.169  10.950   7.215  0.00  0.00     0.033 H 
ATOM     37  H   AFO d   1      95.176  11.567   8.566  0.00  0.00     0.033 H 
BRANCH  35  38
ATOM     38  C7' AFO d   1      96.011   9.897   7.515  0.00  0.00    -0.069 C 
ATOM     39  H   AFO d   1      97.038  10.142   7.784  0.00  0.00     0.032 H 
ATOM     40  H   AFO d   1      95.954   9.473   6.513  0.00  0.00     0.032 H 
BRANCH  38  41
ATOM     41  C8' AFO d   1      95.486   8.876   8.500  0.00  0.00    -0.077 C 
ATOM     42  H   AFO d   1      95.527   9.290   9.507  0.00  0.00     0.027 H 
ATOM     43  H   AFO d   1      94.454   8.628   8.250  0.00  0.00     0.027 H 
ATOM     44  H   AFO d   1      96.099   7.976   8.450  0.00  0.00     0.027 H 
ENDBRANCH  38  41
ENDBRANCH  35  38
ENDBRANCH  32  35
ENDBRANCH  29  32
ENDBRANCH  26  29
ENDBRANCH  23  26
ENDBRANCH   1  23
TORSDOF 13
