REMARK WARNING: 32 MAX_TORS EXCEEDED!!!
REMARK  45 active torsions:
REMARK  status: ('A' for Active; 'I' for Inactive)
REMARK    1  A    between atoms: N_1  and  CA_2 
REMARK    2  A    between atoms: CA_2  and  C_3 
REMARK    3  A    between atoms: CA_2  and  CB_5 
REMARK       I    between atoms: C_3  and  N_6 
REMARK    4  A    between atoms: N_6  and  CA_7 
REMARK    5  A    between atoms: CA_7  and  C_8 
REMARK    6  A    between atoms: CA_7  and  CB_10 
REMARK       I    between atoms: C_8  and  N_17 
REMARK    7  A    between atoms: CB_10  and  CG_11 
REMARK    8  A    between atoms: CG_11  and  CD_12 
REMARK    9  A    between atoms: CD_12  and  NE_13 
REMARK       I    between atoms: NE_13  and  CZ_14 
REMARK       I    between atoms: CZ_14  and  NH1_15 
REMARK       I    between atoms: CZ_14  and  NH2_16 
REMARK   10  A    between atoms: N_17  and  CA_18 
REMARK   11  A    between atoms: CA_18  and  C_19 
REMARK   12  A    between atoms: CA_18  and  CB_21 
REMARK       I    between atoms: C_19  and  N_25 
REMARK   13  A    between atoms: CB_21  and  CG_22 
REMARK   14  A    between atoms: N_25  and  CA_26 
REMARK   15  A    between atoms: CA_26  and  C_27 
REMARK   16  A    between atoms: CA_26  and  CB_29 
REMARK       I    between atoms: C_27  and  N_36 
REMARK   17  A    between atoms: CB_29  and  CG_30 
REMARK   18  A    between atoms: CG_30  and  CD_31 
REMARK   19  A    between atoms: CD_31  and  NE_32 
REMARK       I    between atoms: NE_32  and  CZ_33 
REMARK       I    between atoms: CZ_33  and  NH1_34 
REMARK       I    between atoms: CZ_33  and  NH2_35 
REMARK   20  A    between atoms: N_36  and  CA_37 
REMARK   21  A    between atoms: CA_37  and  C_38 
REMARK   22  A    between atoms: CA_37  and  CB_40 
REMARK       I    between atoms: C_38  and  N_43 
REMARK   23  A    between atoms: CB_40  and  OG1_41 
REMARK   24  A    between atoms: CB_40  and  CG2_42 
REMARK   25  A    between atoms: N_43  and  CA_44 
REMARK   26  A    between atoms: CA_44  and  C_45 
REMARK   27  A    between atoms: CA_44  and  CB_47 
REMARK       I    between atoms: C_45  and  N_53 
REMARK   28  A    between atoms: CB_47  and  CG_48 
REMARK   29  A    between atoms: N_53  and  CA_54 
REMARK   30  A    between atoms: CA_54  and  C_55 
REMARK   31  A    between atoms: CA_54  and  CB_57 
REMARK       I    between atoms: C_55  and  N_62 
REMARK   32  A    between atoms: CB_57  and  CG_58 
REMARK   33  A    between atoms: CG_58  and  CD_59 
REMARK   34  A    between atoms: N_62  and  CA_63 
REMARK   35  A    between atoms: CA_63  and  C_64 
REMARK   36  A    between atoms: CA_63  and  CB_66 
REMARK       I    between atoms: C_64  and  N_70 
REMARK   37  A    between atoms: CB_66  and  CG_67 
REMARK   38  A    between atoms: CG_67  and  CD1_68 
REMARK   39  A    between atoms: CG_67  and  CD2_69 
REMARK   40  A    between atoms: N_70  and  CA_71 
REMARK   41  A    between atoms: CA_71  and  C_72 
REMARK   42  A    between atoms: CA_71  and  CB_74 
REMARK   43  A    between atoms: CB_74  and  CG_75 
REMARK   44  A    between atoms: CG_75  and  CD_76 
REMARK   45  A    between atoms: CD_76  and  NE_77 
REMARK       I    between atoms: NE_77  and  CZ_78 
REMARK       I    between atoms: CZ_78  and  NH1_79 
ROOT
ATOM      1  CA  THR d   1     -47.252 -61.321 106.561  0.00  0.00     0.113 C 
ATOM      2  H   THR d   1     -46.926 -62.314 106.871  0.00  0.00     0.091 H 
ENDROOT
BRANCH   1   3
ATOM      3  N   THR d   1     -46.142 -60.747 105.803  0.00  0.00    -0.344 N 
ATOM      4  C   ARG d   1     -45.821 -61.203 104.596  0.00  0.00     0.241 C 
ATOM      5  O   ARG d   1     -46.457 -62.088 104.028  0.00  0.00    -0.271 OA
ATOM      6  H   THR d   1     -45.603 -59.981 106.208  0.00  0.00     0.163 HD
BRANCH   4   7
ATOM      7  CA  ARG d   1     -44.597 -60.587 103.924  0.00  0.00     0.089 C 
ATOM      8  H   ARG d   1     -44.939 -60.096 103.013  0.00  0.00     0.087 H 
BRANCH   7   9
ATOM      9  N   ARG d   1     -43.953 -59.555 104.730  0.00  0.00    -0.346 N 
ATOM     10  C   ASP d   1     -44.198 -58.262 104.549  0.00  0.00     0.241 C 
ATOM     11  O   ASP d   1     -45.083 -57.842 103.802  0.00  0.00    -0.271 OA
ATOM     12  H   ARG d   1     -43.294 -59.836 105.456  0.00  0.00     0.163 HD
BRANCH  10  13
ATOM     13  CA  ASP d   1     -43.318 -57.297 105.341  0.00  0.00     0.098 C 
ATOM     14  H   ASP d   1     -42.752 -57.865 106.079  0.00  0.00     0.088 H 
BRANCH  13  15
ATOM     15  N   ASP d   1     -42.363 -56.631 104.458  0.00  0.00    -0.346 N 
ATOM     16  C   ARG d   1     -41.064 -56.584 104.741  0.00  0.00     0.241 C 
ATOM     17  O   ARG d   1     -40.598 -56.996 105.802  0.00  0.00    -0.271 OA
ATOM     18  H   ASP d   1     -42.701 -56.191 103.602  0.00  0.00     0.163 HD
BRANCH  16  19
ATOM     19  CA  ARG d   1     -40.149 -55.984 103.670  0.00  0.00     0.089 C 
ATOM     20  H   ARG d   1     -39.234 -56.576 103.672  0.00  0.00     0.087 H 
BRANCH  19  21
ATOM     21  N   ARG d   1     -40.717 -56.084 102.329  0.00  0.00    -0.346 N 
ATOM     22  C   MET d   1     -40.091 -56.756 101.367  0.00  0.00     0.248 C 
ATOM     23  O   MET d   1     -39.019 -57.336 101.543  0.00  0.00    -0.271 OA
ATOM     24  H   ARG d   1     -41.608 -55.631 102.126  0.00  0.00     0.163 HD
BRANCH  22  25
ATOM     25  CA  MET d   1     -40.771 -56.782 100.002  0.00  0.00     0.172 C 
ATOM     26  H   MET d   1     -41.157 -55.784  99.795  0.00  0.00     0.098 H 
BRANCH  25  27
ATOM     27  N   MET d   1     -39.817 -57.133  98.958  0.00  0.00    -0.067 N 
ATOM     28  H   MET d   1     -39.043 -56.469  98.969  0.00  0.00     0.275 HD
ATOM     29  H   MET d   1     -39.462 -58.074  99.126  0.00  0.00     0.275 HD
ATOM     30  H   MET d   1     -40.281 -57.101  98.050  0.00  0.00     0.275 HD
ENDBRANCH  25  27
BRANCH  25  31
ATOM     31  CB  MET d   1     -41.935 -57.760 100.004  0.00  0.00    -0.042 C 
ATOM     32  H   MET d   1     -41.568 -58.760 100.236  0.00  0.00     0.030 H 
ATOM     33  H   MET d   1     -42.663 -57.455 100.756  0.00  0.00     0.030 H 
ATOM     34  H   MET d   1     -42.407 -57.764  99.021  0.00  0.00     0.030 H 
ENDBRANCH  25  31
ENDBRANCH  22  25
ENDBRANCH  19  21
BRANCH  19  35
ATOM     35  CB  ARG d   1     -39.792 -54.534 104.003  0.00  0.00    -0.036 C 
ATOM     36  H   ARG d   1     -40.691 -54.056 104.391  0.00  0.00     0.036 H 
ATOM     37  H   ARG d   1     -39.414 -54.072 103.091  0.00  0.00     0.036 H 
BRANCH  35  38
ATOM     38  CG  ARG d   1     -38.714 -54.406 105.061  0.00  0.00    -0.048 C 
ATOM     39  H   ARG d   1     -37.938 -55.142 104.851  0.00  0.00     0.035 H 
ATOM     40  H   ARG d   1     -39.170 -54.569 106.037  0.00  0.00     0.035 H 
BRANCH  38  41
ATOM     41  CD  ARG d   1     -38.082 -53.030 105.053  0.00  0.00     0.009 C 
ATOM     42  H   ARG d   1     -38.853 -52.297 105.290  0.00  0.00     0.064 H 
ATOM     43  H   ARG d   1     -37.649 -52.857 104.068  0.00  0.00     0.064 H 
BRANCH  41  44
ATOM     44  NE  ARG d   1     -37.018 -52.917 106.049  0.00  0.00    -0.227 N 
ATOM     45  CZ  ARG d   1     -37.211 -52.564 107.318  0.00  0.00     0.665 C 
ATOM     46  NH1 ARG d   1     -38.432 -52.283 107.754  0.00  0.00    -0.235 N 
ATOM     47  NH2 ARG d   1     -36.181 -52.490 108.154  0.00  0.00    -0.235 N 
ATOM     48  H   ARG d   1     -39.226 -52.337 107.116  0.00  0.00     0.174 HD
ATOM     49  H   ARG d   1     -38.577 -52.013 108.727  0.00  0.00     0.174 HD
ATOM     50  H   ARG d   1     -35.240 -52.704 107.824  0.00  0.00     0.174 HD
ATOM     51  H   ARG d   1     -36.331 -52.219 109.126  0.00  0.00     0.174 HD
ATOM     52  H   ARG d   1     -36.064 -53.122 105.752  0.00  0.00     0.177 HD
ENDBRANCH  41  44
ENDBRANCH  38  41
ENDBRANCH  35  38
ENDBRANCH  19  35
ENDBRANCH  16  19
ENDBRANCH  13  15
BRANCH  13  53
ATOM     53  CB  ASP d   1     -44.182 -56.279 106.085  0.00  0.00     0.043 C 
ATOM     54  H   ASP d   1     -44.839 -55.800 105.358  0.00  0.00     0.052 H 
ATOM     55  H   ASP d   1     -43.517 -55.570 106.578  0.00  0.00     0.052 H 
BRANCH  53  56
ATOM     56  CG  ASP d   1     -45.053 -56.923 107.151  0.00  0.00     0.175 C 
ATOM     57  OD1 ASP d   1     -45.093 -58.169 107.219  0.00  0.00    -0.648 OA
ATOM     58  OD2 ASP d   1     -45.699 -56.185 107.925  0.00  0.00    -0.648 OA
ENDBRANCH  53  56
ENDBRANCH  13  53
ENDBRANCH  10  13
ENDBRANCH   7   9
BRANCH   7  59
ATOM     59  CB  ARG d   1     -43.595 -61.697 103.605  0.00  0.00    -0.036 C 
ATOM     60  H   ARG d   1     -44.078 -62.364 102.891  0.00  0.00     0.036 H 
ATOM     61  H   ARG d   1     -43.325 -62.161 104.553  0.00  0.00     0.036 H 
BRANCH  59  62
ATOM     62  CG  ARG d   1     -42.302 -61.223 102.961  0.00  0.00    -0.048 C 
ATOM     63  H   ARG d   1     -41.540 -61.988 103.112  0.00  0.00     0.035 H 
ATOM     64  H   ARG d   1     -42.014 -60.277 103.419  0.00  0.00     0.035 H 
BRANCH  62  65
ATOM     65  CD  ARG d   1     -42.472 -61.003 101.472  0.00  0.00     0.009 C 
ATOM     66  H   ARG d   1     -42.941 -60.031 101.317  0.00  0.00     0.064 H 
ATOM     67  H   ARG d   1     -43.086 -61.810 101.071  0.00  0.00     0.064 H 
BRANCH  65  68
ATOM     68  NE  ARG d   1     -41.186 -61.012 100.781  0.00  0.00    -0.227 N 
ATOM     69  CZ  ARG d   1     -40.579 -62.113 100.349  0.00  0.00     0.665 C 
ATOM     70  NH1 ARG d   1     -41.140 -63.301 100.536  0.00  0.00    -0.235 N 
ATOM     71  NH2 ARG d   1     -39.410 -62.028  99.730  0.00  0.00    -0.235 N 
ATOM     72  H   ARG d   1     -42.039 -63.371 101.012  0.00  0.00     0.174 HD
ATOM     73  H   ARG d   1     -40.672 -64.144 100.204  0.00  0.00     0.174 HD
ATOM     74  H   ARG d   1     -38.975 -61.117  99.585  0.00  0.00     0.174 HD
ATOM     75  H   ARG d   1     -38.946 -62.874  99.399  0.00  0.00     0.174 HD
ATOM     76  H   ARG d   1     -40.724 -60.117 100.620  0.00  0.00     0.177 HD
ENDBRANCH  65  68
ENDBRANCH  62  65
ENDBRANCH  59  62
ENDBRANCH   7  59
ENDBRANCH   4   7
ENDBRANCH   1   3
BRANCH   1  77
ATOM     77  C   THR d   1     -48.511 -61.457 105.707  0.00  0.00     0.243 C 
ATOM     78  O   THR d   1     -49.080 -62.543 105.589  0.00  0.00    -0.271 OA
ATOM     79  N   HIS d   1     -48.937 -60.347 105.114  0.00  0.00    -0.346 N 
ATOM     80  H   HIS d   1     -48.427 -59.477 105.266  0.00  0.00     0.163 HD
BRANCH  79  81
ATOM     81  CA  HIS d   1     -50.111 -60.336 104.253  0.00  0.00     0.094 C 
ATOM     82  H   HIS d   1     -50.982 -60.571 104.864  0.00  0.00     0.088 H 
BRANCH  81  83
ATOM     83  C   HIS d   1     -49.989 -61.385 103.153  0.00  0.00     0.241 C 
ATOM     84  O   HIS d   1     -50.973 -62.013 102.768  0.00  0.00    -0.271 OA
ATOM     85  N   GLU d   1     -48.771 -61.567 102.653  0.00  0.00    -0.346 N 
ATOM     86  H   GLU d   1     -47.986 -61.064 103.067  0.00  0.00     0.163 HD
BRANCH  85  87
ATOM     87  CA  GLU d   1     -48.521 -62.464 101.530  0.00  0.00     0.090 C 
ATOM     88  H   GLU d   1     -49.249 -62.223 100.755  0.00  0.00     0.087 H 
BRANCH  87  89
ATOM     89  C   GLU d   1     -48.731 -63.931 101.899  0.00  0.00     0.241 C 
ATOM     90  O   GLU d   1     -49.014 -64.760 101.035  0.00  0.00    -0.271 OA
ATOM     91  N   LEU d   1     -48.590 -64.247 103.182  0.00  0.00    -0.346 N 
ATOM     92  H   LEU d   1     -48.307 -63.526 103.846  0.00  0.00     0.163 HD
BRANCH  91  93
ATOM     93  CA  LEU d   1     -48.832 -65.602 103.660  0.00  0.00     0.089 C 
ATOM     94  H   LEU d   1     -48.155 -66.279 103.140  0.00  0.00     0.087 H 
BRANCH  93  95
ATOM     95  C   LEU d   1     -50.271 -66.003 103.371  0.00  0.00     0.241 C 
ATOM     96  O   LEU d   1     -50.531 -67.047 102.773  0.00  0.00    -0.271 OA
ATOM     97  N   ARG d   1     -51.204 -65.158 103.799  0.00  0.00    -0.345 N 
ATOM     98  H   ARG d   1     -50.915 -64.298 104.265  0.00  0.00     0.163 HD
BRANCH  97  99
ATOM     99  CA  ARG d   1     -52.626 -65.421 103.624  0.00  0.00     0.096 C 
ATOM    100  H   ARG d   1     -52.748 -66.484 103.416  0.00  0.00     0.089 H 
BRANCH  99 101
ATOM    101  C   ARG d   1     -53.198 -64.651 102.438  0.00  0.00     0.196 C 
ATOM    102  O   ARG d   1     -53.475 -65.228 101.386  0.00  0.00    -0.646 OA
ATOM    103  O   ARG d   1     -53.389 -63.410 102.536  0.00  0.00    -0.646 OA
ENDBRANCH  99 101
BRANCH  99 104
ATOM    104  CB  ARG d   1     -53.384 -65.065 104.903  0.00  0.00    -0.035 C 
ATOM    105  H   ARG d   1     -53.090 -65.788 105.664  0.00  0.00     0.036 H 
ATOM    106  H   ARG d   1     -54.447 -65.080 104.662  0.00  0.00     0.036 H 
BRANCH 104 107
ATOM    107  CG  ARG d   1     -53.065 -63.680 105.450  0.00  0.00    -0.047 C 
ATOM    108  H   ARG d   1     -53.573 -62.936 104.836  0.00  0.00     0.035 H 
ATOM    109  H   ARG d   1     -51.985 -63.535 105.426  0.00  0.00     0.035 H 
BRANCH 107 110
ATOM    110  CD  ARG d   1     -53.545 -63.537 106.886  0.00  0.00     0.009 C 
ATOM    111  H   ARG d   1     -54.590 -63.844 106.929  0.00  0.00     0.064 H 
ATOM    112  H   ARG d   1     -53.414 -62.498 107.188  0.00  0.00     0.064 H 
BRANCH 110 113
ATOM    113  NE  ARG d   1     -52.781 -64.380 107.802  0.00  0.00    -0.227 N 
ATOM    114  CZ  ARG d   1     -51.980 -63.916 108.756  0.00  0.00     0.665 C 
ATOM    115  NH1 ARG d   1     -51.842 -62.609 108.934  0.00  0.00    -0.235 N 
ATOM    116  NH2 ARG d   1     -51.324 -64.761 109.540  0.00  0.00    -0.235 N 
ATOM    117  H   ARG d   1     -52.351 -61.956 108.338  0.00  0.00     0.174 HD
ATOM    118  H   ARG d   1     -51.227 -62.256 109.667  0.00  0.00     0.174 HD
ATOM    119  H   ARG d   1     -51.434 -65.767 109.411  0.00  0.00     0.174 HD
ATOM    120  H   ARG d   1     -50.709 -64.405 110.272  0.00  0.00     0.174 HD
ATOM    121  H   ARG d   1     -52.868 -65.391 107.703  0.00  0.00     0.177 HD
ENDBRANCH 110 113
ENDBRANCH 107 110
ENDBRANCH 104 107
ENDBRANCH  99 104
ENDBRANCH  97  99
ENDBRANCH  93  95
BRANCH  93 122
ATOM    122  CB  LEU d   1     -48.565 -65.696 105.162  0.00  0.00    -0.035 C 
ATOM    123  H   LEU d   1     -48.837 -66.711 105.450  0.00  0.00     0.037 H 
ATOM    124  H   LEU d   1     -49.133 -64.885 105.617  0.00  0.00     0.037 H 
BRANCH 122 125
ATOM    125  CG  LEU d   1     -47.120 -65.504 105.621  0.00  0.00    -0.059 C 
ATOM    126  H   LEU d   1     -46.688 -64.670 105.068  0.00  0.00     0.038 H 
BRANCH 125 127
ATOM    127  CD1 LEU d   1     -47.082 -65.169 107.100  0.00  0.00    -0.073 C 
ATOM    128  H   LEU d   1     -47.639 -64.249 107.277  0.00  0.00     0.028 H 
ATOM    129  H   LEU d   1     -47.533 -65.983 107.667  0.00  0.00     0.028 H 
ATOM    130  H   LEU d   1     -46.047 -65.035 107.414  0.00  0.00     0.028 H 
ENDBRANCH 125 127
BRANCH 125 131
ATOM    131  CD2 LEU d   1     -46.282 -66.739 105.316  0.00  0.00    -0.073 C 
ATOM    132  H   LEU d   1     -46.703 -67.600 105.836  0.00  0.00     0.028 H 
ATOM    133  H   LEU d   1     -46.287 -66.924 104.242  0.00  0.00     0.028 H 
ATOM    134  H   LEU d   1     -45.259 -66.574 105.653  0.00  0.00     0.028 H 
ENDBRANCH 125 131
ENDBRANCH 122 125
ENDBRANCH  93 122
ENDBRANCH  91  93
ENDBRANCH  87  89
BRANCH  87 135
ATOM    135  CB  GLU d   1     -47.109 -62.246 100.981  0.00  0.00    -0.029 C 
ATOM    136  H   GLU d   1     -46.413 -62.627 101.728  0.00  0.00     0.037 H 
ATOM    137  H   GLU d   1     -47.007 -61.181 100.773  0.00  0.00     0.037 H 
BRANCH 135 138
ATOM    138  CG  GLU d   1     -46.820 -62.983  99.684  0.00  0.00     0.018 C 
ATOM    139  H   GLU d   1     -47.597 -62.719  98.967  0.00  0.00     0.049 H 
ATOM    140  H   GLU d   1     -46.798 -64.051  99.902  0.00  0.00     0.049 H 
BRANCH 138 141
ATOM    141  CD  GLU d   1     -45.482 -62.601  99.084  0.00  0.00     0.172 C 
ATOM    142  OE1 GLU d   1     -44.889 -61.600  99.540  0.00  0.00    -0.648 OA
ATOM    143  OE2 GLU d   1     -45.025 -63.299  98.153  0.00  0.00    -0.648 OA
ENDBRANCH 138 141
ENDBRANCH 135 138
ENDBRANCH  87 135
ENDBRANCH  85  87
ENDBRANCH  81  83
BRANCH  81 144
ATOM    144  CB  HIS d   1     -50.283 -58.955 103.622  0.00  0.00     0.004 C 
ATOM    145  H   HIS d   1     -50.311 -58.227 104.433  0.00  0.00     0.046 H 
ATOM    146  H   HIS d   1     -51.195 -58.980 103.025  0.00  0.00     0.046 H 
BRANCH 144 147
ATOM    147  CG  HIS d   1     -49.160 -58.568 102.710  0.00  0.00     0.053 A 
ATOM    148  ND1 HIS d   1     -49.179 -58.822 101.356  0.00  0.00    -0.247 NA
ATOM    149  CE1 HIS d   1     -48.061 -58.378 100.811  0.00  0.00     0.064 A 
ATOM    150  NE2 HIS d   1     -47.315 -57.847 101.763  0.00  0.00    -0.359 N 
ATOM    151  H   HIS d   1     -47.798 -58.439  99.755  0.00  0.00     0.143 H 
ATOM    152  CD2 HIS d   1     -47.979 -57.955 102.961  0.00  0.00     0.002 A 
ATOM    153  H   HIS d   1     -46.396 -57.425 101.630  0.00  0.00     0.166 HD
ATOM    154  H   HIS d   1     -47.622 -57.611 103.932  0.00  0.00     0.114 H 
ENDBRANCH 144 147
ENDBRANCH  81 144
ENDBRANCH  79  81
ENDBRANCH   1  77
BRANCH   1 155
ATOM    155  CB  THR d   1     -47.579 -60.488 107.813  0.00  0.00     0.060 C 
ATOM    156  H   THR d   1     -48.007 -59.536 107.499  0.00  0.00     0.086 H 
BRANCH 155 157
ATOM    157  OG1 THR d   1     -46.381 -60.256 108.563  0.00  0.00    -0.393 OA
ATOM    158  H   THR d   1     -45.751 -59.779 108.018  0.00  0.00     0.210 HD
ENDBRANCH 155 157
BRANCH 155 159
ATOM    159  CG2 THR d   1     -48.584 -61.221 108.685  0.00  0.00    -0.050 C 
ATOM    160  H   THR d   1     -49.500 -61.389 108.119  0.00  0.00     0.031 H 
ATOM    161  H   THR d   1     -48.165 -62.179 108.993  0.00  0.00     0.031 H 
ATOM    162  H   THR d   1     -48.805 -60.619 109.567  0.00  0.00     0.031 H 
ENDBRANCH 155 159
ENDBRANCH   1 155
TORSDOF 45
