REMARK  1 active torsions:
REMARK  status: ('A' for Active; 'I' for Inactive)
REMARK    1  A    between atoms: C21_21  and  N22_22 
ROOT
ATOM      1  C1  OS1 d   1      21.862 -17.387  -8.025  0.00  0.00     0.062 A 
ATOM      2  C2  OS1 d   1      20.734 -18.106  -7.556  0.00  0.00     0.061 A 
ATOM      3  C3  OS1 d   1      21.147 -18.767  -6.371  0.00  0.00     0.260 A 
ATOM      4  O4  OS1 d   1      20.644 -19.514  -5.508  0.00  0.00    -0.267 OA
ATOM      5  N5  OS1 d   1      22.431 -18.438  -6.169  0.00  0.00    -0.289 N 
ATOM      6  C6  OS1 d   1      22.900 -17.618  -7.127  0.00  0.00     0.260 A 
ATOM      7  O7  OS1 d   1      24.075 -17.184  -7.131  0.00  0.00    -0.267 OA
ATOM      8  C8  OS1 d   1      19.517 -18.029  -8.266  0.00  0.00     0.014 A 
ATOM      9  C9  OS1 d   1      19.502 -17.214  -9.425  0.00  0.00     0.097 A 
ATOM     10  C10 OS1 d   1      20.636 -16.530  -9.883  0.00  0.00     0.099 A 
ATOM     11  C11 OS1 d   1      21.845 -16.597  -9.192  0.00  0.00     0.024 A 
ATOM     12  C12 OS1 d   1      22.723 -15.782  -9.938  0.00  0.00     0.006 A 
ATOM     13  C13 OS1 d   1      21.971 -15.291 -11.030  0.00  0.00     0.068 A 
ATOM     14  N14 OS1 d   1      20.757 -15.784 -10.967  0.00  0.00    -0.245 N 
ATOM     15 RU15 OS1 d   1      18.882 -15.719 -11.761  0.00  0.00     0.000 Ru
ATOM     16 CL16 OS1 d   1      16.574 -15.501 -12.340  0.00  0.00     0.000 Cl
ATOM     17  C17 OS1 d   1      19.040 -17.094 -12.916  0.00  0.00     0.279 C 
ATOM     18  O18 OS1 d   1      19.081 -17.986 -13.616  0.00  0.00    -0.279 OA
ATOM     19  N19 OS1 d   1      18.377 -17.058 -10.244  0.00  0.00    -0.256 N 
ATOM     20  C20 OS1 d   1      17.209 -17.669  -9.879  0.00  0.00     0.028 A 
ATOM     21  C21 OS1 d   1      17.167 -18.488  -8.725  0.00  0.00     0.044 A 
ATOM     22  C23 OS1 d   1      18.314 -18.668  -7.920  0.00  0.00    -0.043 A 
ATOM     23  N24 OS1 d   1      18.598 -14.060 -10.440  0.00  0.00    -0.335 N 
ATOM     24  C25 OS1 d   1      19.627 -13.091 -10.839  0.00  0.00     0.047 C 
ATOM     25  C26 OS1 d   1      19.545 -13.046 -12.333  0.00  0.00     0.053 A 
ATOM     26  N27 OS1 d   1      19.282 -14.165 -13.039  0.00  0.00    -0.264 N 
ATOM     27  C28 OS1 d   1      19.188 -14.015 -14.343  0.00  0.00     0.003 A 
ATOM     28  C29 OS1 d   1      19.362 -12.847 -15.015  0.00  0.00    -0.066 A 
ATOM     29  C30 OS1 d   1      19.633 -11.724 -14.293  0.00  0.00    -0.080 A 
ATOM     30  C31 OS1 d   1      19.728 -11.846 -12.949  0.00  0.00    -0.057 A 
ATOM     31  C32 OS1 d   1      22.549 -14.432 -11.985  0.00  0.00    -0.054 A 
ATOM     32  C33 OS1 d   1      23.913 -14.080 -11.812  0.00  0.00    -0.081 A 
ATOM     33  C34 OS1 d   1      24.686 -14.584 -10.726  0.00  0.00    -0.082 A 
ATOM     34  C35 OS1 d   1      24.082 -15.430  -9.780  0.00  0.00    -0.070 A 
ATOM     35  H   OS1 d   1      22.976 -18.764  -5.397  0.00  0.00     0.172 HD
ATOM     36  H   OS1 d   1      16.314 -17.526 -10.474  0.00  0.00     0.118 H 
ATOM     37  H   OS1 d   1      18.266 -19.297  -7.038  0.00  0.00     0.088 H 
ATOM     38  H   OS1 d   1      17.974 -13.627  -9.672  0.00  0.00     0.180 HD
ATOM     39  H   OS1 d   1      20.623 -13.427 -10.515  0.00  0.00     0.075 H 
ATOM     40  H   OS1 d   1      19.416 -12.101 -10.409  0.00  0.00     0.075 H 
ATOM     41  H   OS1 d   1      18.952 -14.896 -14.929  0.00  0.00     0.114 H 
ATOM     42  H   OS1 d   1      19.287 -12.810 -16.096  0.00  0.00     0.085 H 
ATOM     43  H   OS1 d   1      19.768 -10.765 -14.779  0.00  0.00     0.083 H 
ATOM     44  H   OS1 d   1      19.954 -10.971 -12.351  0.00  0.00     0.086 H 
ATOM     45  H   OS1 d   1      21.973 -14.053 -12.822  0.00  0.00     0.087 H 
ATOM     46  H   OS1 d   1      24.379 -13.410 -12.525  0.00  0.00     0.083 H 
ATOM     47  H   OS1 d   1      25.732 -14.317 -10.630  0.00  0.00     0.083 H 
ATOM     48  H   OS1 d   1      24.652 -15.808  -8.939  0.00  0.00     0.084 H 
ENDROOT
BRANCH  21  49
ATOM     49  N22 OS1 d   1      16.015 -19.191  -8.293  0.00  0.00    -0.398 N 
ATOM     50  H   OS1 d   1      16.054 -19.770  -7.442  0.00  0.00     0.156 HD
ATOM     51  H   OS1 d   1      15.139 -19.123  -8.830  0.00  0.00     0.156 HD
ENDBRANCH  21  49
TORSDOF 1
