REMARK  9 active torsions:
REMARK  status: ('A' for Active; 'I' for Inactive)
REMARK    1  A    between atoms: C1_1  and  C7_7 
REMARK    2  A    between atoms: C10_10  and  C13_13 
REMARK    3  A    between atoms: N11_11  and  C12_12 
REMARK    4  A    between atoms: C13_13  and  N14_14 
REMARK    5  A    between atoms: N14_14  and  C15_15 
REMARK    6  A    between atoms: C19_19  and  C21_21 
REMARK       I    between atoms: C21_21  and  N23_23 
REMARK    7  A    between atoms: N23_23  and  C24_24 
REMARK    8  A    between atoms: C24_24  and  C25_25 
REMARK    9  A    between atoms: C26_26  and  C31_31 
ROOT
ATOM      1  C15 QRW d   1      38.213  -7.973  52.914  0.00  0.00     0.029 A 
ATOM      2  C16 QRW d   1      36.955  -7.465  53.263  0.00  0.00    -0.058 A 
ATOM      3  C17 QRW d   1      36.416  -7.729  54.527  0.00  0.00    -0.080 A 
ATOM      4  C18 QRW d   1      37.131  -8.499  55.450  0.00  0.00    -0.068 A 
ATOM      5  C19 QRW d   1      38.385  -8.997  55.108  0.00  0.00     0.034 A 
ATOM      6  C20 QRW d   1      38.907  -8.740  53.841  0.00  0.00    -0.042 A 
ATOM      7  H11 QRW d   1      36.398  -6.866  52.552  0.00  0.00     0.086 H 
ATOM      8  H12 QRW d   1      35.441  -7.335  54.792  0.00  0.00     0.083 H 
ATOM      9  H13 QRW d   1      36.711  -8.707  56.427  0.00  0.00     0.085 H 
ATOM     10  H14 QRW d   1      39.875  -9.148  53.574  0.00  0.00     0.088 H 
ENDROOT
BRANCH   1  11
ATOM     11  N14 QRW d   1      38.785  -7.756  51.719  0.00  0.00    -0.383 N 
ATOM     12  H10 QRW d   1      39.756  -8.071  51.584  0.00  0.00     0.160 HD
BRANCH  11  13
ATOM     13  C13 QRW d   1      38.109  -7.094  50.587  0.00  0.00     0.049 C 
ATOM     14  H8  QRW d   1      38.707  -7.241  49.675  0.00  0.00     0.075 H 
ATOM     15  H9  QRW d   1      37.114  -7.543  50.450  0.00  0.00     0.075 H 
BRANCH  13  16
ATOM     16  C10 QRW d   1      37.949  -5.590  50.844  0.00  0.00     0.147 A 
ATOM     17  N9  QRW d   1      38.554  -4.868  51.788  0.00  0.00    -0.133 NA
ATOM     18  N8  QRW d   1      38.187  -3.690  51.716  0.00  0.00    -0.129 NA
ATOM     19  C7  QRW d   1      37.325  -3.538  50.720  0.00  0.00     0.163 A 
ATOM     20  N11 QRW d   1      37.182  -4.747  50.177  0.00  0.00    -0.319 N 
BRANCH  19  21
ATOM     21  C1  QRW d   1      36.727  -2.333  50.365  0.00  0.00     0.015 A 
ATOM     22  C2  QRW d   1      35.359  -2.242  50.102  0.00  0.00    -0.052 A 
ATOM     23  C3  QRW d   1      34.806  -1.003  49.754  0.00  0.00     0.003 A 
ATOM     24  H1  QRW d   1      34.730  -3.123  50.166  0.00  0.00     0.087 H 
ATOM     25  N4  QRW d   1      35.569   0.089  49.678  0.00  0.00    -0.273 NA
ATOM     26  H2  QRW d   1      33.745  -0.930  49.544  0.00  0.00     0.114 H 
ATOM     27  C5  QRW d   1      36.876   0.032  49.929  0.00  0.00     0.003 A 
ATOM     28  C6  QRW d   1      37.497  -1.176  50.276  0.00  0.00    -0.052 A 
ATOM     29  H3  QRW d   1      37.470   0.936  49.864  0.00  0.00     0.114 H 
ATOM     30  H4  QRW d   1      38.562  -1.209  50.472  0.00  0.00     0.087 H 
ENDBRANCH  19  21
BRANCH  20  31
ATOM     31  C12 QRW d   1      36.321  -5.119  49.031  0.00  0.00    -0.011 C 
ATOM     32  H5  QRW d   1      35.792  -4.227  48.665  0.00  0.00     0.057 H 
ATOM     33  H6  QRW d   1      35.588  -5.873  49.353  0.00  0.00     0.057 H 
ATOM     34  H7  QRW d   1      36.943  -5.533  48.224  0.00  0.00     0.057 H 
ENDBRANCH  20  31
ENDBRANCH  13  16
ENDBRANCH  11  13
ENDBRANCH   1  11
BRANCH   5  35
ATOM     35  C21 QRW d   1      39.204  -9.851  56.082  0.00  0.00     0.252 C 
ATOM     36  O22 QRW d   1      38.640 -10.576  56.900  0.00  0.00    -0.268 OA
ATOM     37  N23 QRW d   1      40.536  -9.753  55.924  0.00  0.00    -0.353 N 
ATOM     38  H15 QRW d   1      40.874  -9.094  55.252  0.00  0.00     0.163 HD
BRANCH  37  39
ATOM     39  C24 QRW d   1      41.534 -10.543  56.665  0.00  0.00     0.020 C 
ATOM     40  H16 QRW d   1      41.185 -10.729  57.691  0.00  0.00     0.071 H 
ATOM     41  H17 QRW d   1      42.495 -10.009  56.696  0.00  0.00     0.071 H 
BRANCH  39  42
ATOM     42  C25 QRW d   1      41.690 -11.877  55.905  0.00  0.00    -0.025 A 
ATOM     43  C26 QRW d   1      42.657 -12.205  54.927  0.00  0.00     0.055 A 
ATOM     44  C27 QRW d   1      42.628 -13.477  54.330  0.00  0.00    -0.068 A 
ATOM     45  C28 QRW d   1      41.672 -14.430  54.676  0.00  0.00    -0.082 A 
ATOM     46  H18 QRW d   1      43.370 -13.724  53.579  0.00  0.00     0.084 H 
ATOM     47  C29 QRW d   1      40.717 -14.112  55.633  0.00  0.00    -0.082 A 
ATOM     48  H19 QRW d   1      41.674 -15.406  54.205  0.00  0.00     0.083 H 
ATOM     49  C30 QRW d   1      40.738 -12.851  56.228  0.00  0.00    -0.074 A 
ATOM     50  H20 QRW d   1      39.962 -14.837  55.915  0.00  0.00     0.083 H 
ATOM     51  H21 QRW d   1      39.986 -12.615  56.972  0.00  0.00     0.084 H 
BRANCH  43  52
ATOM     52  C31 QRW d   1      43.768 -11.222  54.450  0.00  0.00     0.418 C 
ATOM     53  F32 QRW d   1      44.903 -11.889  54.155  0.00  0.00    -0.166 F 
ATOM     54  F33 QRW d   1      44.046 -10.302  55.385  0.00  0.00    -0.166 F 
ATOM     55  F34 QRW d   1      43.330 -10.623  53.323  0.00  0.00    -0.166 F 
ENDBRANCH  43  52
ENDBRANCH  39  42
ENDBRANCH  37  39
ENDBRANCH   5  35
TORSDOF 9
