REMARK  6 active torsions:
REMARK  status: ('A' for Active; 'I' for Inactive)
REMARK    1  A    between atoms: C3_3  and  O4_4 
REMARK    2  A    between atoms: C7_7  and  C8_8 
REMARK    3  A    between atoms: C8_8  and  C9_9 
REMARK    4  A    between atoms: C9_9  and  N10_10 
REMARK    5  A    between atoms: C14_14  and  N15_15 
REMARK    6  A    between atoms: C20_20  and  C21_21 
ROOT
ATOM      1  N10 ZMA d   1      52.252  22.424  33.700  0.00  0.00    -0.221 N 
ATOM      2  C11 ZMA d   1      51.494  23.047  32.750  0.00  0.00     0.754 A 
ATOM      3  N12 ZMA d   1      50.169  22.717  32.633  0.00  0.00     0.133 NA
ATOM      4  N13 ZMA d   1      52.186  23.963  31.994  0.00  0.00     0.131 NA
ATOM      5  C14 ZMA d   1      51.539  24.642  31.018  0.00  0.00     0.752 A 
ATOM      6  N16 ZMA d   1      50.128  24.310  30.873  0.00  0.00     0.121 N 
ATOM      7  N17 ZMA d   1      49.125  24.785  29.992  0.00  0.00    -0.113 NA
ATOM      8  C18 ZMA d   1      49.501  23.382  31.665  0.00  0.00     0.782 A 
ATOM      9  N19 ZMA d   1      48.146  23.256  31.314  0.00  0.00    -0.035 NA
ATOM     10  C20 ZMA d   1      47.947  24.118  30.299  0.00  0.00     0.223 A 
ATOM     11  H   ZMA d   1      53.264  22.538  33.645  0.00  0.00     0.177 HD
ENDROOT
BRANCH   1  12
ATOM     12  C9  ZMA d   1      51.726  21.611  34.783  0.00  0.00     0.013 C 
ATOM     13  H   ZMA d   1      50.671  21.419  34.587  0.00  0.00     0.065 H 
ATOM     14  H   ZMA d   1      52.302  20.687  34.830  0.00  0.00     0.065 H 
BRANCH  12  15
ATOM     15  C8  ZMA d   1      51.845  22.323  36.134  0.00  0.00    -0.026 C 
ATOM     16  H   ZMA d   1      52.715  21.931  36.661  0.00  0.00     0.042 H 
ATOM     17  H   ZMA d   1      51.946  23.394  35.958  0.00  0.00     0.042 H 
BRANCH  15  18
ATOM     18  C7  ZMA d   1      50.620  22.085  36.979  0.00  0.00    -0.057 A 
ATOM     19  C1  ZMA d   1      50.372  22.867  38.115  0.00  0.00    -0.074 A 
ATOM     20  C2  ZMA d   1      49.231  22.640  38.888  0.00  0.00    -0.051 A 
ATOM     21  H   ZMA d   1      51.071  23.654  38.396  0.00  0.00     0.084 H 
ATOM     22  C3  ZMA d   1      48.337  21.635  38.528  0.00  0.00     0.065 A 
ATOM     23  H   ZMA d   1      49.041  23.249  39.772  0.00  0.00     0.087 H 
ATOM     24  C5  ZMA d   1      48.566  20.850  37.404  0.00  0.00    -0.051 A 
ATOM     25  C6  ZMA d   1      49.707  21.076  36.631  0.00  0.00    -0.074 A 
ATOM     26  H   ZMA d   1      47.861  20.065  37.128  0.00  0.00     0.087 H 
ATOM     27  H   ZMA d   1      49.891  20.463  35.749  0.00  0.00     0.084 H 
BRANCH  22  28
ATOM     28  O4  ZMA d   1      47.234  21.447  39.313  0.00  0.00    -0.361 OA
ATOM     29  H   ZMA d   1      46.706  20.729  38.955  0.00  0.00     0.217 HD
ENDBRANCH  22  28
ENDBRANCH  15  18
ENDBRANCH  12  15
ENDBRANCH   1  12
BRANCH   5  30
ATOM     30  N15 ZMA d   1      52.126  25.574  30.207  0.00  0.00    -0.230 N 
ATOM     31  H   ZMA d   1      53.115  25.796  30.318  0.00  0.00     0.174 HD
ATOM     32  H   ZMA d   1      51.574  26.047  29.491  0.00  0.00     0.174 HD
ENDBRANCH   5  30
BRANCH  10  33
ATOM     33  C21 ZMA d   1      46.671  24.342  29.586  0.00  0.00     0.125 A 
ATOM     34  C22 ZMA d   1      45.527  23.578  29.709  0.00  0.00    -0.045 A 
ATOM     35  C23 ZMA d   1      44.558  24.147  28.845  0.00  0.00    -0.059 A 
ATOM     36  H   ZMA d   1      45.395  22.705  30.348  0.00  0.00     0.088 H 
ATOM     37  C24 ZMA d   1      45.166  25.223  28.241  0.00  0.00     0.019 A 
ATOM     38  H   ZMA d   1      43.536  23.801  28.690  0.00  0.00     0.086 H 
ATOM     39  O25 ZMA d   1      46.443  25.348  28.680  0.00  0.00    -0.319 OA
ATOM     40  H   ZMA d   1      44.690  25.881  27.514  0.00  0.00     0.123 H 
ENDBRANCH  10  33
TORSDOF 6
