REMARK  2 active torsions:
REMARK  status: ('A' for Active; 'I' for Inactive)
REMARK    1  A    between atoms: C1_1  and  N1_2 
REMARK    2  A    between atoms: C5_12  and  C7_15 
ROOT
ATOM      1  C1  JP2 d   1       2.717   3.347   8.428  0.00  0.00     0.680 A 
ATOM      2  O1  JP2 d   1      -0.726   3.160   8.476  0.00  0.00    -0.265 OA
ATOM      3  C2  JP2 d   1       0.481   3.413   8.115  0.00  0.00     0.292 A 
ATOM      4  N2  JP2 d   1       1.488   3.059   8.893  0.00  0.00    -0.154 N 
ATOM      5  C3  JP2 d   1       0.612   4.140   6.876  0.00  0.00     0.171 A 
ATOM      6  N3  JP2 d   1       2.962   3.992   7.264  0.00  0.00    -0.172 N 
ATOM      7  C4  JP2 d   1       1.946   4.435   6.446  0.00  0.00     0.178 A 
ATOM      8  N4  JP2 d   1       2.243   5.169   5.363  0.00  0.00    -0.220 NA
ATOM      9  C5  JP2 d   1       1.165   5.657   4.657  0.00  0.00     0.152 C 
ATOM     10  N5  JP2 d   1      -0.456   4.501   6.061  0.00  0.00    -0.249 NA
ATOM     11  C6  JP2 d   1      -0.206   5.273   4.993  0.00  0.00     0.038 C 
ATOM     12  H3  JP2 d   1       1.346   2.605   9.773  0.00  0.00     0.187 HD
ATOM     13  H4  JP2 d   1       3.938   4.157   6.981  0.00  0.00     0.186 HD
ATOM     14  H5  JP2 d   1      -1.027   5.615   4.373  0.00  0.00     0.118 H 
ENDROOT
BRANCH   1  15
ATOM     15  N1  JP2 d   1       3.787   3.033   9.181  0.00  0.00    -0.234 N 
ATOM     16  H1  JP2 d   1       3.660   2.542  10.077  0.00  0.00     0.174 HD
ATOM     17  H2  JP2 d   1       4.733   3.284   8.861  0.00  0.00     0.174 HD
ENDBRANCH   1  15
BRANCH   9  18
ATOM     18  C7  JP2 d   1       1.412   6.479   3.498  0.00  0.00     0.230 C 
ATOM     19  O2  JP2 d   1       2.627   6.730   3.223  0.00  0.00    -0.643 OA
ATOM     20  O3  JP2 d   1       0.480   6.992   2.864  0.00  0.00    -0.643 OA
ENDBRANCH   9  18
TORSDOF 2
