REMARK  4 active torsions:
REMARK  status: ('A' for Active; 'I' for Inactive)
REMARK    1  A    between atoms: C1_1  and  N1_2 
REMARK    2  A    between atoms: C7_16  and  C5_12 
REMARK       I    between atoms: N6_15  and  C7_16 
REMARK    3  A    between atoms: C8_17  and  N6_15 
REMARK    4  A    between atoms: C8_17  and  C9_18 
ROOT
ATOM      1  C1  JP3 d   1       2.347   3.354   8.208  0.00  0.00     0.680 A 
ATOM      2  O1  JP3 d   1      -1.091   3.078   8.346  0.00  0.00    -0.265 OA
ATOM      3  C2  JP3 d   1       0.026   3.373   7.934  0.00  0.00     0.292 A 
ATOM      4  N2  JP3 d   1       1.114   3.035   8.689  0.00  0.00    -0.154 N 
ATOM      5  C3  JP3 d   1       0.201   4.056   6.640  0.00  0.00     0.171 A 
ATOM      6  N3  JP3 d   1       2.567   3.967   7.028  0.00  0.00    -0.172 N 
ATOM      7  C4  JP3 d   1       1.566   4.367   6.224  0.00  0.00     0.178 A 
ATOM      8  N4  JP3 d   1       1.775   5.015   5.057  0.00  0.00    -0.221 NA
ATOM      9  C5  JP3 d   1       0.687   5.376   4.306  0.00  0.00     0.144 A 
ATOM     10  N5  JP3 d   1      -0.820   4.416   5.854  0.00  0.00    -0.249 NA
ATOM     11  C6  JP3 d   1      -0.608   5.093   4.724  0.00  0.00     0.036 A 
ATOM     12  H3  JP3 d   1       1.008   2.568   9.567  0.00  0.00     0.187 HD
ATOM     13  H4  JP3 d   1       3.539   4.136   6.731  0.00  0.00     0.186 HD
ATOM     14  H5  JP3 d   1      -1.451   5.424   4.128  0.00  0.00     0.118 H 
ENDROOT
BRANCH   9  15
ATOM     15  C7  JP3 d   1       0.908   6.202   3.109  0.00  0.00     0.272 C 
ATOM     16  O2  JP3 d   1       2.071   6.443   2.814  0.00  0.00    -0.266 OA
ATOM     17  N6  JP3 d   1      -0.090   6.798   2.458  0.00  0.00    -0.349 N 
ATOM     18  H6  JP3 d   1      -1.015   6.757   2.836  0.00  0.00     0.163 HD
BRANCH  17  19
ATOM     19  C8  JP3 d   1       0.145   7.523   1.180  0.00  0.00     0.040 C 
ATOM     20  H7  JP3 d   1      -0.567   7.155   0.426  0.00  0.00     0.074 H 
ATOM     21  H8  JP3 d   1       1.173   7.325   0.842  0.00  0.00     0.074 H 
BRANCH  19  22
ATOM     22  C9  JP3 d   1      -0.042   9.045   1.342  0.00  0.00     0.070 A 
ATOM     23  O3  JP3 d   1       0.496   9.846   2.359  0.00  0.00    -0.325 OA
ATOM     24  C12 JP3 d   1       0.101  11.167   2.149  0.00  0.00     0.019 A 
ATOM     25  C11 JP3 d   1      -0.674  11.185   0.986  0.00  0.00    -0.059 A 
ATOM     26  H11 JP3 d   1       0.350  12.024   2.774  0.00  0.00     0.123 H 
ATOM     27  C10 JP3 d   1      -0.767   9.891   0.473  0.00  0.00    -0.051 A 
ATOM     28  H10 JP3 d   1      -1.133  12.070   0.549  0.00  0.00     0.086 H 
ATOM     29  H9  JP3 d   1      -1.299   9.589  -0.428  0.00  0.00     0.087 H 
ENDBRANCH  19  22
ENDBRANCH  17  19
ENDBRANCH   9  15
BRANCH   1  30
ATOM     30  N1  JP3 d   1       3.423   3.027   8.943  0.00  0.00    -0.234 N 
ATOM     31  H1  JP3 d   1       3.303   2.557   9.852  0.00  0.00     0.174 HD
ATOM     32  H2  JP3 d   1       4.368   3.246   8.598  0.00  0.00     0.174 HD
ENDBRANCH   1  30
TORSDOF 4
