REMARK  28 active torsions:
REMARK  status: ('A' for Active; 'I' for Inactive)
REMARK    1  A    between atoms: N_1  and  CA_2 
REMARK    2  A    between atoms: CA_2  and  C_3 
REMARK    3  A    between atoms: CA_2  and  CB_5 
REMARK       I    between atoms: C_3  and  N_7 
REMARK    4  A    between atoms: CB_5  and  OG_6 
REMARK    5  A    between atoms: N_7  and  CA_8 
REMARK    6  A    between atoms: CA_8  and  C_9 
REMARK    7  A    between atoms: CA_8  and  CB_11 
REMARK       I    between atoms: C_9  and  N_14 
REMARK    8  A    between atoms: CB_11  and  OG1_12 
REMARK    9  A    between atoms: CB_11  and  CG2_13 
REMARK   10  A    between atoms: N_14  and  CA_15 
REMARK   11  A    between atoms: CA_15  and  CB_16 
REMARK   12  A    between atoms: CA_15  and  C_18 
REMARK   13  A    between atoms: CB_16  and  OG_17 
REMARK   14  A    between atoms: OG_17  and  P_20 
REMARK       I    between atoms: C_18  and  N_24 
REMARK   15  A    between atoms: CA_25  and  C_26 
REMARK       I    between atoms: C_26  and  N_31 
REMARK   16  A    between atoms: N_31  and  CA_32 
REMARK   17  A    between atoms: CA_32  and  C_33 
REMARK   18  A    between atoms: CA_32  and  CB_35 
REMARK       I    between atoms: C_33  and  N_38 
REMARK   19  A    between atoms: CB_35  and  OG1_36 
REMARK   20  A    between atoms: CB_35  and  CG2_37 
REMARK   21  A    between atoms: N_38  and  CA_39 
REMARK   22  A    between atoms: CA_39  and  C_40 
REMARK   23  A    between atoms: CA_39  and  CB_42 
REMARK       I    between atoms: C_40  and  N_49 
REMARK   24  A    between atoms: CB_42  and  CG_43 
REMARK   25  A    between atoms: N_49  and  CA_50 
REMARK   26  A    between atoms: CA_50  and  C_51 
REMARK   27  A    between atoms: CA_50  and  CB_53 
REMARK   28  A    between atoms: CB_53  and  CG_54 
REMARK       I    between atoms: CG_54  and  ND2_56 
ROOT
ATOM      1  C   SEP d   1      15.430 -18.597 -38.683  0.00  0.00     0.245 C 
ATOM      2  O   SEP d   1      15.467 -19.350 -37.697  0.00  0.00    -0.271 OA
ATOM      3  N   PRO d   1      16.425 -17.751 -38.978  0.00  0.00    -0.337 N 
ATOM      4  CA  PRO d   1      17.659 -17.632 -38.196  0.00  0.00     0.091 C 
ATOM      5  CB  PRO d   1      18.378 -16.449 -38.867  0.00  0.00    -0.036 C 
ATOM      6  CG  PRO d   1      17.894 -16.447 -40.231  0.00  0.00    -0.048 C 
ATOM      7  CD  PRO d   1      16.442 -16.865 -40.149  0.00  0.00    -0.001 C 
ATOM      8  H   PRO d   1      18.230 -18.561 -38.187  0.00  0.00     0.087 H 
ATOM      9  H   PRO d   1      19.462 -16.555 -38.821  0.00  0.00     0.036 H 
ATOM     10  H   PRO d   1      18.168 -15.507 -38.361  0.00  0.00     0.036 H 
ATOM     11  H   PRO d   1      18.469 -17.128 -40.859  0.00  0.00     0.035 H 
ATOM     12  H   PRO d   1      18.000 -15.464 -40.690  0.00  0.00     0.035 H 
ATOM     13  H   PRO d   1      15.761 -16.019 -40.051  0.00  0.00     0.064 H 
ATOM     14  H   PRO d   1      16.089 -17.354 -41.057  0.00  0.00     0.064 H 
ENDROOT
BRANCH   4  15
ATOM     15  C   PRO d   1      17.384 -17.305 -36.723  0.00  0.00     0.241 C 
ATOM     16  O   PRO d   1      16.552 -16.457 -36.413  0.00  0.00    -0.271 OA
ATOM     17  N   THR d   1      18.093 -17.977 -35.825  0.00  0.00    -0.344 N 
ATOM     18  H   THR d   1      18.713 -18.725 -36.135  0.00  0.00     0.163 HD
BRANCH  17  19
ATOM     19  CA  THR d   1      18.003 -17.666 -34.400  0.00  0.00     0.113 C 
ATOM     20  H   THR d   1      17.164 -16.979 -34.289  0.00  0.00     0.091 H 
BRANCH  19  21
ATOM     21  C   THR d   1      19.256 -16.945 -33.885  0.00  0.00     0.243 C 
ATOM     22  O   THR d   1      20.353 -17.119 -34.412  0.00  0.00    -0.271 OA
ATOM     23  N   PHE d   1      19.087 -16.137 -32.847  0.00  0.00    -0.346 N 
ATOM     24  H   PHE d   1      18.163 -16.049 -32.423  0.00  0.00     0.163 HD
BRANCH  23  25
ATOM     25  CA  PHE d   1      20.203 -15.374 -32.304  0.00  0.00     0.093 C 
ATOM     26  H   PHE d   1      21.126 -15.680 -32.798  0.00  0.00     0.088 H 
BRANCH  25  27
ATOM     27  C   PHE d   1      20.387 -15.661 -30.817  0.00  0.00     0.241 C 
ATOM     28  O   PHE d   1      19.554 -15.290 -29.994  0.00  0.00    -0.271 OA
ATOM     29  N   ASN d   1      21.482 -16.335 -30.484  0.00  0.00    -0.344 N 
ATOM     30  H   ASN d   1      22.231 -16.445 -31.168  0.00  0.00     0.163 HD
BRANCH  29  31
ATOM     31  CA  ASN d   1      21.631 -16.919 -29.160  0.00  0.00     0.104 C 
ATOM     32  H   ASN d   1      20.893 -16.431 -28.522  0.00  0.00     0.090 H 
BRANCH  31  33
ATOM     33  C   ASN d   1      22.963 -16.616 -28.447  0.00  0.00     0.197 C 
ATOM     34  O   ASN d   1      24.044 -16.947 -28.929  0.00  0.00    -0.646 OA
ATOM     35  O   ASN d   1      22.943 -16.013 -27.341  0.00  0.00    -0.646 OA
ENDBRANCH  31  33
BRANCH  31  36
ATOM     36  CB  ASN d   1      21.351 -18.434 -29.244  0.00  0.00     0.037 C 
ATOM     37  H   ASN d   1      21.311 -18.822 -28.226  0.00  0.00     0.051 H 
ATOM     38  H   ASN d   1      22.144 -18.887 -29.840  0.00  0.00     0.051 H 
BRANCH  36  39
ATOM     39  CG  ASN d   1      20.003 -18.760 -29.927  0.00  0.00     0.217 C 
ATOM     40  OD1 ASN d   1      19.039 -17.992 -29.836  0.00  0.00    -0.274 OA
ATOM     41  ND2 ASN d   1      19.939 -19.907 -30.606  0.00  0.00    -0.370 N 
ATOM     42  H   ASN d   1      19.073 -20.176 -31.073  0.00  0.00     0.159 HD
ATOM     43  H   ASN d   1      20.756 -20.515 -30.658  0.00  0.00     0.159 HD
ENDBRANCH  36  39
ENDBRANCH  31  36
ENDBRANCH  29  31
ENDBRANCH  25  27
BRANCH  25  44
ATOM     44  CB  PHE d   1      19.984 -13.891 -32.578  0.00  0.00    -0.014 C 
ATOM     45  H   PHE d   1      20.838 -13.348 -32.174  0.00  0.00     0.043 H 
ATOM     46  H   PHE d   1      19.041 -13.602 -32.114  0.00  0.00     0.043 H 
BRANCH  44  47
ATOM     47  CG  PHE d   1      19.891 -13.576 -34.040  0.00  0.00    -0.056 A 
ATOM     48  CD1 PHE d   1      18.668 -13.629 -34.699  0.00  0.00    -0.077 A 
ATOM     49  CE1 PHE d   1      18.584 -13.360 -36.040  0.00  0.00    -0.082 A 
ATOM     50  H   PHE d   1      17.767 -13.887 -34.143  0.00  0.00     0.084 H 
ATOM     51  CZ  PHE d   1      19.732 -13.053 -36.752  0.00  0.00    -0.083 A 
ATOM     52  H   PHE d   1      17.618 -13.387 -36.544  0.00  0.00     0.083 H 
ATOM     53  CE2 PHE d   1      20.955 -13.009 -36.112  0.00  0.00    -0.082 A 
ATOM     54  H   PHE d   1      19.670 -12.846 -37.820  0.00  0.00     0.083 H 
ATOM     55  CD2 PHE d   1      21.031 -13.273 -34.766  0.00  0.00    -0.077 A 
ATOM     56  H   PHE d   1      21.857 -12.765 -36.673  0.00  0.00     0.083 H 
ATOM     57  H   PHE d   1      21.998 -13.244 -34.264  0.00  0.00     0.084 H 
ENDBRANCH  44  47
ENDBRANCH  25  44
ENDBRANCH  23  25
ENDBRANCH  19  21
BRANCH  19  58
ATOM     58  CB  THR d   1      17.690 -18.912 -33.553  0.00  0.00     0.060 C 
ATOM     59  H   THR d   1      17.901 -18.673 -32.511  0.00  0.00     0.086 H 
BRANCH  58  60
ATOM     60  OG1 THR d   1      18.508 -20.006 -33.983  0.00  0.00    -0.393 OA
ATOM     61  H   THR d   1      18.309 -20.781 -33.452  0.00  0.00     0.210 HD
ENDBRANCH  58  60
BRANCH  58  62
ATOM     62  CG2 THR d   1      16.219 -19.308 -33.673  0.00  0.00    -0.050 C 
ATOM     63  H   THR d   1      15.593 -18.486 -33.326  0.00  0.00     0.031 H 
ATOM     64  H   THR d   1      15.987 -19.529 -34.715  0.00  0.00     0.031 H 
ATOM     65  H   THR d   1      16.031 -20.191 -33.063  0.00  0.00     0.031 H 
ENDBRANCH  58  62
ENDBRANCH  19  58
ENDBRANCH  17  19
ENDBRANCH   4  15
BRANCH   1  66
ATOM     66  CA  SEP d   1      14.215 -18.581 -39.620  0.00  0.00     0.110 C 
ATOM     67  H   SEP d   1      14.456 -18.011 -40.517  0.00  0.00     0.090 H 
BRANCH  66  68
ATOM     68  N   SEP d   1      13.879 -19.940 -40.060  0.00  0.00    -0.344 N 
ATOM     69  C   THR d   1      14.811 -20.719 -40.620  0.00  0.00     0.243 C 
ATOM     70  O   THR d   1      15.983 -20.350 -40.763  0.00  0.00    -0.271 OA
ATOM     71  H   SEP d   1      12.930 -20.293 -39.938  0.00  0.00     0.163 HD
BRANCH  69  72
ATOM     72  CA  THR d   1      14.380 -22.124 -41.088  0.00  0.00     0.113 C 
ATOM     73  H   THR d   1      15.173 -22.829 -40.841  0.00  0.00     0.091 H 
BRANCH  72  74
ATOM     74  N   THR d   1      13.194 -22.606 -40.374  0.00  0.00    -0.344 N 
ATOM     75  C   SER d   1      13.277 -23.156 -39.160  0.00  0.00     0.251 C 
ATOM     76  O   SER d   1      14.354 -23.348 -38.584  0.00  0.00    -0.271 OA
ATOM     77  H   THR d   1      12.279 -22.519 -40.817  0.00  0.00     0.163 HD
BRANCH  75  78
ATOM     78  CA  SER d   1      11.940 -23.548 -38.499  0.00  0.00     0.195 C 
ATOM     79  H   SER d   1      11.297 -23.919 -39.297  0.00  0.00     0.102 H 
BRANCH  78  80
ATOM     80  N   SER d   1      12.052 -24.655 -37.538  0.00  0.00    -0.064 N 
ATOM     81  H   SER d   1      12.480 -25.460 -37.996  0.00  0.00     0.275 HD
ATOM     82  H   SER d   1      12.631 -24.363 -36.751  0.00  0.00     0.275 HD
ATOM     83  H   SER d   1      11.123 -24.908 -37.202  0.00  0.00     0.275 HD
ENDBRANCH  78  80
BRANCH  78  84
ATOM     84  CB  SER d   1      11.296 -22.311 -37.839  0.00  0.00     0.051 C 
ATOM     85  H   SER d   1      11.949 -21.982 -37.030  0.00  0.00     0.077 H 
ATOM     86  H   SER d   1      10.305 -22.596 -37.484  0.00  0.00     0.077 H 
BRANCH  84  87
ATOM     87  OG  SER d   1      11.143 -21.227 -38.750  0.00  0.00    -0.398 OA
ATOM     88  H   SER d   1      10.740 -20.483 -38.296  0.00  0.00     0.209 HD
ENDBRANCH  84  87
ENDBRANCH  78  84
ENDBRANCH  75  78
ENDBRANCH  72  74
BRANCH  72  89
ATOM     89  CB  THR d   1      14.191 -22.131 -42.650  0.00  0.00     0.060 C 
ATOM     90  H   THR d   1      13.440 -21.381 -42.897  0.00  0.00     0.086 H 
BRANCH  89  91
ATOM     91  OG1 THR d   1      13.743 -23.421 -43.092  0.00  0.00    -0.393 OA
ATOM     92  H   THR d   1      13.632 -23.411 -44.045  0.00  0.00     0.210 HD
ENDBRANCH  89  91
BRANCH  89  93
ATOM     93  CG2 THR d   1      15.506 -21.770 -43.371  0.00  0.00    -0.050 C 
ATOM     94  H   THR d   1      16.264 -22.518 -43.138  0.00  0.00     0.031 H 
ATOM     95  H   THR d   1      15.334 -21.747 -44.447  0.00  0.00     0.031 H 
ATOM     96  H   THR d   1      15.846 -20.790 -43.035  0.00  0.00     0.031 H 
ENDBRANCH  89  93
ENDBRANCH  72  89
ENDBRANCH  69  72
ENDBRANCH  66  68
BRANCH  66  97
ATOM     97  CB  SEP d   1      13.037 -17.890 -38.924  0.00  0.00     0.059 C 
ATOM     98  H   SEP d   1      13.280 -16.837 -38.778  0.00  0.00     0.079 H 
ATOM     99  H   SEP d   1      12.857 -18.376 -37.965  0.00  0.00     0.079 H 
BRANCH  97 100
ATOM    100  OG  SEP d   1      11.873 -17.987 -39.713  0.00  0.00    -0.280 OA
BRANCH 100 101
ATOM    101  P   SEP d   1      10.543 -17.393 -39.002  0.00  0.00     0.422 P 
ATOM    102  O1P SEP d   1      10.890 -16.242 -37.939  0.00  0.00    -0.617 OA
ATOM    103  O2P SEP d   1       9.682 -18.601 -38.366  0.00  0.00    -0.617 OA
ATOM    104  O3P SEP d   1       9.648 -16.694 -40.164  0.00  0.00    -0.617 OA
ENDBRANCH 100 101
ENDBRANCH  97 100
ENDBRANCH  66  97
ENDBRANCH   1  66
TORSDOF 28
