REMARK  2 active torsions:
REMARK  status: ('A' for Active; 'I' for Inactive)
REMARK    1  A    between atoms: N_9  and  C11_13 
REMARK    2  A    between atoms: C9_11  and  S_10 
ROOT
ATOM      1  C1  2AN d   1     122.806 133.739  64.752  0.00  0.00     0.045 A 
ATOM      2  C2  2AN d   1     123.169 132.548  64.039  0.00  0.00    -0.056 A 
ATOM      3  C3  2AN d   1     122.196 131.726  63.446  0.00  0.00    -0.080 A 
ATOM      4  C4  2AN d   1     120.837 132.057  63.531  0.00  0.00    -0.072 A 
ATOM      5  C5  2AN d   1     120.399 133.220  64.213  0.00  0.00    -0.022 A 
ATOM      6  C6  2AN d   1     119.011 133.529  64.276  0.00  0.00    -0.072 A 
ATOM      7  C7  2AN d   1     118.546 134.670  64.942  0.00  0.00    -0.081 A 
ATOM      8  C8  2AN d   1     119.453 135.537  65.567  0.00  0.00    -0.058 A 
ATOM      9  N   2AN d   1     123.748 134.479  65.289  0.00  0.00    -0.355 N 
ATOM     10  C9  2AN d   1     120.846 135.287  65.542  0.00  0.00     0.094 A 
ATOM     11  C10 2AN d   1     121.381 134.111  64.855  0.00  0.00     0.025 A 
ATOM     12  H1  2AN d   1     124.215 132.277  63.956  0.00  0.00     0.086 H 
ATOM     13  H2  2AN d   1     122.499 130.829  62.919  0.00  0.00     0.083 H 
ATOM     14  H3  2AN d   1     120.104 131.409  63.065  0.00  0.00     0.084 H 
ATOM     15  H4  2AN d   1     118.298 132.867  63.798  0.00  0.00     0.084 H 
ATOM     16  H5  2AN d   1     117.484 134.883  64.974  0.00  0.00     0.083 H 
ATOM     17  H6  2AN d   1     119.080 136.416  66.080  0.00  0.00     0.086 H 
ATOM     18  H7  2AN d   1     123.754 135.474  65.022  0.00  0.00     0.166 HD
ENDROOT
BRANCH   9  19
ATOM     19  C11 2AN d   1     124.691 134.093  66.135  0.00  0.00     0.032 A 
ATOM     20  C12 2AN d   1     124.623 132.874  66.908  0.00  0.00    -0.057 A 
ATOM     21  C13 2AN d   1     125.675 132.527  67.810  0.00  0.00    -0.081 A 
ATOM     22  H8  2AN d   1     123.767 132.218  66.803  0.00  0.00     0.086 H 
ATOM     23  C14 2AN d   1     126.800 133.392  67.949  0.00  0.00    -0.083 A 
ATOM     24  H9  2AN d   1     125.618 131.611  68.386  0.00  0.00     0.083 H 
ATOM     25  C15 2AN d   1     126.872 134.592  67.190  0.00  0.00    -0.081 A 
ATOM     26  H10 2AN d   1     127.600 133.135  68.633  0.00  0.00     0.083 H 
ATOM     27  C16 2AN d   1     125.824 134.940  66.291  0.00  0.00    -0.057 A 
ATOM     28  H11 2AN d   1     127.730 135.246  67.296  0.00  0.00     0.083 H 
ATOM     29  H12 2AN d   1     125.890 135.859  65.720  0.00  0.00     0.086 H 
ENDBRANCH   9  19
BRANCH  10  30
ATOM     30  S   2AN d   1     121.864 136.476  66.395  0.00  0.00     0.138 S 
ATOM     31  O1  2AN d   1     122.793 137.072  65.461  0.00  0.00    -0.591 OA
ATOM     32  O2  2AN d   1     122.548 135.772  67.465  0.00  0.00    -0.591 OA
ATOM     33  O3  2AN d   1     120.901 137.633  67.054  0.00  0.00    -0.591 OA
ENDBRANCH  10  30
TORSDOF 2
