REMARK  2 active torsions:
REMARK  status: ('A' for Active; 'I' for Inactive)
REMARK    1  A    between atoms: N_9  and  C11_13 
REMARK    2  A    between atoms: C9_11  and  S_10 
ROOT
ATOM      1  C1  2AN d   1     104.944  95.390  28.975  0.00  0.00     0.045 A 
ATOM      2  C2  2AN d   1     103.958  95.259  30.018  0.00  0.00    -0.056 A 
ATOM      3  C3  2AN d   1     103.766  96.276  30.968  0.00  0.00    -0.080 A 
ATOM      4  C4  2AN d   1     104.549  97.448  30.922  0.00  0.00    -0.072 A 
ATOM      5  C5  2AN d   1     105.542  97.636  29.921  0.00  0.00    -0.022 A 
ATOM      6  C6  2AN d   1     106.320  98.823  29.900  0.00  0.00    -0.072 A 
ATOM      7  C7  2AN d   1     107.310  99.030  28.911  0.00  0.00    -0.081 A 
ATOM      8  C8  2AN d   1     107.541  98.060  27.918  0.00  0.00    -0.058 A 
ATOM      9  N   2AN d   1     105.130  94.442  28.095  0.00  0.00    -0.355 N 
ATOM     10  C9  2AN d   1     106.792  96.852  27.890  0.00  0.00     0.094 A 
ATOM     11  C10 2AN d   1     105.763  96.600  28.906  0.00  0.00     0.025 A 
ATOM     12  H1  2AN d   1     103.354  94.360  30.070  0.00  0.00     0.086 H 
ATOM     13  H2  2AN d   1     103.013  96.159  31.739  0.00  0.00     0.083 H 
ATOM     14  H3  2AN d   1     104.391  98.222  31.665  0.00  0.00     0.084 H 
ATOM     15  H4  2AN d   1     106.153  99.583  30.654  0.00  0.00     0.084 H 
ATOM     16  H5  2AN d   1     107.895  99.943  28.918  0.00  0.00     0.083 H 
ATOM     17  H6  2AN d   1     108.300  98.236  27.165  0.00  0.00     0.086 H 
ATOM     18  H7  2AN d   1     106.109  94.285  27.815  0.00  0.00     0.166 HD
ENDROOT
BRANCH   9  19
ATOM     19  C11 2AN d   1     104.252  93.665  27.520  0.00  0.00     0.032 A 
ATOM     20  C12 2AN d   1     102.939  94.104  27.140  0.00  0.00    -0.057 A 
ATOM     21  C13 2AN d   1     102.044  93.201  26.503  0.00  0.00    -0.081 A 
ATOM     22  H8  2AN d   1     102.630  95.124  27.339  0.00  0.00     0.086 H 
ATOM     23  C14 2AN d   1     102.444  91.867  26.235  0.00  0.00    -0.083 A 
ATOM     24  H9  2AN d   1     101.052  93.534  26.221  0.00  0.00     0.083 H 
ATOM     25  C15 2AN d   1     103.736  91.428  26.602  0.00  0.00    -0.081 A 
ATOM     26  H10 2AN d   1     101.758  91.183  25.748  0.00  0.00     0.083 H 
ATOM     27  C16 2AN d   1     104.638  92.325  27.242  0.00  0.00    -0.057 A 
ATOM     28  H11 2AN d   1     104.041  90.408  26.396  0.00  0.00     0.083 H 
ATOM     29  H12 2AN d   1     105.628  91.983  27.520  0.00  0.00     0.086 H 
ENDBRANCH   9  19
BRANCH  10  30
ATOM     30  S   2AN d   1     107.163  95.697  26.562  0.00  0.00     0.138 S 
ATOM     31  O1  2AN d   1     105.973  95.528  25.748  0.00  0.00    -0.591 OA
ATOM     32  O2  2AN d   1     107.559  94.399  27.090  0.00  0.00    -0.591 OA
ATOM     33  O3  2AN d   1     108.376  96.287  25.640  0.00  0.00    -0.591 OA
ENDBRANCH  10  30
TORSDOF 2
