REMARK  5 active torsions:
REMARK  status: ('A' for Active; 'I' for Inactive)
REMARK    1  A    between atoms: C5_5  and  C6_6 
REMARK    2  A    between atoms: C7_7  and  O8_8 
REMARK    3  A    between atoms: C11_11  and  O12_12 
REMARK    4  A    between atoms: O12_12  and  C17_17 
REMARK    5  A    between atoms: C15_15  and  N16_16 
ROOT
ATOM      1  C6  JWS d   1     104.709  96.762  29.923  0.00  0.00     0.049 A 
ATOM      2  C7  JWS d   1     104.608  97.851  30.879  0.00  0.00     0.080 A 
ATOM      3  C9  JWS d   1     105.677  98.817  30.955  0.00  0.00    -0.047 A 
ATOM      4  C10 JWS d   1     106.807  98.706  30.107  0.00  0.00    -0.048 A 
ATOM      5  C11 JWS d   1     106.942  97.638  29.144  0.00  0.00     0.069 A 
ATOM      6  C13 JWS d   1     105.857  96.667  29.082  0.00  0.00    -0.034 A 
ATOM      7  H   JWS d   1     105.615  99.638  31.669  0.00  0.00     0.087 H 
ATOM      8  H   JWS d   1     107.600  99.450  30.184  0.00  0.00     0.087 H 
ATOM      9  H   JWS d   1     105.925  95.843  28.371  0.00  0.00     0.089 H 
ENDROOT
BRANCH   1  10
ATOM     10  C5  JWS d   1     103.627  95.751  29.785  0.00  0.00     0.200 A 
ATOM     11  N4  JWS d   1     103.742  94.739  28.854  0.00  0.00    -0.041 NA
ATOM     12  C2  JWS d   1     102.731  93.822  28.710  0.00  0.00     0.738 A 
ATOM     13  N1  JWS d   1     101.602  93.918  29.498  0.00  0.00     0.129 NA
ATOM     14  N3  JWS d   1     102.852  92.846  27.796  0.00  0.00    -0.230 N 
ATOM     15  C15 JWS d   1     101.492  94.930  30.431  0.00  0.00     0.738 A 
ATOM     16  N14 JWS d   1     102.498  95.826  30.564  0.00  0.00    -0.041 NA
ATOM     17  H   JWS d   1     102.104  92.163  27.677  0.00  0.00     0.174 HD
ATOM     18  H   JWS d   1     103.692  92.787  27.221  0.00  0.00     0.174 HD
BRANCH  15  19
ATOM     19  N16 JWS d   1     100.408  95.047  31.209  0.00  0.00    -0.230 N 
ATOM     20  H   JWS d   1     100.349  95.804  31.890  0.00  0.00     0.174 HD
ATOM     21  H   JWS d   1      99.642  94.379  31.120  0.00  0.00     0.174 HD
ENDBRANCH  15  19
ENDBRANCH   1  10
BRANCH   2  22
ATOM     22  O8  JWS d   1     103.503  97.956  31.685  0.00  0.00    -0.360 OA
ATOM     23  H   JWS d   1     102.719  98.052  31.140  0.00  0.00     0.217 HD
ENDBRANCH   2  22
BRANCH   5  24
ATOM     24  O12 JWS d   1     108.013  97.619  28.392  0.00  0.00    -0.356 OA
BRANCH  24  25
ATOM     25  C17 JWS d   1     109.046  98.615  28.486  0.00  0.00     0.010 C 
ATOM     26  H   JWS d   1     108.623  99.597  28.271  0.00  0.00     0.066 H 
ATOM     27  H   JWS d   1     109.463  98.610  29.493  0.00  0.00     0.066 H 
ATOM     28  H   JWS d   1     109.832  98.391  27.765  0.00  0.00     0.066 H 
ENDBRANCH  24  25
ENDBRANCH   5  24
TORSDOF 5
