REMARK  3 active torsions:
REMARK  status: ('A' for Active; 'I' for Inactive)
REMARK    1  A    between atoms: C1'_5  and  C6'_6 
REMARK    2  A    between atoms: C2_14  and  O11_15 
REMARK    3  A    between atoms: O11_15  and  C12_16 
ROOT
ATOM      1  C6' SU9 d   1     -91.736  80.627  84.272  0.00  0.00    -0.038 C 
ATOM      2  C9  SU9 d   1     -92.510  80.702  85.412  0.00  0.00     0.047 A 
ATOM      3  C8  SU9 d   1     -92.352  81.581  86.612  0.00  0.00     0.257 A 
ATOM      4  O10 SU9 d   1     -91.504  82.449  86.848  0.00  0.00    -0.267 OA
ATOM      5  N7  SU9 d   1     -93.350  81.288  87.519  0.00  0.00    -0.322 N 
ATOM      6  C5  SU9 d   1     -94.161  80.277  86.996  0.00  0.00     0.046 A 
ATOM      7  C6  SU9 d   1     -95.297  79.655  87.576  0.00  0.00    -0.054 A 
ATOM      8  C1  SU9 d   1     -95.944  78.640  86.820  0.00  0.00    -0.049 A 
ATOM      9  C2  SU9 d   1     -95.500  78.225  85.513  0.00  0.00     0.069 A 
ATOM     10  C3  SU9 d   1     -94.344  78.880  84.968  0.00  0.00    -0.038 A 
ATOM     11  C4  SU9 d   1     -93.684  79.895  85.704  0.00  0.00     0.009 A 
ATOM     12  H4  SU9 d   1     -92.082  79.913  83.526  0.00  0.00     0.088 H 
ATOM     13  H5  SU9 d   1     -93.473  81.729  88.408  0.00  0.00     0.169 HD
ATOM     14  H6  SU9 d   1     -95.657  79.943  88.557  0.00  0.00     0.087 H 
ATOM     15  H7  SU9 d   1     -96.814  78.154  87.247  0.00  0.00     0.087 H 
ATOM     16  H11 SU9 d   1     -93.975  78.597  83.989  0.00  0.00     0.089 H 
ENDROOT
BRANCH   1  17
ATOM     17  C1' SU9 d   1     -90.530  81.354  83.913  0.00  0.00     0.074 A 
ATOM     18  N5' SU9 d   1     -89.866  82.295  84.631  0.00  0.00    -0.243 NA
ATOM     19  C4' SU9 d   1     -88.819  82.662  83.915  0.00  0.00     0.064 A 
ATOM     20  N3' SU9 d   1     -88.766  81.993  82.740  0.00  0.00    -0.358 N 
ATOM     21  H1  SU9 d   1     -88.091  83.408  84.230  0.00  0.00     0.143 H 
ATOM     22  C2' SU9 d   1     -89.857  81.150  82.720  0.00  0.00     0.006 A 
ATOM     23  H2  SU9 d   1     -88.051  82.094  82.005  0.00  0.00     0.166 HD
ATOM     24  H3  SU9 d   1     -90.134  80.461  81.924  0.00  0.00     0.115 H 
ENDBRANCH   1  17
BRANCH   9  25
ATOM     25  O11 SU9 d   1     -96.220  77.228  84.884  0.00  0.00    -0.356 OA
BRANCH  25  26
ATOM     26  C12 SU9 d   1     -95.589  76.412  83.899  0.00  0.00     0.010 C 
ATOM     27  H8  SU9 d   1     -96.312  75.679  83.512  0.00  0.00     0.066 H 
ATOM     28  H9  SU9 d   1     -94.738  75.883  84.352  0.00  0.00     0.066 H 
ATOM     29  H10 SU9 d   1     -95.230  77.045  83.074  0.00  0.00     0.066 H 
ENDBRANCH  25  26
ENDBRANCH   9  25
TORSDOF 3
