REMARK  3 active torsions:
REMARK  status: ('A' for Active; 'I' for Inactive)
REMARK    1  A    between atoms: C1'_5  and  C6'_6 
REMARK    2  A    between atoms: C2_14  and  O11_15 
REMARK    3  A    between atoms: O11_15  and  C12_16 
ROOT
ATOM      1  C6' SU9 d   1     -77.551 -97.430  28.399  0.00  0.00    -0.038 C 
ATOM      2  C9  SU9 d   1     -78.320 -98.504  28.767  0.00  0.00     0.047 A 
ATOM      3  C8  SU9 d   1     -78.023 -99.564  29.676  0.00  0.00     0.257 A 
ATOM      4  O10 SU9 d   1     -77.004 -99.757  30.347  0.00  0.00    -0.267 OA
ATOM      5  N7  SU9 d   1     -79.088-100.441  29.737  0.00  0.00    -0.322 N 
ATOM      6  C5  SU9 d   1     -80.097 -99.989  28.885  0.00  0.00     0.046 A 
ATOM      7  C6  SU9 d   1     -81.382-100.548  28.595  0.00  0.00    -0.054 A 
ATOM      8  C1  SU9 d   1     -82.217 -99.846  27.664  0.00  0.00    -0.049 A 
ATOM      9  C2  SU9 d   1     -81.814 -98.618  27.020  0.00  0.00     0.069 A 
ATOM     10  C3  SU9 d   1     -80.511 -98.110  27.346  0.00  0.00    -0.038 A 
ATOM     11  C4  SU9 d   1     -79.669 -98.793  28.268  0.00  0.00     0.009 A 
ATOM     12  H4  SU9 d   1     -78.017 -96.750  27.687  0.00  0.00     0.088 H 
ATOM     13  H5  SU9 d   1     -79.130-101.266  30.300  0.00  0.00     0.169 HD
ATOM     14  H6  SU9 d   1     -81.712-101.469  29.062  0.00  0.00     0.087 H 
ATOM     15  H7  SU9 d   1     -83.194-100.255  27.433  0.00  0.00     0.087 H 
ATOM     16  H11 SU9 d   1     -80.164 -97.193  26.883  0.00  0.00     0.089 H 
ENDROOT
BRANCH   1  17
ATOM     17  C1' SU9 d   1     -76.199 -97.059  28.818  0.00  0.00     0.074 A 
ATOM     18  N5' SU9 d   1     -75.362 -97.691  29.682  0.00  0.00    -0.243 NA
ATOM     19  C4' SU9 d   1     -74.254 -96.976  29.732  0.00  0.00     0.064 A 
ATOM     20  N3' SU9 d   1     -74.334 -95.889  28.931  0.00  0.00    -0.358 N 
ATOM     21  H1  SU9 d   1     -73.387 -97.229  30.340  0.00  0.00     0.143 H 
ATOM     22  C2' SU9 d   1     -75.580 -95.928  28.334  0.00  0.00     0.006 A 
ATOM     23  H2  SU9 d   1     -73.608 -95.172  28.793  0.00  0.00     0.166 HD
ATOM     24  H3  SU9 d   1     -75.989 -95.210  27.625  0.00  0.00     0.115 H 
ENDBRANCH   1  17
BRANCH   9  25
ATOM     25  O11 SU9 d   1     -82.710 -98.028  26.148  0.00  0.00    -0.356 OA
BRANCH  25  26
ATOM     26  C12 SU9 d   1     -82.361 -96.820  25.493  0.00  0.00     0.010 C 
ATOM     27  H8  SU9 d   1     -83.190 -96.502  24.844  0.00  0.00     0.066 H 
ATOM     28  H9  SU9 d   1     -81.459 -96.980  24.884  0.00  0.00     0.066 H 
ATOM     29  H10 SU9 d   1     -82.163 -96.040  26.243  0.00  0.00     0.066 H 
ENDBRANCH  25  26
ENDBRANCH   9  25
TORSDOF 3
