REMARK  9 active torsions:
REMARK  status: ('A' for Active; 'I' for Inactive)
REMARK    1  A    between atoms: S1_4  and  N1_2 
REMARK    2  A    between atoms: C25_34  and  S1_4 
REMARK    3  A    between atoms: N2_6  and  C10_19 
REMARK    4  A    between atoms: C22_31  and  O3_10 
REMARK    5  A    between atoms: O3_10  and  C28_37 
REMARK    6  A    between atoms: N4_12  and  C14_23 
REMARK    7  A    between atoms: C8_17  and  C15_24 
REMARK    8  A    between atoms: C10_19  and  C11_20 
REMARK    9  A    between atoms: C15_24  and  C19_28 
ROOT
ATOM      1  C1  3PZ d   1       2.988  19.849  27.519  0.00  0.00     0.038 A 
ATOM      2  N1  3PZ d   1       5.905  21.036  27.207  0.00  0.00    -0.296 N 
ATOM      3  C2  3PZ d   1       3.349  21.182  27.645  0.00  0.00    -0.012 A 
ATOM      4  N2  3PZ d   1       3.741  18.961  26.872  0.00  0.00    -0.373 N 
ATOM      5  C3  3PZ d   1       2.502  22.084  28.283  0.00  0.00    -0.053 A 
ATOM      6  C4  3PZ d   1       1.279  21.662  28.807  0.00  0.00     0.045 A 
ATOM      7  C5  3PZ d   1       0.904  20.324  28.685  0.00  0.00    -0.061 A 
ATOM      8  N5  3PZ d   1      -0.189  23.422  29.980  0.00  0.00    -0.191 NA
ATOM      9  C6  3PZ d   1       1.751  19.410  28.035  0.00  0.00    -0.055 A 
ATOM     10  C7  3PZ d   1       4.638  21.852  27.143  0.00  0.00     0.032 C 
ATOM     11  C8  3PZ d   1       5.985  19.860  26.316  0.00  0.00     0.042 C 
ATOM     12  C9  3PZ d   1       4.617  19.408  25.784  0.00  0.00     0.015 C 
ATOM     13  C29 3PZ d   1       0.444  22.628  29.463  0.00  0.00     0.099 C 
ATOM     14  H1  3PZ d   1       2.795  23.124  28.374  0.00  0.00     0.086 H 
ATOM     15  H2  3PZ d   1      -0.043  19.988  29.092  0.00  0.00     0.085 H 
ATOM     16  H3  3PZ d   1       1.455  18.372  27.931  0.00  0.00     0.087 H 
ATOM     17  H4  3PZ d   1       4.478  22.134  26.092  0.00  0.00     0.072 H 
ATOM     18  H5  3PZ d   1       4.797  22.759  27.745  0.00  0.00     0.072 H 
ATOM     19  H6  3PZ d   1       6.390  19.029  26.911  0.00  0.00     0.076 H 
ATOM     20  H7  3PZ d   1       4.139  20.251  25.263  0.00  0.00     0.067 H 
ATOM     21  H8  3PZ d   1       4.764  18.577  25.078  0.00  0.00     0.067 H 
ENDROOT
BRANCH   4  22
ATOM     22  C10 3PZ d   1       3.688  17.514  27.119  0.00  0.00     0.035 C 
ATOM     23  H9  3PZ d   1       3.373  17.334  28.157  0.00  0.00     0.073 H 
ATOM     24  H10 3PZ d   1       4.686  17.081  26.958  0.00  0.00     0.073 H 
BRANCH  22  25
ATOM     25  C11 3PZ d   1       2.694  16.855  26.169  0.00  0.00     0.047 A 
ATOM     26  N4  3PZ d   1       2.467  15.545  26.042  0.00  0.00    -0.347 N 
ATOM     27  C13 3PZ d   1       1.532  15.344  25.132  0.00  0.00     0.065 A 
ATOM     28  N3  3PZ d   1       1.157  16.537  24.663  0.00  0.00    -0.254 NA
ATOM     29  H12 3PZ d   1       1.137  14.378  24.820  0.00  0.00     0.143 H 
ATOM     30  C12 3PZ d   1       1.880  17.464  25.299  0.00  0.00     0.027 A 
ATOM     31  H11 3PZ d   1       1.817  18.539  25.136  0.00  0.00     0.117 H 
BRANCH  26  32
ATOM     32  C14 3PZ d   1       3.151  14.445  26.811  0.00  0.00    -0.013 C 
ATOM     33  H13 3PZ d   1       3.885  14.883  27.503  0.00  0.00     0.057 H 
ATOM     34  H14 3PZ d   1       3.665  13.772  26.109  0.00  0.00     0.057 H 
ATOM     35  H15 3PZ d   1       2.402  13.877  27.383  0.00  0.00     0.057 H 
ENDBRANCH  26  32
ENDBRANCH  22  25
ENDBRANCH   4  22
BRANCH   2  36
ATOM     36  S1  3PZ d   1       6.507  20.758  28.757  0.00  0.00     0.261 S 
ATOM     37  O1  3PZ d   1       6.616  22.100  29.400  0.00  0.00    -0.200 OA
ATOM     38  O2  3PZ d   1       7.851  20.114  28.677  0.00  0.00    -0.200 OA
BRANCH  36  39
ATOM     39  C25 3PZ d   1       5.484  19.757  29.742  0.00  0.00     0.079 A 
ATOM     40  C24 3PZ d   1       4.509  20.366  30.523  0.00  0.00    -0.058 A 
ATOM     41  C23 3PZ d   1       3.679  19.583  31.310  0.00  0.00    -0.049 A 
ATOM     42  H24 3PZ d   1       4.399  21.444  30.517  0.00  0.00     0.086 H 
ATOM     43  C22 3PZ d   1       3.825  18.199  31.328  0.00  0.00     0.068 A 
ATOM     44  H23 3PZ d   1       2.911  20.052  31.915  0.00  0.00     0.087 H 
ATOM     45  C27 3PZ d   1       4.808  17.592  30.552  0.00  0.00    -0.049 A 
ATOM     46  C26 3PZ d   1       5.646  18.372  29.757  0.00  0.00    -0.058 A 
ATOM     47  H26 3PZ d   1       4.922  16.514  30.566  0.00  0.00     0.087 H 
ATOM     48  H25 3PZ d   1       6.418  17.906  29.155  0.00  0.00     0.086 H 
BRANCH  43  49
ATOM     49  O3  3PZ d   1       3.004  17.444  32.109  0.00  0.00    -0.356 OA
BRANCH  49  50
ATOM     50  C28 3PZ d   1       1.610  17.656  31.792  0.00  0.00     0.010 C 
ATOM     51  H27 3PZ d   1       0.986  17.028  32.445  0.00  0.00     0.066 H 
ATOM     52  H28 3PZ d   1       1.428  17.387  30.741  0.00  0.00     0.066 H 
ATOM     53  H29 3PZ d   1       1.355  18.715  31.949  0.00  0.00     0.066 H 
ENDBRANCH  49  50
ENDBRANCH  43  49
ENDBRANCH  36  39
ENDBRANCH   2  36
BRANCH  11  54
ATOM     54  C15 3PZ d   1       6.970  20.128  25.157  0.00  0.00    -0.020 C 
ATOM     55  H16 3PZ d   1       7.011  19.233  24.519  0.00  0.00     0.043 H 
ATOM     56  H17 3PZ d   1       7.966  20.320  25.583  0.00  0.00     0.043 H 
BRANCH  54  57
ATOM     57  C19 3PZ d   1       6.572  21.330  24.285  0.00  0.00    -0.056 A 
ATOM     58  C18 3PZ d   1       6.753  22.637  24.741  0.00  0.00    -0.077 A 
ATOM     59  C17 3PZ d   1       6.385  23.715  23.937  0.00  0.00    -0.082 A 
ATOM     60  H20 3PZ d   1       7.180  22.814  25.721  0.00  0.00     0.084 H 
ATOM     61  C16 3PZ d   1       5.836  23.492  22.674  0.00  0.00    -0.083 A 
ATOM     62  H19 3PZ d   1       6.526  24.729  24.294  0.00  0.00     0.083 H 
ATOM     63  C21 3PZ d   1       5.663  22.188  22.218  0.00  0.00    -0.082 A 
ATOM     64  H18 3PZ d   1       5.545  24.330  22.051  0.00  0.00     0.083 H 
ATOM     65  C20 3PZ d   1       6.030  21.110  23.023  0.00  0.00    -0.077 A 
ATOM     66  H22 3PZ d   1       5.242  22.010  21.235  0.00  0.00     0.083 H 
ATOM     67  H21 3PZ d   1       5.892  20.096  22.664  0.00  0.00     0.084 H 
ENDBRANCH  54  57
ENDBRANCH  11  54
TORSDOF 9
