REMARK  9 active torsions:
REMARK  status: ('A' for Active; 'I' for Inactive)
REMARK    1  A    between atoms: S1_4  and  N1_2 
REMARK    2  A    between atoms: C25_34  and  S1_4 
REMARK    3  A    between atoms: N2_6  and  C10_19 
REMARK    4  A    between atoms: C22_31  and  O3_10 
REMARK    5  A    between atoms: O3_10  and  C28_37 
REMARK    6  A    between atoms: N4_12  and  C14_23 
REMARK    7  A    between atoms: C8_17  and  C15_24 
REMARK    8  A    between atoms: C10_19  and  C11_20 
REMARK    9  A    between atoms: C15_24  and  C19_28 
ROOT
ATOM      1  C1  3PZ d   1       3.935  18.449  27.612  0.00  0.00     0.038 A 
ATOM      2  N1  3PZ d   1       6.739  19.838  27.083  0.00  0.00    -0.296 N 
ATOM      3  C2  3PZ d   1       4.213  19.811  27.636  0.00  0.00    -0.012 A 
ATOM      4  N2  3PZ d   1       4.688  17.568  26.985  0.00  0.00    -0.373 N 
ATOM      5  C3  3PZ d   1       3.335  20.705  28.253  0.00  0.00    -0.053 A 
ATOM      6  C4  3PZ d   1       2.173  20.230  28.822  0.00  0.00     0.045 A 
ATOM      7  C5  3PZ d   1       1.881  18.871  28.779  0.00  0.00    -0.061 A 
ATOM      8  N5  3PZ d   1       0.527  21.852  29.942  0.00  0.00    -0.191 NA
ATOM      9  C6  3PZ d   1       2.755  17.969  28.173  0.00  0.00    -0.055 A 
ATOM     10  C7  3PZ d   1       5.431  20.544  27.042  0.00  0.00     0.032 C 
ATOM     11  C8  3PZ d   1       6.892  18.659  26.246  0.00  0.00     0.042 C 
ATOM     12  C9  3PZ d   1       5.555  18.005  25.845  0.00  0.00     0.015 C 
ATOM     13  C29 3PZ d   1       1.264  21.143  29.447  0.00  0.00     0.099 C 
ATOM     14  H   3PZ d   1       3.567  21.770  28.284  0.00  0.00     0.086 H 
ATOM     15  H   3PZ d   1       0.956  18.506  29.225  0.00  0.00     0.085 H 
ATOM     16  H   3PZ d   1       2.518  16.906  28.139  0.00  0.00     0.087 H 
ATOM     17  H   3PZ d   1       5.204  20.684  25.985  0.00  0.00     0.072 H 
ATOM     18  H   3PZ d   1       5.561  21.440  27.649  0.00  0.00     0.072 H 
ATOM     19  H   3PZ d   1       7.387  17.878  26.824  0.00  0.00     0.076 H 
ATOM     20  H   3PZ d   1       4.991  18.759  25.296  0.00  0.00     0.067 H 
ATOM     21  H   3PZ d   1       5.804  17.106  25.281  0.00  0.00     0.067 H 
ENDROOT
BRANCH   4  22
ATOM     22  C10 3PZ d   1       4.664  16.119  27.267  0.00  0.00     0.035 C 
ATOM     23  H   3PZ d   1       4.296  15.958  28.280  0.00  0.00     0.073 H 
ATOM     24  H   3PZ d   1       5.673  15.718  27.166  0.00  0.00     0.073 H 
BRANCH  22  25
ATOM     25  C11 3PZ d   1       3.744  15.409  26.284  0.00  0.00     0.047 A 
ATOM     26  N4  3PZ d   1       3.702  14.099  26.093  0.00  0.00    -0.347 N 
ATOM     27  C13 3PZ d   1       2.745  13.838  25.192  0.00  0.00     0.065 A 
ATOM     28  N3  3PZ d   1       2.177  15.009  24.832  0.00  0.00    -0.254 NA
ATOM     29  H   3PZ d   1       2.473  12.852  24.815  0.00  0.00     0.143 H 
ATOM     30  C12 3PZ d   1       2.824  15.961  25.491  0.00  0.00     0.027 A 
ATOM     31  H   3PZ d   1       2.633  17.030  25.399  0.00  0.00     0.117 H 
BRANCH  26  32
ATOM     32  C14 3PZ d   1       4.569  13.093  26.822  0.00  0.00    -0.013 C 
ATOM     33  H   3PZ d   1       5.619  13.307  26.622  0.00  0.00     0.057 H 
ATOM     34  H   3PZ d   1       4.381  13.162  27.893  0.00  0.00     0.057 H 
ATOM     35  H   3PZ d   1       4.329  12.088  26.473  0.00  0.00     0.057 H 
ENDBRANCH  26  32
ENDBRANCH  22  25
ENDBRANCH   4  22
BRANCH   2  36
ATOM     36  S1  3PZ d   1       7.408  19.634  28.590  0.00  0.00     0.261 S 
ATOM     37  O1  3PZ d   1       7.627  21.020  29.096  0.00  0.00    -0.200 OA
ATOM     38  O2  3PZ d   1       8.730  18.952  28.409  0.00  0.00    -0.200 OA
BRANCH  36  39
ATOM     39  C25 3PZ d   1       6.429  18.712  29.691  0.00  0.00     0.079 A 
ATOM     40  C24 3PZ d   1       5.512  19.309  30.563  0.00  0.00    -0.058 A 
ATOM     41  C23 3PZ d   1       4.743  18.505  31.402  0.00  0.00    -0.049 A 
ATOM     42  H   3PZ d   1       5.400  20.393  30.586  0.00  0.00     0.086 H 
ATOM     43  C22 3PZ d   1       4.903  17.112  31.362  0.00  0.00     0.068 A 
ATOM     44  H   3PZ d   1       4.022  18.955  32.084  0.00  0.00     0.087 H 
ATOM     45  C27 3PZ d   1       5.827  16.555  30.503  0.00  0.00    -0.049 A 
ATOM     46  C26 3PZ d   1       6.594  17.343  29.678  0.00  0.00    -0.058 A 
ATOM     47  H   3PZ d   1       5.951  15.472  30.478  0.00  0.00     0.087 H 
ATOM     48  H   3PZ d   1       7.330  16.887  29.016  0.00  0.00     0.086 H 
BRANCH  43  49
ATOM     49  O3  3PZ d   1       4.199  16.233  32.140  0.00  0.00    -0.356 OA
BRANCH  49  50
ATOM     50  C28 3PZ d   1       3.146  16.880  32.906  0.00  0.00     0.010 C 
ATOM     51  H   3PZ d   1       3.585  17.631  33.563  0.00  0.00     0.066 H 
ATOM     52  H   3PZ d   1       2.444  17.359  32.224  0.00  0.00     0.066 H 
ATOM     53  H   3PZ d   1       2.622  16.134  33.504  0.00  0.00     0.066 H 
ENDBRANCH  49  50
ENDBRANCH  43  49
ENDBRANCH  36  39
ENDBRANCH   2  36
BRANCH  11  54
ATOM     54  C15 3PZ d   1       7.786  19.040  25.025  0.00  0.00    -0.020 C 
ATOM     55  H   3PZ d   1       7.803  18.167  24.372  0.00  0.00     0.043 H 
ATOM     56  H   3PZ d   1       8.749  19.348  25.433  0.00  0.00     0.043 H 
BRANCH  54  57
ATOM     57  C19 3PZ d   1       7.287  20.209  24.169  0.00  0.00    -0.056 A 
ATOM     58  C18 3PZ d   1       7.514  21.535  24.560  0.00  0.00    -0.077 A 
ATOM     59  C17 3PZ d   1       7.070  22.600  23.768  0.00  0.00    -0.082 A 
ATOM     60  H   3PZ d   1       8.042  21.739  25.491  0.00  0.00     0.084 H 
ATOM     61  C16 3PZ d   1       6.391  22.354  22.581  0.00  0.00    -0.083 A 
ATOM     62  H   3PZ d   1       7.258  23.626  24.084  0.00  0.00     0.083 H 
ATOM     63  C21 3PZ d   1       6.190  21.047  22.170  0.00  0.00    -0.082 A 
ATOM     64  H   3PZ d   1       6.020  23.183  21.978  0.00  0.00     0.083 H 
ATOM     65  C20 3PZ d   1       6.633  19.982  22.958  0.00  0.00    -0.077 A 
ATOM     66  H   3PZ d   1       5.683  20.848  21.226  0.00  0.00     0.083 H 
ATOM     67  H   3PZ d   1       6.465  18.959  22.622  0.00  0.00     0.084 H 
ENDBRANCH  54  57
ENDBRANCH  11  54
TORSDOF 9
