REMARK  16 active torsions:
REMARK  status: ('A' for Active; 'I' for Inactive)
REMARK    1  A    between atoms: OBI_35  and  CAA_1 
REMARK    2  A    between atoms: NCA_53  and  CAB_2 
REMARK    3  A    between atoms: CAG_7  and  OAC_3 
REMARK    4  A    between atoms: CBO_41  and  CAG_7 
REMARK    5  A    between atoms: NBH_34  and  CBB_28 
REMARK    6  A    between atoms: CBB_28  and  CBM_39 
REMARK    7  A    between atoms: CBC_29  and  CBN_40 
REMARK    8  A    between atoms: CBX_50  and  CBC_29 
REMARK    9  A    between atoms: CBD_30  and  CBU_47 
REMARK   10  A    between atoms: NBY_51  and  CBD_30 
REMARK       I    between atoms: CBL_38  and  NBH_34 
REMARK   11  A    between atoms: CBP_42  and  OBI_35 
REMARK   12  A    between atoms: OBJ_36  and  CBL_38 
REMARK   13  A    between atoms: CBQ_43  and  OBJ_36 
REMARK   14  A    between atoms: CBR_44  and  CBV_48 
REMARK   15  A    between atoms: SCB_54  and  CBS_45 
REMARK   16  A    between atoms: NBZ_52  and  SCB_54 
ROOT
ATOM      1  CAT PZ3 d   1       1.389  20.294  29.141  0.00  0.00    -0.068 A 
ATOM      2  CAX PZ3 d   1       2.035  19.419  28.268  0.00  0.00    -0.056 A 
ATOM      3  CBA PZ3 d   1       2.485  22.167  28.103  0.00  0.00    -0.061 A 
ATOM      4  CBE PZ3 d   1       4.054  22.043  26.242  0.00  0.00     0.020 C 
ATOM      5  CBF PZ3 d   1       3.923  19.407  25.160  0.00  0.00     0.011 C 
ATOM      6  CBR PZ3 d   1       1.603  21.669  29.065  0.00  0.00    -0.002 A 
ATOM      7  CBT PZ3 d   1       3.138  21.298  27.231  0.00  0.00    -0.017 A 
ATOM      8  CBW PZ3 d   1       2.923  19.929  27.313  0.00  0.00     0.038 A 
ATOM      9  CBX PZ3 d   1       5.302  20.059  25.188  0.00  0.00     0.029 C 
ATOM     10  NBY PZ3 d   1       3.489  19.029  26.505  0.00  0.00    -0.373 N 
ATOM     11  NBZ PZ3 d   1       5.345  21.380  25.875  0.00  0.00    -0.196 NA
ATOM     12  H   PZ3 d   1       0.707  19.897  29.893  0.00  0.00     0.085 H 
ATOM     13  H   PZ3 d   1       1.850  18.346  28.329  0.00  0.00     0.087 H 
ATOM     14  H   PZ3 d   1       2.663  23.240  28.034  0.00  0.00     0.086 H 
ATOM     15  H   PZ3 d   1       4.329  22.974  26.737  0.00  0.00     0.064 H 
ATOM     16  H   PZ3 d   1       3.487  22.122  25.314  0.00  0.00     0.064 H 
ATOM     17  H   PZ3 d   1       3.976  18.508  24.546  0.00  0.00     0.066 H 
ATOM     18  H   PZ3 d   1       3.208  20.122  24.752  0.00  0.00     0.066 H 
ATOM     19  H   PZ3 d   1       5.970  19.444  25.791  0.00  0.00     0.068 H 
ENDROOT
BRANCH   9  20
ATOM     20  CBC PZ3 d   1       5.799  20.146  23.697  0.00  0.00    -0.024 C 
ATOM     21  H   PZ3 d   1       6.652  19.471  23.627  0.00  0.00     0.042 H 
ATOM     22  H   PZ3 d   1       4.932  19.911  23.079  0.00  0.00     0.042 H 
BRANCH  20  23
ATOM     23  CBN PZ3 d   1       6.306  21.521  23.209  0.00  0.00    -0.056 A 
ATOM     24  CAM PZ3 d   1       5.408  22.531  22.863  0.00  0.00    -0.074 A 
ATOM     25  CAP PZ3 d   1       5.883  23.766  22.422  0.00  0.00    -0.050 A 
ATOM     26  H   PZ3 d   1       4.335  22.355  22.937  0.00  0.00     0.084 H 
ATOM     27  CBQ PZ3 d   1       7.260  23.987  22.317  0.00  0.00     0.081 A 
ATOM     28  H   PZ3 d   1       5.182  24.558  22.160  0.00  0.00     0.087 H 
ATOM     29  CAQ PZ3 d   1       8.158  22.973  22.659  0.00  0.00    -0.050 A 
ATOM     30  CAN PZ3 d   1       7.679  21.741  23.100  0.00  0.00    -0.074 A 
ATOM     31  H   PZ3 d   1       9.232  23.145  22.581  0.00  0.00     0.087 H 
ATOM     32  H   PZ3 d   1       8.379  20.947  23.360  0.00  0.00     0.084 H 
BRANCH  27  33
ATOM     33  OBJ PZ3 d   1       7.744  25.190  21.882  0.00  0.00    -0.262 OA
BRANCH  33  34
ATOM     34  CBL PZ3 d   1       7.722  25.339  20.524  0.00  0.00     0.366 C 
ATOM     35  OAD PZ3 d   1       7.732  24.348  19.790  0.00  0.00    -0.238 OA
ATOM     36  NBH PZ3 d   1       7.699  26.586  20.063  0.00  0.00    -0.332 N 
ATOM     37  H   PZ3 d   1       7.719  27.352  20.736  0.00  0.00     0.165 HD
BRANCH  36  38
ATOM     38  CBB PZ3 d   1       7.646  26.915  18.634  0.00  0.00     0.021 C 
ATOM     39  H   PZ3 d   1       8.017  26.089  18.027  0.00  0.00     0.071 H 
ATOM     40  H   PZ3 d   1       8.281  27.771  18.404  0.00  0.00     0.071 H 
BRANCH  38  41
ATOM     41  CBM PZ3 d   1       6.181  27.216  18.319  0.00  0.00    -0.040 A 
ATOM     42  CAK PZ3 d   1       5.771  28.514  18.026  0.00  0.00    -0.075 A 
ATOM     43  CAI PZ3 d   1       4.434  28.785  17.746  0.00  0.00    -0.082 A 
ATOM     44  H   PZ3 d   1       6.501  29.323  18.016  0.00  0.00     0.084 H 
ATOM     45  CAH PZ3 d   1       3.497  27.757  17.768  0.00  0.00    -0.083 A 
ATOM     46  H   PZ3 d   1       4.122  29.802  17.510  0.00  0.00     0.083 H 
ATOM     47  CAJ PZ3 d   1       3.904  26.458  18.066  0.00  0.00    -0.082 A 
ATOM     48  H   PZ3 d   1       2.449  27.967  17.553  0.00  0.00     0.083 H 
ATOM     49  CAL PZ3 d   1       5.245  26.185  18.346  0.00  0.00    -0.075 A 
ATOM     50  H   PZ3 d   1       3.172  25.651  18.081  0.00  0.00     0.083 H 
ATOM     51  H   PZ3 d   1       5.558  25.169  18.585  0.00  0.00     0.084 H 
ENDBRANCH  38  41
ENDBRANCH  36  38
ENDBRANCH  33  34
ENDBRANCH  27  33
ENDBRANCH  20  23
ENDBRANCH   9  20
BRANCH  11  52
ATOM     52  SCB PZ3 d   1       6.453  21.411  27.138  0.00  0.00     0.244 S 
ATOM     53  OAE PZ3 d   1       7.782  20.906  26.634  0.00  0.00    -0.206 OA
ATOM     54  OAF PZ3 d   1       6.590  22.851  27.553  0.00  0.00    -0.206 OA
BRANCH  52  55
ATOM     55  CBS PZ3 d   1       5.935  20.409  28.511  0.00  0.00     0.074 A 
ATOM     56  CAU PZ3 d   1       5.136  20.956  29.516  0.00  0.00    -0.058 A 
ATOM     57  CAR PZ3 d   1       4.712  20.177  30.591  0.00  0.00    -0.049 A 
ATOM     58  H   PZ3 d   1       4.840  22.004  29.460  0.00  0.00     0.086 H 
ATOM     59  CBP PZ3 d   1       5.093  18.837  30.679  0.00  0.00     0.068 A 
ATOM     60  H   PZ3 d   1       4.082  20.615  31.365  0.00  0.00     0.087 H 
ATOM     61  CAS PZ3 d   1       5.900  18.285  29.683  0.00  0.00    -0.049 A 
ATOM     62  CAV PZ3 d   1       6.317  19.067  28.602  0.00  0.00    -0.058 A 
ATOM     63  H   PZ3 d   1       6.206  17.241  29.748  0.00  0.00     0.087 H 
ATOM     64  H   PZ3 d   1       6.944  18.628  27.826  0.00  0.00     0.086 H 
BRANCH  59  65
ATOM     65  OBI PZ3 d   1       4.682  18.077  31.737  0.00  0.00    -0.356 OA
BRANCH  65  66
ATOM     66  CAA PZ3 d   1       3.257  17.865  31.716  0.00  0.00     0.010 C 
ATOM     67  H   PZ3 d   1       2.747  18.827  31.764  0.00  0.00     0.066 H 
ATOM     68  H   PZ3 d   1       2.981  17.352  30.795  0.00  0.00     0.066 H 
ATOM     69  H   PZ3 d   1       2.969  17.256  32.573  0.00  0.00     0.066 H 
ENDBRANCH  65  66
ENDBRANCH  59  65
ENDBRANCH  52  55
ENDBRANCH  11  52
BRANCH  10  70
ATOM     70  CBD PZ3 d   1       3.661  17.615  26.886  0.00  0.00     0.035 C 
ATOM     71  H   PZ3 d   1       4.650  17.266  26.588  0.00  0.00     0.073 H 
ATOM     72  H   PZ3 d   1       3.569  17.506  27.967  0.00  0.00     0.073 H 
BRANCH  70  73
ATOM     73  CBU PZ3 d   1       2.575  16.785  26.179  0.00  0.00     0.047 A 
ATOM     74  CAY PZ3 d   1       1.436  17.254  25.669  0.00  0.00     0.027 A 
ATOM     75  NBG PZ3 d   1       0.755  16.239  25.143  0.00  0.00    -0.254 NA
ATOM     76  H   PZ3 d   1       1.116  18.296  25.681  0.00  0.00     0.117 H 
ATOM     77  CAZ PZ3 d   1       1.466  15.126  25.313  0.00  0.00     0.065 A 
ATOM     78  NCA PZ3 d   1       2.577  15.475  25.949  0.00  0.00    -0.347 N 
ATOM     79  H   PZ3 d   1       1.189  14.122  24.992  0.00  0.00     0.143 H 
BRANCH  78  80
ATOM     80  CAB PZ3 d   1       3.656  14.529  26.339  0.00  0.00    -0.013 C 
ATOM     81  H   PZ3 d   1       3.249  13.772  27.009  0.00  0.00     0.057 H 
ATOM     82  H   PZ3 d   1       4.056  14.049  25.446  0.00  0.00     0.057 H 
ATOM     83  H   PZ3 d   1       4.451  15.076  26.847  0.00  0.00     0.057 H 
ENDBRANCH  78  80
ENDBRANCH  70  73
ENDBRANCH  10  70
BRANCH   6  84
ATOM     84  CBV PZ3 d   1       0.954  22.532  29.955  0.00  0.00     0.086 A 
ATOM     85  CAW PZ3 d   1       0.526  22.276  31.195  0.00  0.00    -0.047 A 
ATOM     86  CAO PZ3 d   1      -0.028  23.380  31.699  0.00  0.00    -0.049 A 
ATOM     87  H   PZ3 d   1       0.615  21.320  31.711  0.00  0.00     0.087 H 
ATOM     88  CBO PZ3 d   1       0.059  24.334  30.777  0.00  0.00     0.077 A 
ATOM     89  H   PZ3 d   1      -0.472  23.482  32.689  0.00  0.00     0.087 H 
ATOM     90  OBK PZ3 d   1       0.670  23.838  29.663  0.00  0.00    -0.312 OA
BRANCH  88  91
ATOM     91  CAG PZ3 d   1      -0.463  25.768  30.963  0.00  0.00     0.061 C 
ATOM     92  H   PZ3 d   1      -1.517  25.751  30.648  0.00  0.00     0.084 H 
ATOM     93  H   PZ3 d   1      -0.406  25.974  32.042  0.00  0.00     0.084 H 
BRANCH  91  94
ATOM     94  OAC PZ3 d   1       0.043  26.742  30.404  0.00  0.00    -0.394 OA
ATOM     95  H   PZ3 d   1      -0.428  27.529  30.653  0.00  0.00     0.209 HD
ENDBRANCH  91  94
ENDBRANCH  88  91
ENDBRANCH   6  84
TORSDOF 16
