REMARK  9 active torsions:
REMARK  status: ('A' for Active; 'I' for Inactive)
REMARK    1  A    between atoms: S1_4  and  N1_2 
REMARK    2  A    between atoms: C25_34  and  S1_4 
REMARK    3  A    between atoms: N2_6  and  C10_19 
REMARK    4  A    between atoms: C22_31  and  O3_10 
REMARK    5  A    between atoms: O3_10  and  C28_37 
REMARK    6  A    between atoms: N4_12  and  C14_23 
REMARK    7  A    between atoms: C8_17  and  C15_24 
REMARK    8  A    between atoms: C10_19  and  C11_20 
REMARK    9  A    between atoms: C15_24  and  C19_28 
ROOT
ATOM      1  C1  3PZ d   1      50.905 -51.191   5.106  0.00  0.00     0.038 A 
ATOM      2  N1  3PZ d   1      52.064 -51.644   2.259  0.00  0.00    -0.296 N 
ATOM      3  C2  3PZ d   1      51.522 -52.340   4.619  0.00  0.00    -0.012 A 
ATOM      4  N2  3PZ d   1      51.180 -49.979   4.600  0.00  0.00    -0.373 N 
ATOM      5  C3  3PZ d   1      51.313 -53.559   5.204  0.00  0.00    -0.053 A 
ATOM      6  C4  3PZ d   1      50.479 -53.652   6.295  0.00  0.00     0.045 A 
ATOM      7  C5  3PZ d   1      49.876 -52.497   6.814  0.00  0.00    -0.061 A 
ATOM      8  N5  3PZ d   1      50.222 -56.029   7.273  0.00  0.00    -0.191 NA
ATOM      9  C6  3PZ d   1      50.091 -51.262   6.238  0.00  0.00    -0.055 A 
ATOM     10  C7  3PZ d   1      52.426 -52.476   3.440  0.00  0.00     0.032 C 
ATOM     11  C8  3PZ d   1      52.477 -50.225   2.497  0.00  0.00     0.042 C 
ATOM     12  C9  3PZ d   1      52.492 -49.765   3.960  0.00  0.00     0.015 C 
ATOM     13  C29 3PZ d   1      50.293 -54.962   6.860  0.00  0.00     0.099 C 
ATOM     14  H   3PZ d   1      51.803 -54.449   4.809  0.00  0.00     0.086 H 
ATOM     15  H   3PZ d   1      49.227 -52.576   7.686  0.00  0.00     0.085 H 
ATOM     16  H   3PZ d   1      49.637 -50.364   6.656  0.00  0.00     0.087 H 
ATOM     17  H   3PZ d   1      53.413 -52.144   3.764  0.00  0.00     0.072 H 
ATOM     18  H   3PZ d   1      52.365 -53.516   3.119  0.00  0.00     0.072 H 
ATOM     19  H   3PZ d   1      51.692 -49.598   2.074  0.00  0.00     0.076 H 
ATOM     20  H   3PZ d   1      53.241 -50.345   4.499  0.00  0.00     0.067 H 
ATOM     21  H   3PZ d   1      52.723 -48.700   3.988  0.00  0.00     0.067 H 
ENDROOT
BRANCH   4  22
ATOM     22  C10 3PZ d   1      50.319 -48.834   4.702  0.00  0.00     0.035 C 
ATOM     23  H   3PZ d   1      49.271 -49.132   4.674  0.00  0.00     0.073 H 
ATOM     24  H   3PZ d   1      50.473 -48.156   3.863  0.00  0.00     0.073 H 
BRANCH  22  25
ATOM     25  C11 3PZ d   1      50.654 -48.153   6.018  0.00  0.00     0.047 A 
ATOM     26  N4  3PZ d   1      50.040 -47.067   6.466  0.00  0.00    -0.347 N 
ATOM     27  C13 3PZ d   1      50.539 -46.743   7.639  0.00  0.00     0.065 A 
ATOM     28  N3  3PZ d   1      51.484 -47.649   7.913  0.00  0.00    -0.254 NA
ATOM     29  H   3PZ d   1      50.241 -45.902   8.265  0.00  0.00     0.143 H 
ATOM     30  C12 3PZ d   1      51.557 -48.512   6.916  0.00  0.00     0.027 A 
ATOM     31  H   3PZ d   1      52.235 -49.362   6.846  0.00  0.00     0.117 H 
BRANCH  26  32
ATOM     32  C14 3PZ d   1      48.919 -46.365   5.727  0.00  0.00    -0.013 C 
ATOM     33  H   3PZ d   1      49.279 -46.034   4.753  0.00  0.00     0.057 H 
ATOM     34  H   3PZ d   1      48.086 -47.055   5.593  0.00  0.00     0.057 H 
ATOM     35  H   3PZ d   1      48.588 -45.502   6.306  0.00  0.00     0.057 H 
ENDBRANCH  26  32
ENDBRANCH  22  25
ENDBRANCH   4  22
BRANCH   2  36
ATOM     36  S1  3PZ d   1      50.442 -51.714   1.307  0.00  0.00     0.261 S 
ATOM     37  O1  3PZ d   1      50.342 -52.980   0.459  0.00  0.00    -0.200 OA
ATOM     38  O2  3PZ d   1      50.348 -50.529   0.373  0.00  0.00    -0.200 OA
BRANCH  36  39
ATOM     39  C25 3PZ d   1      49.020 -51.685   2.289  0.00  0.00     0.079 A 
ATOM     40  C24 3PZ d   1      48.514 -52.877   2.805  0.00  0.00    -0.058 A 
ATOM     41  C23 3PZ d   1      47.397 -52.814   3.615  0.00  0.00    -0.049 A 
ATOM     42  H   3PZ d   1      48.987 -53.832   2.576  0.00  0.00     0.086 H 
ATOM     43  C22 3PZ d   1      46.776 -51.600   3.861  0.00  0.00     0.068 A 
ATOM     44  H   3PZ d   1      47.001 -53.725   4.064  0.00  0.00     0.087 H 
ATOM     45  C27 3PZ d   1      47.278 -50.416   3.325  0.00  0.00    -0.049 A 
ATOM     46  C26 3PZ d   1      48.402 -50.462   2.518  0.00  0.00    -0.058 A 
ATOM     47  H   3PZ d   1      46.791 -49.464   3.539  0.00  0.00     0.087 H 
ATOM     48  H   3PZ d   1      48.797 -49.551   2.068  0.00  0.00     0.086 H 
BRANCH  43  49
ATOM     49  O3  3PZ d   1      45.677 -51.549   4.663  0.00  0.00    -0.356 OA
BRANCH  49  50
ATOM     50  C28 3PZ d   1      46.056 -50.910   5.957  0.00  0.00     0.010 C 
ATOM     51  H   3PZ d   1      46.837 -51.499   6.437  0.00  0.00     0.066 H 
ATOM     52  H   3PZ d   1      46.424 -49.901   5.769  0.00  0.00     0.066 H 
ATOM     53  H   3PZ d   1      45.183 -50.864   6.607  0.00  0.00     0.066 H 
ENDBRANCH  49  50
ENDBRANCH  43  49
ENDBRANCH  36  39
ENDBRANCH   2  36
BRANCH  11  54
ATOM     54  C15 3PZ d   1      53.810 -49.964   1.769  0.00  0.00    -0.020 C 
ATOM     55  H   3PZ d   1      53.994 -48.897   1.893  0.00  0.00     0.043 H 
ATOM     56  H   3PZ d   1      53.664 -50.360   0.764  0.00  0.00     0.043 H 
BRANCH  54  57
ATOM     57  C19 3PZ d   1      55.075 -50.644   2.281  0.00  0.00    -0.056 A 
ATOM     58  C18 3PZ d   1      55.441 -51.905   1.834  0.00  0.00    -0.077 A 
ATOM     59  C17 3PZ d   1      56.616 -52.498   2.295  0.00  0.00    -0.082 A 
ATOM     60  H   3PZ d   1      54.809 -52.434   1.121  0.00  0.00     0.084 H 
ATOM     61  C16 3PZ d   1      57.456 -51.827   3.185  0.00  0.00    -0.083 A 
ATOM     62  H   3PZ d   1      56.882 -53.499   1.956  0.00  0.00     0.083 H 
ATOM     63  C21 3PZ d   1      57.109 -50.544   3.610  0.00  0.00    -0.082 A 
ATOM     64  H   3PZ d   1      58.371 -52.299   3.543  0.00  0.00     0.083 H 
ATOM     65  C20 3PZ d   1      55.915 -49.962   3.151  0.00  0.00    -0.077 A 
ATOM     66  H   3PZ d   1      57.759 -49.997   4.293  0.00  0.00     0.083 H 
ATOM     67  H   3PZ d   1      55.644 -48.960   3.483  0.00  0.00     0.084 H 
ENDBRANCH  54  57
ENDBRANCH  11  54
TORSDOF 9
