REMARK  7 active torsions:
REMARK  status: ('A' for Active; 'I' for Inactive)
REMARK    1  A    between atoms: N1_1  and  C2_2 
REMARK       I    between atoms: N1_1  and  C21_21 
REMARK    2  A    between atoms: C2_2  and  C3_3 
REMARK       I    between atoms: C3_3  and  N4_4 
REMARK    3  A    between atoms: N4_4  and  C5_5 
REMARK    4  A    between atoms: C9_9  and  C12_12 
REMARK    5  A    between atoms: C13_13  and  C14_14 
REMARK    6  A    between atoms: C21_21  and  C22_22 
REMARK    7  A    between atoms: C29_29  and  C31_31 
ROOT
ATOM      1  C22 23E d   1      20.878   4.109 -12.994  0.00  0.00     0.034 A 
ATOM      2  C23 23E d   1      20.115   4.632 -11.935  0.00  0.00    -0.067 A 
ATOM      3  C24 23E d   1      20.386   4.305 -10.604  0.00  0.00    -0.069 A 
ATOM      4  C25 23E d   1      21.896   3.173 -12.735  0.00  0.00    -0.041 A 
ATOM      5  N26 23E d   1      23.062   2.022 -10.850  0.00  0.00    -0.336 N 
ATOM      6  C27 23E d   1      22.141   2.839 -11.387  0.00  0.00     0.047 A 
ATOM      7  C28 23E d   1      21.417   3.407 -10.356  0.00  0.00    -0.000 A 
ATOM      8  C29 23E d   1      21.992   2.793  -9.104  0.00  0.00    -0.014 A 
ATOM      9  C30 23E d   1      22.971   1.987  -9.533  0.00  0.00     0.055 A 
ATOM     10  C32 23E d   1      23.839   1.110  -8.674  0.00  0.00     0.018 A 
ATOM     11  C39 23E d   1      24.336   1.604  -7.454  0.00  0.00    -0.069 A 
ATOM     12  C40 23E d   1      25.018   0.751  -6.571  0.00  0.00    -0.082 A 
ATOM     13  C41 23E d   1      25.227  -0.591  -6.939  0.00  0.00    -0.081 A 
ATOM     14  C42 23E d   1      24.757  -1.080  -8.175  0.00  0.00    -0.056 A 
ATOM     15  C43 23E d   1      24.061  -0.236  -9.058  0.00  0.00     0.047 A 
ATOM     16  C44 23E d   1      24.051   1.277 -11.624  0.00  0.00     0.074 C 
ATOM     17  N45 23E d   1      23.570  -0.775 -10.290  0.00  0.00    -0.325 N 
ATOM     18  C46 23E d   1      23.544  -0.135 -11.494  0.00  0.00     0.240 C 
ATOM     19  O47 23E d   1      23.093  -0.685 -12.499  0.00  0.00    -0.271 OA
ATOM     20  H   23E d   1      19.291   5.310 -12.158  0.00  0.00     0.085 H 
ATOM     21  H   23E d   1      19.808   4.739  -9.788  0.00  0.00     0.085 H 
ATOM     22  H   23E d   1      22.472   2.724 -13.544  0.00  0.00     0.088 H 
ATOM     23  H   23E d   1      24.191   2.652  -7.193  0.00  0.00     0.085 H 
ATOM     24  H   23E d   1      25.381   1.124  -5.613  0.00  0.00     0.083 H 
ATOM     25  H   23E d   1      25.758  -1.260  -6.261  0.00  0.00     0.083 H 
ATOM     26  H   23E d   1      24.935  -2.120  -8.448  0.00  0.00     0.086 H 
ATOM     27  H   23E d   1      25.071   1.406 -11.263  0.00  0.00     0.079 H 
ATOM     28  H   23E d   1      24.136   1.614 -12.657  0.00  0.00     0.079 H 
ATOM     29  H   23E d   1      23.205  -1.727 -10.265  0.00  0.00     0.169 HD
ENDROOT
BRANCH   1  30
ATOM     30  C21 23E d   1      20.507   4.423 -14.414  0.00  0.00     0.252 C 
ATOM     31  N1  23E d   1      20.729   3.477 -15.365  0.00  0.00    -0.339 N 
ATOM     32  H   23E d   1      21.172   2.600 -15.091  0.00  0.00     0.164 HD
ATOM     33  O38 23E d   1      19.959   5.495 -14.632  0.00  0.00    -0.268 OA
BRANCH  31  34
ATOM     34  C2  23E d   1      20.356   3.668 -16.768  0.00  0.00     0.114 C 
ATOM     35  C16 23E d   1      18.813   3.525 -16.897  0.00  0.00    -0.033 C 
ATOM     36  C18 23E d   1      18.545   2.976 -18.313  0.00  0.00    -0.062 C 
ATOM     37  H   23E d   1      18.317   4.484 -16.748  0.00  0.00     0.037 H 
ATOM     38  H   23E d   1      18.417   2.854 -16.135  0.00  0.00     0.037 H 
ATOM     39  C19 23E d   1      19.929   2.567 -18.864  0.00  0.00    -0.062 C 
ATOM     40  H   23E d   1      18.067   3.722 -18.947  0.00  0.00     0.033 H 
ATOM     41  H   23E d   1      17.858   2.130 -18.291  0.00  0.00     0.033 H 
ATOM     42  C17 23E d   1      20.824   2.450 -17.606  0.00  0.00    -0.033 C 
ATOM     43  H   23E d   1      19.887   1.634 -19.425  0.00  0.00     0.033 H 
ATOM     44  H   23E d   1      20.317   3.294 -19.577  0.00  0.00     0.033 H 
ATOM     45  H   23E d   1      20.716   1.499 -17.085  0.00  0.00     0.037 H 
ATOM     46  H   23E d   1      21.891   2.463 -17.831  0.00  0.00     0.037 H 
BRANCH  34  47
ATOM     47  C3  23E d   1      20.965   4.938 -17.348  0.00  0.00     0.250 C 
ATOM     48  N4  23E d   1      22.284   5.177 -17.127  0.00  0.00    -0.325 N 
ATOM     49  H   23E d   1      22.816   4.500 -16.580  0.00  0.00     0.169 HD
ATOM     50  O6  23E d   1      20.255   5.694 -18.000  0.00  0.00    -0.270 OA
BRANCH  48  51
ATOM     51  C5  23E d   1      22.954   6.320 -17.619  0.00  0.00     0.034 A 
ATOM     52  C7  23E d   1      22.233   7.441 -18.078  0.00  0.00    -0.056 A 
ATOM     53  C8  23E d   1      22.913   8.557 -18.556  0.00  0.00    -0.071 A 
ATOM     54  H   23E d   1      21.143   7.434 -18.058  0.00  0.00     0.086 H 
ATOM     55  C9  23E d   1      24.322   8.566 -18.577  0.00  0.00    -0.036 A 
ATOM     56  H   23E d   1      22.356   9.423 -18.914  0.00  0.00     0.084 H 
ATOM     57  C10 23E d   1      25.036   7.450 -18.099  0.00  0.00    -0.071 A 
ATOM     58  C11 23E d   1      24.357   6.323 -17.622  0.00  0.00    -0.056 A 
ATOM     59  H   23E d   1      26.126   7.464 -18.101  0.00  0.00     0.084 H 
ATOM     60  H   23E d   1      24.911   5.458 -17.257  0.00  0.00     0.086 H 
BRANCH  55  61
ATOM     61  C12 23E d   1      25.011   9.805 -19.104  0.00  0.00    -0.067 C 
ATOM     62  C13 23E d   1      26.223  10.162 -18.678  0.00  0.00    -0.009 C 
ATOM     63  H   23E d   1      26.704   9.528 -17.933  0.00  0.00     0.094 H 
ATOM     64  H   23E d   1      24.506  10.420 -19.849  0.00  0.00     0.085 H 
BRANCH  62  65
ATOM     65  C14 23E d   1      26.956  11.345 -19.138  0.00  0.00     0.198 C 
ATOM     66  O15 23E d   1      26.273  12.363 -19.709  0.00  0.00    -0.645 OA
ATOM     67  O20 23E d   1      28.179  11.369 -18.980  0.00  0.00    -0.645 OA
ENDBRANCH  62  65
ENDBRANCH  55  61
ENDBRANCH  48  51
ENDBRANCH  34  47
ENDBRANCH  31  34
ENDBRANCH   1  30
BRANCH   8  68
ATOM     68  C31 23E d   1      21.461   3.103  -7.720  0.00  0.00    -0.025 C 
ATOM     69  C33 23E d   1      21.746   4.540  -7.170  0.00  0.00    -0.058 C 
ATOM     70  C34 23E d   1      21.080   4.753  -5.784  0.00  0.00    -0.064 C 
ATOM     71  H   23E d   1      21.335   5.268  -7.869  0.00  0.00     0.034 H 
ATOM     72  H   23E d   1      22.823   4.663  -7.061  0.00  0.00     0.034 H 
ATOM     73  C35 23E d   1      19.564   4.446  -5.871  0.00  0.00    -0.065 C 
ATOM     74  H   23E d   1      21.219   5.789  -5.475  0.00  0.00     0.033 H 
ATOM     75  H   23E d   1      21.540   4.082  -5.058  0.00  0.00     0.033 H 
ATOM     76  C36 23E d   1      19.366   2.953  -6.242  0.00  0.00    -0.064 C 
ATOM     77  H   23E d   1      19.107   5.076  -6.634  0.00  0.00     0.033 H 
ATOM     78  H   23E d   1      19.094   4.649  -4.909  0.00  0.00     0.033 H 
ATOM     79  C37 23E d   1      19.939   2.739  -7.663  0.00  0.00    -0.058 C 
ATOM     80  H   23E d   1      18.307   2.694  -6.218  0.00  0.00     0.033 H 
ATOM     81  H   23E d   1      19.882   2.313  -5.526  0.00  0.00     0.033 H 
ATOM     82  H   23E d   1      19.822   1.689  -7.931  0.00  0.00     0.034 H 
ATOM     83  H   23E d   1      19.400   3.385  -8.356  0.00  0.00     0.034 H 
ATOM     84  H   23E d   1      22.033   2.477  -7.035  0.00  0.00     0.047 H 
ENDBRANCH   8  68
TORSDOF 7
