REMARK  2 active torsions:
REMARK  status: ('A' for Active; 'I' for Inactive)
REMARK    1  A    between atoms: C1'_1  and  C1_4 
REMARK    2  A    between atoms: C4_7  and  N4_10 
ROOT
ATOM      1  C1  PAB d   1     -10.244  14.254 -19.687  0.00  0.00     0.041 A 
ATOM      2  C2  PAB d   1     -10.134  15.468 -20.342  0.00  0.00    -0.064 A 
ATOM      3  C3  PAB d   1      -9.167  16.382 -19.959  0.00  0.00    -0.057 A 
ATOM      4  C4  PAB d   1      -8.307  16.082 -18.917  0.00  0.00     0.025 A 
ATOM      5  C5  PAB d   1      -8.416  14.867 -18.258  0.00  0.00    -0.057 A 
ATOM      6  C6  PAB d   1      -9.386  13.954 -18.641  0.00  0.00    -0.064 A 
ATOM      7  H1  PAB d   1     -10.807  15.704 -21.158  0.00  0.00     0.085 H 
ATOM      8  H2  PAB d   1      -9.084  17.332 -20.475  0.00  0.00     0.086 H 
ATOM      9  H3  PAB d   1      -7.742  14.631 -17.442  0.00  0.00     0.086 H 
ATOM     10  H4  PAB d   1      -9.473  13.006 -18.123  0.00  0.00     0.085 H 
ENDROOT
BRANCH   1  11
ATOM     11  C1' PAB d   1     -11.293  13.287 -20.116  0.00  0.00     0.209 C 
ATOM     12  O1' PAB d   1     -11.420  12.180 -19.539  0.00  0.00    -0.644 OA
ATOM     13  O2' PAB d   1     -12.056  13.584 -21.070  0.00  0.00    -0.644 OA
ENDBRANCH   1  11
BRANCH   4  14
ATOM     14  N4  PAB d   1      -7.312  17.028 -18.525  0.00  0.00    -0.399 N 
ATOM     15  H5  PAB d   1      -7.236  17.929 -19.018  0.00  0.00     0.156 HD
ATOM     16  H6  PAB d   1      -6.671  16.809 -17.749  0.00  0.00     0.156 HD
ENDBRANCH   4  14
TORSDOF 2
