REMARK  13 active torsions:
REMARK  status: ('A' for Active; 'I' for Inactive)
REMARK    1  A    between atoms: C2_3  and  C1_1 
REMARK    2  A    between atoms: C3_5  and  C2_3 
REMARK    3  A    between atoms: C2_3  and  C30_30 
REMARK    4  A    between atoms: C4_6  and  C3_5 
REMARK    5  A    between atoms: C4_6  and  C5_7 
REMARK    6  A    between atoms: C6_8  and  C4_6 
REMARK    7  A    between atoms: C4_6  and  N26_26 
REMARK    8  A    between atoms: S7_9  and  C6_8 
REMARK    9  A    between atoms: N10_12  and  S7_9 
REMARK   10  A    between atoms: O16_18  and  C13_15 
REMARK   11  A    between atoms: C17_19  and  O16_18 
REMARK   12  A    between atoms: C18_20  and  C17_19 
REMARK   13  A    between atoms: N26_26  and  O27_27 
REMARK       I    between atoms: N26_26  and  C28_28 
ROOT
ATOM      1  S7  QGF d   1       9.108 -10.712  10.046  0.00  0.00     0.231 S 
ATOM      2  O8  QGF d   1      10.126  -9.707  10.011  0.00  0.00    -0.206 OA
ATOM      3  O9  QGF d   1       7.906 -10.455  10.729  0.00  0.00    -0.206 OA
ENDROOT
BRANCH   1   4
ATOM      4  C6  QGF d   1       8.723 -11.477   8.446  0.00  0.00     0.071 C 
ATOM      5  H   QGF d   1       8.395 -12.491   8.676  0.00  0.00     0.062 H 
ATOM      6  H   QGF d   1       8.003 -10.812   7.968  0.00  0.00     0.062 H 
BRANCH   4   7
ATOM      7  C4  QGF d   1       9.870 -11.632   7.443  0.00  0.00     0.073 C 
BRANCH   7   8
ATOM      8  C3  QGF d   1       9.159 -12.152   6.183  0.00  0.00    -0.029 C 
ATOM      9  H   QGF d   1       8.829 -13.170   6.390  0.00  0.00     0.037 H 
ATOM     10  H   QGF d   1       8.341 -11.466   5.962  0.00  0.00     0.037 H 
BRANCH   8  11
ATOM     11  C2  QGF d   1      10.058 -12.203   4.954  0.00  0.00     0.004 C 
ATOM     12  H   QGF d   1      10.772 -11.381   5.011  0.00  0.00     0.051 H 
BRANCH  11  13
ATOM     13  C1  QGF d   1       9.153 -12.108   3.722  0.00  0.00    -0.066 C 
ATOM     14  H   QGF d   1       9.767 -12.107   2.821  0.00  0.00     0.028 H 
ATOM     15  H   QGF d   1       8.477 -12.963   3.702  0.00  0.00     0.028 H 
ATOM     16  H   QGF d   1       8.573 -11.186   3.769  0.00  0.00     0.028 H 
ENDBRANCH  11  13
BRANCH  11  17
ATOM     17  C30 QGF d   1      10.856 -13.489   4.872  0.00  0.00     0.129 A 
ATOM     18  N31 QGF d   1      10.235 -14.669   4.791  0.00  0.00    -0.242 NA
ATOM     19  C32 QGF d   1      10.927 -15.792   4.696  0.00  0.00     0.043 A 
ATOM     20  C33 QGF d   1      12.322 -15.718   4.681  0.00  0.00     0.151 A 
ATOM     21  H   QGF d   1      10.420 -16.755   4.631  0.00  0.00     0.119 H 
ATOM     22  F34 QGF d   1      13.070 -16.844   4.602  0.00  0.00    -0.203 F 
ATOM     23  C35 QGF d   1      12.946 -14.476   4.770  0.00  0.00     0.043 A 
ATOM     24  N36 QGF d   1      12.183 -13.398   4.862  0.00  0.00    -0.242 NA
ATOM     25  H   QGF d   1      14.033 -14.394   4.764  0.00  0.00     0.119 H 
ENDBRANCH  11  17
ENDBRANCH   8  11
ENDBRANCH   7   8
BRANCH   7  26
ATOM     26  C5  QGF d   1      10.507 -10.264   7.190  0.00  0.00    -0.050 C 
ATOM     27  H   QGF d   1       9.757  -9.584   6.786  0.00  0.00     0.030 H 
ATOM     28  H   QGF d   1      10.893  -9.865   8.128  0.00  0.00     0.030 H 
ATOM     29  H   QGF d   1      11.324 -10.371   6.476  0.00  0.00     0.030 H 
ENDBRANCH   7  26
BRANCH   7  30
ATOM     30  N26 QGF d   1      10.884 -12.623   7.904  0.00  0.00    -0.225 N 
ATOM     31  C28 QGF d   1      12.208 -12.366   7.940  0.00  0.00     0.194 C 
ATOM     32  O29 QGF d   1      12.939 -13.252   8.348  0.00  0.00    -0.281 OA
ATOM     33  H   QGF d   1      12.608 -11.405   7.617  0.00  0.00     0.183 H 
BRANCH  30  34
ATOM     34  O27 QGF d   1      10.504 -13.909   8.334  0.00  0.00    -0.284 OA
ATOM     35  H   QGF d   1      11.286 -14.403   8.591  0.00  0.00     0.245 HD
ENDBRANCH  30  34
ENDBRANCH   7  30
ENDBRANCH   4   7
ENDBRANCH   1   4
BRANCH   1  36
ATOM     36  N10 QGF d   1       9.761 -11.942  10.940  0.00  0.00    -0.311 N 
ATOM     37  C11 QGF d   1       8.924 -13.104  11.266  0.00  0.00     0.007 C 
ATOM     38  C12 QGF d   1       8.960 -13.311  12.783  0.00  0.00    -0.025 C 
ATOM     39  H   QGF d   1       9.302 -13.992  10.758  0.00  0.00     0.065 H 
ATOM     40  H   QGF d   1       7.899 -12.932  10.936  0.00  0.00     0.065 H 
ATOM     41  C13 QGF d   1      10.393 -13.510  13.250  0.00  0.00     0.042 C 
ATOM     42  H   QGF d   1       8.375 -14.195  13.037  0.00  0.00     0.039 H 
ATOM     43  H   QGF d   1       8.543 -12.432  13.274  0.00  0.00     0.039 H 
ATOM     44  C14 QGF d   1      11.190 -12.223  12.953  0.00  0.00    -0.025 C 
ATOM     45  H   QGF d   1      10.889 -14.329  12.730  0.00  0.00     0.083 H 
ATOM     46  C15 QGF d   1      11.151 -11.890  11.443  0.00  0.00     0.007 C 
ATOM     47  H   QGF d   1      12.227 -12.374  13.253  0.00  0.00     0.039 H 
ATOM     48  H   QGF d   1      10.744 -11.397  13.507  0.00  0.00     0.039 H 
ATOM     49  H   QGF d   1      11.547 -10.886  11.290  0.00  0.00     0.065 H 
ATOM     50  H   QGF d   1      11.752 -12.621  10.902  0.00  0.00     0.065 H 
BRANCH  41  51
ATOM     51  O16 QGF d   1      10.351 -13.817  14.652  0.00  0.00    -0.381 OA
BRANCH  51  52
ATOM     52  C17 QGF d   1      11.592 -13.916  15.359  0.00  0.00     0.045 C 
ATOM     53  H   QGF d   1      12.158 -12.994  15.225  0.00  0.00     0.081 H 
ATOM     54  H   QGF d   1      12.163 -14.759  14.969  0.00  0.00     0.081 H 
BRANCH  52  55
ATOM     55  C18 QGF d   1      11.327 -14.130  16.828  0.00  0.00    -0.013 A 
ATOM     56  C19 QGF d   1      11.120 -15.425  17.289  0.00  0.00    -0.072 A 
ATOM     57  C20 QGF d   1      10.873 -15.629  18.641  0.00  0.00    -0.061 A 
ATOM     58  H   QGF d   1      11.151 -16.269  16.599  0.00  0.00     0.084 H 
ATOM     59  C21 QGF d   1      10.832 -14.552  19.524  0.00  0.00     0.035 A 
ATOM     60  H   QGF d   1      10.710 -16.640  19.014  0.00  0.00     0.086 H 
ATOM     61 CL1  QGF d   1      10.531 -14.800  21.215  0.00  0.00    -0.084 Cl
ATOM     62  C23 QGF d   1      11.040 -13.266  19.066  0.00  0.00    -0.040 A 
ATOM     63  C24 QGF d   1      11.290 -13.056  17.724  0.00  0.00     0.044 A 
ATOM     64  H   QGF d   1      11.007 -12.424  19.758  0.00  0.00     0.088 H 
ATOM     65 CL2  QGF d   1      11.544 -11.416  17.210  0.00  0.00    -0.084 Cl
ENDBRANCH  52  55
ENDBRANCH  51  52
ENDBRANCH  41  51
ENDBRANCH   1  36
TORSDOF 13
