REMARK  15 active torsions:
REMARK  status: ('A' for Active; 'I' for Inactive)
REMARK    1  A    between atoms: C2_6  and  C1_1 
REMARK    2  A    between atoms: S1_5  and  N1_3 
REMARK    3  A    between atoms: C6_18  and  S1_5 
REMARK    4  A    between atoms: C2_6  and  C3_9 
REMARK    5  A    between atoms: C20_32  and  C2_6 
REMARK    6  A    between atoms: C3_9  and  C4_12 
REMARK    7  A    between atoms: C4_12  and  N3_10 
REMARK    8  A    between atoms: N3_10  and  O4_14 
REMARK       I    between atoms: N3_10  and  C19_31 
REMARK    9  A    between atoms: C4_12  and  C5_15 
REMARK   10  A    between atoms: C4_12  and  C6_18 
REMARK   11  A    between atoms: C9_21  and  C10_22 
REMARK   12  A    between atoms: C10_22  and  C11_23 
REMARK   13  A    between atoms: C11_23  and  C12_24 
REMARK   14  A    between atoms: C13_25  and  C14_26 
REMARK   15  A    between atoms: C15_27  and  C16_28 
ROOT
ATOM      1  O1  QHF d   1       9.361 -11.640   8.848  0.00  0.00    -0.206 OA
ATOM      2  S1  QHF d   1       8.495 -12.802   8.845  0.00  0.00     0.231 S 
ATOM      3  O2  QHF d   1       7.168 -12.732   9.421  0.00  0.00    -0.206 OA
ENDROOT
BRANCH   2   4
ATOM      4  N1  QHF d   1       9.311 -14.075   9.602  0.00  0.00    -0.311 N 
ATOM      5  C7  QHF d   1       8.385 -15.080  10.179  0.00  0.00     0.005 C 
ATOM      6  C8  QHF d   1       8.266 -14.934  11.671  0.00  0.00    -0.046 C 
ATOM      7  H   QHF d   1       8.777 -16.073   9.961  0.00  0.00     0.065 H 
ATOM      8  H   QHF d   1       7.399 -14.931   9.739  0.00  0.00     0.065 H 
ATOM      9  C9  QHF d   1       9.643 -14.995  12.310  0.00  0.00    -0.051 C 
ATOM     10  H   QHF d   1       7.652 -15.745  12.063  0.00  0.00     0.035 H 
ATOM     11  H   QHF d   1       7.806 -13.973  11.902  0.00  0.00     0.035 H 
ATOM     12  C17 QHF d   1      10.515 -13.838  11.824  0.00  0.00    -0.046 C 
ATOM     13  H   QHF d   1      10.167 -15.912  12.039  0.00  0.00     0.040 H 
ATOM     14  C18 QHF d   1      10.564 -13.687  10.323  0.00  0.00     0.005 C 
ATOM     15  H   QHF d   1      11.532 -14.039  12.160  0.00  0.00     0.035 H 
ATOM     16  H   QHF d   1      10.084 -12.921  12.225  0.00  0.00     0.035 H 
ATOM     17  H   QHF d   1      10.727 -12.629  10.120  0.00  0.00     0.065 H 
ATOM     18  H   QHF d   1      11.349 -14.354   9.967  0.00  0.00     0.065 H 
BRANCH   9  19
ATOM     19  C10 QHF d   1       9.420 -14.923  13.812  0.00  0.00    -0.058 C 
ATOM     20  H   QHF d   1       9.038 -15.897  14.118  0.00  0.00     0.034 H 
ATOM     21  H   QHF d   1       8.747 -14.084  13.988  0.00  0.00     0.034 H 
BRANCH  19  22
ATOM     22  C11 QHF d   1      10.668 -14.663  14.641  0.00  0.00    -0.036 C 
ATOM     23  H   QHF d   1      11.044 -13.680  14.358  0.00  0.00     0.040 H 
ATOM     24  H   QHF d   1      11.363 -15.479  14.443  0.00  0.00     0.040 H 
BRANCH  22  25
ATOM     25  C12 QHF d   1      10.424 -14.636  16.126  0.00  0.00    -0.000 A 
ATOM     26  C13 QHF d   1      10.354 -13.547  17.058  0.00  0.00     0.067 A 
ATOM     27  N2  QHF d   1      10.154 -13.968  18.305  0.00  0.00    -0.133 NA
ATOM     28  O3  QHF d   1      10.069 -15.355  18.227  0.00  0.00    -0.217 OA
ATOM     29  C15 QHF d   1      10.239 -15.748  16.929  0.00  0.00     0.083 A 
BRANCH  26  30
ATOM     30  C14 QHF d   1      10.462 -12.093  16.911  0.00  0.00    -0.033 C 
ATOM     31  H   QHF d   1       9.541 -11.625  17.258  0.00  0.00     0.035 H 
ATOM     32  H   QHF d   1      11.301 -11.730  17.505  0.00  0.00     0.035 H 
ATOM     33  H   QHF d   1      10.624 -11.846  15.862  0.00  0.00     0.035 H 
ENDBRANCH  26  30
BRANCH  29  34
ATOM     34  C16 QHF d   1      10.198 -17.204  16.676  0.00  0.00    -0.029 C 
ATOM     35  H   QHF d   1       9.391 -17.428  15.978  0.00  0.00     0.036 H 
ATOM     36  H   QHF d   1      11.149 -17.524  16.249  0.00  0.00     0.036 H 
ATOM     37  H   QHF d   1      10.024 -17.730  17.615  0.00  0.00     0.036 H 
ENDBRANCH  29  34
ENDBRANCH  22  25
ENDBRANCH  19  22
ENDBRANCH   9  19
ENDBRANCH   2   4
BRANCH   2  38
ATOM     38  C6  QHF d   1       8.271 -13.404   7.156  0.00  0.00     0.071 C 
ATOM     39  H   QHF d   1       7.740 -12.590   6.662  0.00  0.00     0.062 H 
ATOM     40  H   QHF d   1       7.821 -14.388   7.292  0.00  0.00     0.062 H 
BRANCH  38  41
ATOM     41  C4  QHF d   1       9.465 -13.677   6.223  0.00  0.00     0.073 C 
BRANCH  41  42
ATOM     42  C3  QHF d   1       8.929 -14.228   4.897  0.00  0.00    -0.029 C 
ATOM     43  H   QHF d   1       8.496 -15.196   5.149  0.00  0.00     0.037 H 
ATOM     44  H   QHF d   1       8.278 -13.445   4.509  0.00  0.00     0.037 H 
BRANCH  42  45
ATOM     45  C2  QHF d   1       9.924 -14.521   3.756  0.00  0.00     0.004 C 
ATOM     46  H   QHF d   1      10.649 -13.718   3.888  0.00  0.00     0.051 H 
BRANCH  45  47
ATOM     47  C1  QHF d   1       9.221 -14.525   2.406  0.00  0.00    -0.066 C 
ATOM     48  H   QHF d   1       8.448 -15.294   2.402  0.00  0.00     0.028 H 
ATOM     49  H   QHF d   1       8.766 -13.550   2.232  0.00  0.00     0.028 H 
ATOM     50  H   QHF d   1       9.947 -14.734   1.620  0.00  0.00     0.028 H 
ENDBRANCH  45  47
BRANCH  45  51
ATOM     51  C20 QHF d   1      10.657 -15.828   3.808  0.00  0.00     0.129 A 
ATOM     52  N4  QHF d   1      11.973 -15.691   3.955  0.00  0.00    -0.242 NA
ATOM     53  C21 QHF d   1      12.692 -16.806   3.985  0.00  0.00     0.043 A 
ATOM     54  C22 QHF d   1      12.076 -18.018   3.879  0.00  0.00     0.151 A 
ATOM     55  H   QHF d   1      13.775 -16.753   4.094  0.00  0.00     0.119 H 
ATOM     56  F1  QHF d   1      12.815 -19.119   3.919  0.00  0.00    -0.203 F 
ATOM     57  C23 QHF d   1      10.709 -18.078   3.734  0.00  0.00     0.043 A 
ATOM     58  N5  QHF d   1       9.976 -16.970   3.687  0.00  0.00    -0.242 NA
ATOM     59  H   QHF d   1      10.220 -19.049   3.656  0.00  0.00     0.119 H 
ENDBRANCH  45  51
ENDBRANCH  42  45
ENDBRANCH  41  42
BRANCH  41  60
ATOM     60  N3  QHF d   1      10.406 -14.641   6.783  0.00  0.00    -0.225 N 
ATOM     61  C19 QHF d   1      11.735 -14.498   7.040  0.00  0.00     0.194 C 
ATOM     62  O5  QHF d   1      12.411 -15.394   7.520  0.00  0.00    -0.281 OA
ATOM     63  H   QHF d   1      12.214 -13.547   6.808  0.00  0.00     0.183 H 
BRANCH  60  64
ATOM     64  O4  QHF d   1       9.938 -15.922   7.109  0.00  0.00    -0.284 OA
ATOM     65  H   QHF d   1      10.661 -16.445   7.464  0.00  0.00     0.245 HD
ENDBRANCH  60  64
ENDBRANCH  41  60
BRANCH  41  66
ATOM     66  C5  QHF d   1      10.194 -12.392   5.992  0.00  0.00    -0.050 C 
ATOM     67  H   QHF d   1      11.029 -12.566   5.314  0.00  0.00     0.030 H 
ATOM     68  H   QHF d   1       9.513 -11.664   5.552  0.00  0.00     0.030 H 
ATOM     69  H   QHF d   1      10.569 -12.012   6.942  0.00  0.00     0.030 H 
ENDBRANCH  41  66
ENDBRANCH  38  41
ENDBRANCH   2  38
TORSDOF 15
