REMARK  5 active torsions:
REMARK  status: ('A' for Active; 'I' for Inactive)
REMARK    1  A    between atoms: C8_9  and  S_12 
REMARK    2  A    between atoms: S_12  and  N1'_15 
REMARK    3  A    between atoms: N1'_15  and  C1'_16 
REMARK    4  A    between atoms: C1'_16  and  C2'_17 
REMARK    5  A    between atoms: C2'_17  and  N2'_18 
ROOT
ATOM      1  C1  CKI d   1      -2.499  25.721  34.953  0.00  0.00     0.014 A 
ATOM      2  N2  CKI d   1      -3.755  25.354  34.458  0.00  0.00    -0.272 NA
ATOM      3  C3  CKI d   1      -4.220  26.029  33.334  0.00  0.00     0.003 A 
ATOM      4  C4  CKI d   1      -3.482  27.069  32.671  0.00  0.00    -0.054 A 
ATOM      5  C5  CKI d   1      -1.396  28.481  32.565  0.00  0.00     0.045 A 
ATOM      6 CL5  CKI d   1      -1.938  29.337  31.166  0.00  0.00    -0.083 Cl
ATOM      7  C6  CKI d   1      -0.120  28.830  33.105  0.00  0.00    -0.060 A 
ATOM      8  C7  CKI d   1       0.389  28.161  34.262  0.00  0.00    -0.058 A 
ATOM      9  C8  CKI d   1      -0.367  27.120  34.903  0.00  0.00     0.092 A 
ATOM     10  C9  CKI d   1      -1.678  26.752  34.360  0.00  0.00     0.017 A 
ATOM     11  C10 CKI d   1      -2.192  27.440  33.187  0.00  0.00     0.000 A 
ATOM     12  H   CKI d   1      -2.119  25.202  35.833  0.00  0.00     0.116 H 
ATOM     13  H   CKI d   1      -5.196  25.755  32.935  0.00  0.00     0.114 H 
ATOM     14  H   CKI d   1      -3.893  27.567  31.793  0.00  0.00     0.087 H 
ATOM     15  H   CKI d   1       0.471  29.613  32.631  0.00  0.00     0.086 H 
ATOM     16  H   CKI d   1       1.362  28.444  34.663  0.00  0.00     0.086 H 
ENDROOT
BRANCH   9  17
ATOM     17  S   CKI d   1       0.379  26.351  36.354  0.00  0.00     0.259 S 
ATOM     18  O1S CKI d   1      -0.094  27.096  37.495  0.00  0.00    -0.201 OA
ATOM     19  O2S CKI d   1       1.790  26.491  36.177  0.00  0.00    -0.201 OA
BRANCH  17  20
ATOM     20  N1' CKI d   1      -0.087  24.707  36.562  0.00  0.00    -0.314 N 
ATOM     21  H   CKI d   1      -1.078  24.492  36.672  0.00  0.00     0.172 HD
BRANCH  20  22
ATOM     22  C1' CKI d   1       0.911  23.560  36.590  0.00  0.00     0.025 C 
ATOM     23  H   CKI d   1       0.614  22.963  35.728  0.00  0.00     0.067 H 
ATOM     24  H   CKI d   1       0.851  23.216  37.623  0.00  0.00     0.067 H 
BRANCH  22  25
ATOM     25  C2' CKI d   1       2.441  23.729  36.376  0.00  0.00     0.095 C 
ATOM     26  H   CKI d   1       2.812  22.794  35.956  0.00  0.00     0.077 H 
ATOM     27  H   CKI d   1       2.875  23.987  37.342  0.00  0.00     0.077 H 
BRANCH  25  28
ATOM     28  N2' CKI d   1       2.799  24.791  35.446  0.00  0.00    -0.078 N 
ATOM     29  H   CKI d   1       3.814  24.838  35.360  0.00  0.00     0.274 HD
ATOM     30  H   CKI d   1       2.388  24.595  34.533  0.00  0.00     0.274 HD
ATOM     31  H   CKI d   1       2.445  25.681  35.796  0.00  0.00     0.274 HD
ENDBRANCH  25  28
ENDBRANCH  22  25
ENDBRANCH  20  22
ENDBRANCH  17  20
ENDBRANCH   9  17
TORSDOF 5
