REMARK  7 active torsions:
REMARK  status: ('A' for Active; 'I' for Inactive)
REMARK    1  A    between atoms: C23_23  and  C7_7 
REMARK    2  A    between atoms: C8_8  and  O33_33 
REMARK    3  A    between atoms: C12_12  and  C21_21 
REMARK    4  A    between atoms: N31_31  and  C13_13 
REMARK    5  A    between atoms: C14_14  and  N31_31 
REMARK    6  A    between atoms: C16_16  and  C23_23 
REMARK       I    between atoms: N30_30  and  C16_16 
REMARK    7  A    between atoms: O33_33  and  C22_22 
ROOT
ATOM      1  C1  J2I d   1      -2.751  42.711   6.000  0.00  0.00    -0.064 A 
ATOM      2  C2  J2I d   1      -3.707  42.803   4.951  0.00  0.00    -0.050 A 
ATOM      3  C6  J2I d   1      -1.648  43.470   5.628  0.00  0.00     0.005 A 
ATOM      4  C11 J2I d   1      -3.123  43.551   3.945  0.00  0.00     0.105 A 
ATOM      5  C14 J2I d   1      -3.546  43.919   2.625  0.00  0.00     0.177 C 
ATOM      6  C15 J2I d   1      -1.484  45.060   2.426  0.00  0.00     0.743 C 
ATOM      7  C16 J2I d   1       2.195  46.704  -1.421  0.00  0.00     0.224 C 
ATOM      8  C17 J2I d   1       0.615  46.274   1.927  0.00  0.00     0.027 C 
ATOM      9  C18 J2I d   1      -1.224  46.226   0.259  0.00  0.00     0.027 C 
ATOM     10  C19 J2I d   1       1.650  45.972   0.854  0.00  0.00     0.013 C 
ATOM     11  C20 J2I d   1      -0.218  46.037  -0.870  0.00  0.00     0.013 C 
ATOM     12  N25 J2I d   1      -2.761  44.731   1.977  0.00  0.00    -0.041 NA
ATOM     13  N26 J2I d   1      -1.001  44.664   3.598  0.00  0.00     0.026 NA
ATOM     14  N28 J2I d   1      -1.870  43.960   4.368  0.00  0.00    -0.226 N 
ATOM     15  N29 J2I d   1      -0.702  45.747   1.544  0.00  0.00    -0.210 N 
ATOM     16  N30 J2I d   1       1.213  46.272  -0.527  0.00  0.00    -0.349 N 
ATOM     17  O32 J2I d   1       3.377  46.871  -1.103  0.00  0.00    -0.273 OA
ATOM     18  H1  J2I d   1      -2.863  42.148   6.926  0.00  0.00     0.085 H 
ATOM     19  H2  J2I d   1      -4.705  42.368   4.942  0.00  0.00     0.087 H 
ATOM     20  H6  J2I d   1      -0.760  43.645   6.234  0.00  0.00     0.114 H 
ATOM     21  H7  J2I d   1       0.542  47.363   2.062  0.00  0.00     0.067 H 
ATOM     22  H8  J2I d   1       0.929  45.808   2.873  0.00  0.00     0.067 H 
ATOM     23  H9  J2I d   1      -2.140  45.667   0.017  0.00  0.00     0.067 H 
ATOM     24  H10 J2I d   1      -1.461  47.296   0.348  0.00  0.00     0.067 H 
ATOM     25  H11 J2I d   1       1.899  44.902   0.910  0.00  0.00     0.066 H 
ATOM     26  H12 J2I d   1       2.549  46.570   1.067  0.00  0.00     0.066 H 
ATOM     27  H13 J2I d   1      -0.487  46.733  -1.678  0.00  0.00     0.066 H 
ATOM     28  H14 J2I d   1      -0.310  45.002  -1.231  0.00  0.00     0.066 H 
ENDROOT
BRANCH   5  29
ATOM     29  N31 J2I d   1      -4.811  43.644   2.180  0.00  0.00    -0.324 N 
ATOM     30  H24 J2I d   1      -5.370  43.107   2.858  0.00  0.00     0.169 HD
BRANCH  29  31
ATOM     31  C13 J2I d   1      -5.506  43.934   1.008  0.00  0.00     0.125 A 
ATOM     32  C5  J2I d   1      -5.066  44.773  -0.049  0.00  0.00    -0.014 A 
ATOM     33  C12 J2I d   1      -6.111  44.736  -0.967  0.00  0.00     0.054 A 
ATOM     34  H5  J2I d   1      -4.127  45.320  -0.124  0.00  0.00     0.092 H 
ATOM     35  N27 J2I d   1      -7.035  43.877  -0.449  0.00  0.00    -0.178 NA
ATOM     36  N24 J2I d   1      -6.728  43.446   0.789  0.00  0.00    -0.262 N 
ATOM     37  H23 J2I d   1      -7.304  42.872   1.421  0.00  0.00     0.191 HD
BRANCH  33  38
ATOM     38  C21 J2I d   1      -6.342  45.332  -2.306  0.00  0.00    -0.034 C 
ATOM     39  H15 J2I d   1      -7.333  45.030  -2.675  0.00  0.00     0.035 H 
ATOM     40  H16 J2I d   1      -5.568  44.979  -3.003  0.00  0.00     0.035 H 
ATOM     41  H17 J2I d   1      -6.296  46.429  -2.232  0.00  0.00     0.035 H 
ENDBRANCH  33  38
ENDBRANCH  29  31
ENDBRANCH   5  29
BRANCH   7  42
ATOM     42  C23 J2I d   1       1.802  47.003  -2.842  0.00  0.00     0.039 C 
ATOM     43  H21 J2I d   1       2.717  47.187  -3.425  0.00  0.00     0.054 H 
ATOM     44  H22 J2I d   1       1.278  46.126  -3.250  0.00  0.00     0.054 H 
BRANCH  42  45
ATOM     45  C7  J2I d   1       0.904  48.199  -2.976  0.00  0.00     0.028 A 
ATOM     46  C9  J2I d   1      -0.269  48.029  -3.705  0.00  0.00     0.128 A 
ATOM     47  C3  J2I d   1      -1.158  49.108  -3.878  0.00  0.00    -0.013 A 
ATOM     48  F34 J2I d   1      -0.508  46.808  -4.208  0.00  0.00    -0.205 F 
ATOM     49  C8  J2I d   1      -0.840  50.378  -3.356  0.00  0.00     0.074 A 
ATOM     50  H3  J2I d   1      -2.089  48.961  -4.414  0.00  0.00     0.092 H 
ATOM     51  C4  J2I d   1       0.339  50.536  -2.620  0.00  0.00    -0.013 A 
ATOM     52  C10 J2I d   1       1.207  49.457  -2.424  0.00  0.00     0.128 A 
ATOM     53  H4  J2I d   1       0.582  51.504  -2.197  0.00  0.00     0.092 H 
ATOM     54  F35 J2I d   1       2.333  49.676  -1.740  0.00  0.00    -0.205 F 
BRANCH  49  55
ATOM     55  O33 J2I d   1      -1.703  51.437  -3.442  0.00  0.00    -0.356 OA
BRANCH  55  56
ATOM     56  C22 J2I d   1      -1.552  52.415  -4.459  0.00  0.00     0.010 C 
ATOM     57  H18 J2I d   1      -2.339  53.176  -4.356  0.00  0.00     0.066 H 
ATOM     58  H19 J2I d   1      -1.634  51.934  -5.445  0.00  0.00     0.066 H 
ATOM     59  H20 J2I d   1      -0.566  52.893  -4.365  0.00  0.00     0.066 H 
ENDBRANCH  55  56
ENDBRANCH  49  55
ENDBRANCH  42  45
ENDBRANCH   7  42
TORSDOF 7
