REMARK  4 active torsions:
REMARK  status: ('A' for Active; 'I' for Inactive)
REMARK    1  A    between atoms: C5_4  and  C6_5 
REMARK    2  A    between atoms: C19_7  and  C20_8 
REMARK    3  A    between atoms: C17_9  and  O18_10 
REMARK    4  A    between atoms: C8_14  and  C9_16 
ROOT
ATOM      1  O3  55E d   1      35.695  10.788  32.828  0.00  0.00    -0.245 OA
ATOM      2  C2  55E d   1      36.462   9.838  32.890  0.00  0.00     0.347 A 
ATOM      3  N4  55E d   1      37.241   9.540  34.096  0.00  0.00    -0.194 NA
ATOM      4  C5  55E d   1      38.074   8.524  34.162  0.00  0.00     0.074 A 
ATOM      5  C7  55E d   1      38.261   7.678  33.081  0.00  0.00    -0.028 A 
ATOM      6  C8  55E d   1      37.576   7.875  31.901  0.00  0.00     0.049 A 
ATOM      7  N1  55E d   1      36.626   9.026  31.810  0.00  0.00    -0.306 N 
ATOM      8  H   55E d   1      38.959   6.845  33.165  0.00  0.00     0.090 H 
ATOM      9  H   55E d   1      36.107   9.200  30.949  0.00  0.00     0.171 HD
ENDROOT
BRANCH   4  10
ATOM     10  C6  55E d   1      38.855   8.341  35.445  0.00  0.00    -0.006 A 
ATOM     11  C21 55E d   1      39.746   7.257  35.594  0.00  0.00    -0.062 A 
ATOM     12  C19 55E d   1      40.490   7.098  36.770  0.00  0.00    -0.028 A 
ATOM     13  H   55E d   1      39.856   6.535  34.785  0.00  0.00     0.085 H 
ATOM     14  C17 55E d   1      40.342   8.050  37.826  0.00  0.00     0.071 A 
ATOM     15  C16 55E d   1      39.449   9.141  37.679  0.00  0.00    -0.050 A 
ATOM     16  C15 55E d   1      38.710   9.286  36.494  0.00  0.00    -0.068 A 
ATOM     17  H   55E d   1      39.336   9.866  38.485  0.00  0.00     0.087 H 
ATOM     18  H   55E d   1      38.024  10.125  36.380  0.00  0.00     0.085 H 
BRANCH  12  19
ATOM     19  C20 55E d   1      41.435   5.910  36.878  0.00  0.00    -0.049 C 
ATOM     20  H   55E d   1      42.453   6.270  37.025  0.00  0.00     0.033 H 
ATOM     21  H   55E d   1      41.141   5.290  37.725  0.00  0.00     0.033 H 
ATOM     22  H   55E d   1      41.385   5.323  35.961  0.00  0.00     0.033 H 
ENDBRANCH  12  19
BRANCH  14  23
ATOM     23  O18 55E d   1      41.047   7.945  38.999  0.00  0.00    -0.360 OA
ATOM     24  H   55E d   1      40.812   8.673  39.579  0.00  0.00     0.217 HD
ENDBRANCH  14  23
ENDBRANCH   4  10
BRANCH   6  25
ATOM     25  C9  55E d   1      37.793   7.020  30.676  0.00  0.00    -0.009 A 
ATOM     26  C14 55E d   1      38.796   5.999  30.662  0.00  0.00    -0.071 A 
ATOM     27  C13 55E d   1      39.015   5.230  29.474  0.00  0.00    -0.082 A 
ATOM     28  H   55E d   1      39.392   5.807  31.554  0.00  0.00     0.084 H 
ATOM     29  C12 55E d   1      38.237   5.485  28.303  0.00  0.00    -0.083 A 
ATOM     30  H   55E d   1      39.776   4.449  29.463  0.00  0.00     0.083 H 
ATOM     31  C11 55E d   1      37.239   6.495  28.315  0.00  0.00    -0.082 A 
ATOM     32  H   55E d   1      38.410   4.903  27.398  0.00  0.00     0.083 H 
ATOM     33  C10 55E d   1      37.021   7.263  29.498  0.00  0.00    -0.071 A 
ATOM     34  H   55E d   1      36.641   6.683  27.423  0.00  0.00     0.083 H 
ATOM     35  H   55E d   1      36.259   8.042  29.503  0.00  0.00     0.084 H 
ENDBRANCH   6  25
TORSDOF 4
