REMARK  5 active torsions:
REMARK  status: ('A' for Active; 'I' for Inactive)
REMARK    1  A    between atoms: C2_5  and  C1_1 
REMARK       I    between atoms: NP1_20  and  C2_5 
REMARK       I    between atoms: NP2_22  and  CC1_17 
REMARK    2  A    between atoms: CC1_17  and  CZ1_23 
REMARK    3  A    between atoms: CP1_19  and  NP1_20 
REMARK    4  A    between atoms: CP2_21  and  NP2_22 
REMARK    5  A    between atoms: NZ2_27  and  CZ7_32 
ROOT
ATOM      1  C10 D90 d   1       2.257   8.510  24.277  0.00  0.00    -0.081 A 
ATOM      2  C11 D90 d   1       3.011   7.799  23.363  0.00  0.00    -0.055 A 
ATOM      3  C13 D90 d   1       2.867   9.128  25.367  0.00  0.00    -0.081 A 
ATOM      4  C15 D90 d   1       4.240   9.034  25.546  0.00  0.00    -0.055 A 
ATOM      5  CP1 D90 d   1       5.010   8.334  24.629  0.00  0.00     0.062 A 
ATOM      6  CP2 D90 d   1       4.380   7.706  23.539  0.00  0.00     0.062 A 
ATOM      7  H   D90 d   1       1.178   8.588  24.145  0.00  0.00     0.083 H 
ATOM      8  H   D90 d   1       2.532   7.316  22.512  0.00  0.00     0.087 H 
ATOM      9  H   D90 d   1       2.263   9.687  26.082  0.00  0.00     0.083 H 
ATOM     10  H   D90 d   1       4.712   9.509  26.406  0.00  0.00     0.087 H 
ENDROOT
BRANCH   6  11
ATOM     11  NP2 D90 d   1       5.101   7.008  22.633  0.00  0.00    -0.319 N 
ATOM     12  CC1 D90 d   1       5.197   5.679  22.508  0.00  0.00     0.281 C 
ATOM     13  OC1 D90 d   1       4.644   4.830  23.189  0.00  0.00    -0.265 OA
ATOM     14  H   D90 d   1       5.636   7.561  21.964  0.00  0.00     0.169 HD
BRANCH  12  15
ATOM     15  CZ1 D90 d   1       6.109   5.131  21.433  0.00  0.00     0.166 A 
ATOM     16  NZ1 D90 d   1       6.834   5.820  20.527  0.00  0.00    -0.239 NA
ATOM     17  CZ6 D90 d   1       7.610   4.942  19.660  0.00  0.00     0.052 A 
ATOM     18  CZ2 D90 d   1       7.423   3.655  19.967  0.00  0.00     0.027 A 
ATOM     19  CZ5 D90 d   1       8.491   5.448  18.563  0.00  0.00    -0.009 C 
ATOM     20  SZ1 D90 d   1       6.321   3.416  21.299  0.00  0.00    -0.066 SA
ATOM     21  CZ3 D90 d   1       8.085   2.530  19.246  0.00  0.00     0.022 C 
ATOM     22  NZ2 D90 d   1       8.808   2.964  18.086  0.00  0.00    -0.412 N 
ATOM     23  H   D90 d   1       7.308   1.840  18.917  0.00  0.00     0.071 H 
ATOM     24  H   D90 d   1       8.797   2.067  19.930  0.00  0.00     0.071 H 
ATOM     25  CZ4 D90 d   1       9.233   4.314  17.845  0.00  0.00    -0.005 C 
ATOM     26  H   D90 d   1       9.059   4.484  16.783  0.00  0.00     0.064 H 
ATOM     27  H   D90 d   1      10.258   4.362  18.214  0.00  0.00     0.064 H 
ATOM     28  H   D90 d   1       7.863   5.958  17.832  0.00  0.00     0.044 H 
ATOM     29  H   D90 d   1       9.234   6.113  19.004  0.00  0.00     0.044 H 
BRANCH  22  30
ATOM     30  CZ7 D90 d   1       9.605   1.924  17.455  0.00  0.00    -0.023 C 
ATOM     31  H   D90 d   1      10.339   1.548  18.168  0.00  0.00     0.055 H 
ATOM     32  H   D90 d   1       8.953   1.109  17.139  0.00  0.00     0.055 H 
ATOM     33  H   D90 d   1      10.118   2.338  16.587  0.00  0.00     0.055 H 
ENDBRANCH  22  30
ENDBRANCH  12  15
ENDBRANCH   6  11
BRANCH   5  34
ATOM     34  NP1 D90 d   1       6.352   8.236  24.819  0.00  0.00    -0.320 N 
ATOM     35  C2  D90 d   1       7.293   9.164  24.511  0.00  0.00     0.272 C 
ATOM     36  O1  D90 d   1       7.140  10.138  23.802  0.00  0.00    -0.266 OA
ATOM     37  H   D90 d   1       6.689   7.370  25.239  0.00  0.00     0.169 HD
BRANCH  35  38
ATOM     38  C1  D90 d   1       8.557   8.915  25.036  0.00  0.00     0.102 A 
ATOM     39  N1  D90 d   1       8.698   8.265  26.213  0.00  0.00    -0.351 N 
ATOM     40  C5  D90 d   1      10.035   8.131  26.475  0.00  0.00     0.043 A 
ATOM     41  H   D90 d   1       7.938   7.931  26.805  0.00  0.00     0.166 HD
ATOM     42  C4  D90 d   1      10.733   8.747  25.379  0.00  0.00    -0.005 A 
ATOM     43  C7  D90 d   1      10.666   7.551  27.580  0.00  0.00    -0.055 A 
ATOM     44  C3  D90 d   1       9.807   9.246  24.441  0.00  0.00    -0.040 A 
ATOM     45  C6  D90 d   1      12.137   8.729  25.425  0.00  0.00    -0.050 A 
ATOM     46  H   D90 d   1      10.000   9.757  23.497  0.00  0.00     0.088 H 
ATOM     47  C9  D90 d   1      12.745   8.133  26.513  0.00  0.00     0.035 A 
ATOM     48  H   D90 d   1      12.730   9.173  24.625  0.00  0.00     0.087 H 
ATOM     49 CL1  D90 d   1      14.453   8.071  26.583  0.00  0.00    -0.084 Cl
ATOM     50  C8  D90 d   1      12.060   7.539  27.619  0.00  0.00    -0.060 A 
ATOM     51  H   D90 d   1      12.603   7.097  28.454  0.00  0.00     0.086 H 
ATOM     52  H   D90 d   1      10.082   7.118  28.392  0.00  0.00     0.087 H 
ENDBRANCH  35  38
ENDBRANCH   5  34
TORSDOF 5
