REMARK  13 active torsions:
REMARK  status: ('A' for Active; 'I' for Inactive)
REMARK    1  A    between atoms: C19_19  and  C1_1 
REMARK       I    between atoms: C7_7  and  N9_9 
REMARK    2  A    between atoms: C33_33  and  C7_7 
REMARK    3  A    between atoms: C12_12  and  C15_15 
REMARK    4  A    between atoms: C15_15  and  O16_16 
REMARK    5  A    between atoms: C15_15  and  C17_17 
REMARK    6  A    between atoms: C15_15  and  C23_23 
REMARK    7  A    between atoms: C23_23  and  C24_24 
REMARK    8  A    between atoms: C24_24  and  C25_25 
REMARK    9  A    between atoms: C25_25  and  C26_26 
REMARK   10  A    between atoms: C26_26  and  O27_27 
REMARK   11  A    between atoms: O27_27  and  C28_28 
REMARK   12  A    between atoms: C30_30  and  O34_34 
REMARK   13  A    between atoms: C31_31  and  N35_35 
ROOT
ATOM      1  C15 RX0 d   1      28.972  -8.264 -14.007  0.00  0.00     0.091 C 
ENDROOT
BRANCH   1   2
ATOM      2  C12 RX0 d   1      28.395  -9.527 -13.330  0.00  0.00    -0.004 C 
ATOM      3  C11 RX0 d   1      28.450 -10.757 -14.229  0.00  0.00    -0.056 C 
ATOM      4  C10 RX0 d   1      28.140 -12.015 -13.403  0.00  0.00    -0.050 C 
ATOM      5  H   RX0 d   1      27.712 -10.656 -15.025  0.00  0.00     0.033 H 
ATOM      6  H   RX0 d   1      29.447 -10.845 -14.661  0.00  0.00     0.033 H 
ATOM      7  C14 RX0 d   1      26.664 -11.972 -13.043  0.00  0.00    -0.002 C 
ATOM      8  H   RX0 d   1      28.752 -12.040 -12.501  0.00  0.00     0.035 H 
ATOM      9  H   RX0 d   1      28.367 -12.914 -13.977  0.00  0.00     0.035 H 
ATOM     10  N9  RX0 d   1      26.282 -10.650 -12.456  0.00  0.00    -0.351 N 
ATOM     11  H   RX0 d   1      26.082 -12.128 -13.951  0.00  0.00     0.064 H 
ATOM     12  H   RX0 d   1      26.466 -12.748 -12.304  0.00  0.00     0.064 H 
ATOM     13  C7  RX0 d   1      26.116 -10.672 -11.073  0.00  0.00     0.224 C 
ATOM     14  C13 RX0 d   1      26.936  -9.399 -12.962  0.00  0.00     0.004 C 
ATOM     15  O8  RX0 d   1      25.816 -11.732 -10.563  0.00  0.00    -0.273 OA
ATOM     16  H   RX0 d   1      26.884  -8.673 -12.150  0.00  0.00     0.065 H 
ATOM     17  H   RX0 d   1      26.410  -9.123 -13.876  0.00  0.00     0.065 H 
ATOM     18  H   RX0 d   1      29.023  -9.635 -12.445  0.00  0.00     0.047 H 
BRANCH  13  19
ATOM     19  C33 RX0 d   1      26.151  -9.387 -10.232  0.00  0.00     0.028 C 
ATOM     20  C29 RX0 d   1      27.456  -8.992  -9.552  0.00  0.00    -0.028 C 
ATOM     21  C30 RX0 d   1      27.004  -8.133  -8.378  0.00  0.00     0.063 C 
ATOM     22  H   RX0 d   1      28.039  -9.857  -9.235  0.00  0.00     0.038 H 
ATOM     23  H   RX0 d   1      28.130  -8.459 -10.223  0.00  0.00     0.038 H 
ATOM     24  C31 RX0 d   1      25.482  -8.144  -8.351  0.00  0.00     0.125 C 
ATOM     25  H   RX0 d   1      27.392  -7.121  -8.496  0.00  0.00     0.086 H 
ATOM     26  C32 RX0 d   1      25.156  -9.417  -9.075  0.00  0.00    -0.025 C 
ATOM     27  H   RX0 d   1      25.063  -7.242  -8.797  0.00  0.00     0.087 H 
ATOM     28  H   RX0 d   1      24.117  -9.475  -9.400  0.00  0.00     0.037 H 
ATOM     29  H   RX0 d   1      25.247 -10.305  -8.450  0.00  0.00     0.037 H 
ATOM     30  H   RX0 d   1      25.932  -8.669 -11.022  0.00  0.00     0.054 H 
BRANCH  21  31
ATOM     31  O34 RX0 d   1      27.499  -8.673  -7.127  0.00  0.00    -0.393 OA
ATOM     32  H   RX0 d   1      27.183  -8.133  -6.399  0.00  0.00     0.210 HD
ENDBRANCH  21  31
BRANCH  24  33
ATOM     33  N35 RX0 d   1      24.907  -8.162  -6.979  0.00  0.00    -0.073 N 
ATOM     34  H   RX0 d   1      23.889  -8.169  -7.038  0.00  0.00     0.274 HD
ATOM     35  H   RX0 d   1      25.226  -8.998  -6.489  0.00  0.00     0.274 HD
ATOM     36  H   RX0 d   1      25.214  -7.332  -6.472  0.00  0.00     0.274 HD
ENDBRANCH  24  33
ENDBRANCH  13  19
ENDBRANCH   1   2
BRANCH   1  37
ATOM     37  O16 RX0 d   1      28.298  -8.137 -15.260  0.00  0.00    -0.384 OA
ATOM     38  H   RX0 d   1      27.355  -8.046 -15.107  0.00  0.00     0.211 HD
ENDBRANCH   1  37
BRANCH   1  39
ATOM     39  C17 RX0 d   1      30.471  -8.424 -14.240  0.00  0.00    -0.013 A 
ATOM     40  C18 RX0 d   1      30.923  -8.312 -15.563  0.00  0.00    -0.073 A 
ATOM     41  C20 RX0 d   1      32.252  -8.454 -15.937  0.00  0.00    -0.082 A 
ATOM     42  H   RX0 d   1      30.189  -8.102 -16.341  0.00  0.00     0.084 H 
ATOM     43  C22 RX0 d   1      33.179  -8.735 -14.950  0.00  0.00    -0.082 A 
ATOM     44  H   RX0 d   1      32.556  -8.347 -16.978  0.00  0.00     0.083 H 
ATOM     45  C21 RX0 d   1      32.760  -8.860 -13.623  0.00  0.00    -0.072 A 
ATOM     46  H   RX0 d   1      34.231  -8.858 -15.206  0.00  0.00     0.083 H 
ATOM     47  C19 RX0 d   1      31.421  -8.716 -13.247  0.00  0.00    -0.017 A 
ATOM     48  H   RX0 d   1      33.502  -9.077 -12.855  0.00  0.00     0.084 H 
BRANCH  47  49
ATOM     49  C1  RX0 d   1      31.175  -8.895 -11.787  0.00  0.00    -0.025 A 
ATOM     50  C2  RX0 d   1      30.899  -7.808 -10.953  0.00  0.00    -0.072 A 
ATOM     51  C4  RX0 d   1      30.711  -7.948  -9.579  0.00  0.00    -0.082 A 
ATOM     52  H   RX0 d   1      30.828  -6.814 -11.393  0.00  0.00     0.084 H 
ATOM     53  C6  RX0 d   1      30.815  -9.215  -9.029  0.00  0.00    -0.083 A 
ATOM     54  H   RX0 d   1      30.488  -7.083  -8.954  0.00  0.00     0.083 H 
ATOM     55  C5  RX0 d   1      31.104 -10.319  -9.850  0.00  0.00    -0.082 A 
ATOM     56  H   RX0 d   1      30.672  -9.356  -7.958  0.00  0.00     0.083 H 
ATOM     57  C3  RX0 d   1      31.294 -10.155 -11.231  0.00  0.00    -0.072 A 
ATOM     58  H   RX0 d   1      31.181 -11.313  -9.409  0.00  0.00     0.083 H 
ATOM     59  H   RX0 d   1      31.533 -11.013 -11.859  0.00  0.00     0.084 H 
ENDBRANCH  47  49
ENDBRANCH   1  39
BRANCH   1  60
ATOM     60  C23 RX0 d   1      28.682  -6.928 -13.314  0.00  0.00    -0.032 C 
ATOM     61  H   RX0 d   1      29.000  -6.998 -12.274  0.00  0.00     0.037 H 
ATOM     62  H   RX0 d   1      27.614  -6.723 -13.384  0.00  0.00     0.037 H 
BRANCH  60  63
ATOM     63  C24 RX0 d   1      29.447  -5.780 -13.985  0.00  0.00    -0.060 C 
ATOM     64  H   RX0 d   1      29.170  -5.748 -15.039  0.00  0.00     0.033 H 
ATOM     65  H   RX0 d   1      30.515  -5.957 -13.861  0.00  0.00     0.033 H 
BRANCH  63  66
ATOM     66  C25 RX0 d   1      29.103  -4.446 -13.355  0.00  0.00    -0.045 C 
ATOM     67  H   RX0 d   1      29.720  -3.666 -13.800  0.00  0.00     0.036 H 
ATOM     68  H   RX0 d   1      29.290  -4.494 -12.282  0.00  0.00     0.036 H 
BRANCH  66  69
ATOM     69  C26 RX0 d   1      27.630  -4.127 -13.599  0.00  0.00     0.019 C 
ATOM     70  H   RX0 d   1      27.018  -4.721 -12.920  0.00  0.00     0.074 H 
ATOM     71  H   RX0 d   1      27.380  -4.363 -14.633  0.00  0.00     0.074 H 
BRANCH  69  72
ATOM     72  O27 RX0 d   1      27.382  -2.741 -13.362  0.00  0.00    -0.396 OA
BRANCH  72  73
ATOM     73  C28 RX0 d   1      26.003  -2.389 -13.520  0.00  0.00     0.004 C 
ATOM     74  H   RX0 d   1      25.686  -2.615 -14.538  0.00  0.00     0.066 H 
ATOM     75  H   RX0 d   1      25.400  -2.961 -12.815  0.00  0.00     0.066 H 
ATOM     76  H   RX0 d   1      25.877  -1.324 -13.327  0.00  0.00     0.066 H 
ENDBRANCH  72  73
ENDBRANCH  69  72
ENDBRANCH  66  69
ENDBRANCH  63  66
ENDBRANCH  60  63
ENDBRANCH   1  60
TORSDOF 13
