REMARK  14 active torsions:
REMARK  status: ('A' for Active; 'I' for Inactive)
REMARK    1  A    between atoms: O1_3  and  C1_1 
REMARK    2  A    between atoms: C7_14  and  N1_2 
REMARK    3  A    between atoms: C2_4  and  O1_3 
REMARK       I    between atoms: N2_5  and  C9_16 
REMARK    4  A    between atoms: C10_17  and  N2_5 
REMARK    5  A    between atoms: C8_15  and  O2_6 
REMARK    6  A    between atoms: C6_13  and  C5_11 
REMARK    7  A    between atoms: C7_14  and  C6_13 
REMARK    8  A    between atoms: C8_15  and  C7_14 
REMARK    9  A    between atoms: C9_16  and  C8_15 
REMARK   10  A    between atoms: C10_17  and  C11_18 
REMARK   11  A    between atoms: C10_17  and  C15_22 
REMARK   12  A    between atoms: C11_18  and  C12_19 
REMARK   13  A    between atoms: C12_19  and  C13_20 
REMARK   14  A    between atoms: C12_19  and  C14_21 
ROOT
ATOM      1  C8  D66 d   1      14.017  12.147  11.323  0.00  0.00     0.139 C 
ATOM      2  H   D66 d   1      14.633  13.039  11.432  0.00  0.00     0.101 H 
ENDROOT
BRANCH   1   3
ATOM      3  O2  D66 d   1      13.337  12.311  10.081  0.00  0.00    -0.384 OA
ATOM      4  H   D66 d   1      13.980  12.377   9.372  0.00  0.00     0.210 HD
ENDBRANCH   1   3
BRANCH   1   5
ATOM      5  C7  D66 d   1      13.050  12.036  12.485  0.00  0.00     0.136 C 
ATOM      6  H   D66 d   1      12.801  10.990  12.665  0.00  0.00     0.089 H 
BRANCH   5   7
ATOM      7  N1  D66 d   1      11.790  12.736  12.220  0.00  0.00    -0.072 N 
ATOM      8  H   D66 d   1      11.321  12.300  11.426  0.00  0.00     0.274 HD
ATOM      9  H   D66 d   1      11.191  12.679  13.044  0.00  0.00     0.274 HD
ATOM     10  H   D66 d   1      11.984  13.714  12.006  0.00  0.00     0.274 HD
ENDBRANCH   5   7
BRANCH   5  11
ATOM     11  C6  D66 d   1      13.744  12.692  13.670  0.00  0.00    -0.012 C 
ATOM     12  H   D66 d   1      14.812  12.530  13.525  0.00  0.00     0.043 H 
ATOM     13  H   D66 d   1      13.412  13.730  13.681  0.00  0.00     0.043 H 
BRANCH  11  14
ATOM     14  C5  D66 d   1      13.411  12.125  15.040  0.00  0.00    -0.056 A 
ATOM     15  C4  D66 d   1      13.052  13.007  16.049  0.00  0.00    -0.074 A 
ATOM     16  C3  D66 d   1      12.754  12.520  17.341  0.00  0.00    -0.050 A 
ATOM     17  H   D66 d   1      13.000  14.076  15.845  0.00  0.00     0.084 H 
ATOM     18  C2  D66 d   1      12.798  11.171  17.637  0.00  0.00     0.068 A 
ATOM     19  H   D66 d   1      12.482  13.227  18.125  0.00  0.00     0.087 H 
ATOM     20  C17 D66 d   1      13.164  10.296  16.628  0.00  0.00    -0.050 A 
ATOM     21  C16 D66 d   1      13.476  10.760  15.329  0.00  0.00    -0.074 A 
ATOM     22  H   D66 d   1      13.213   9.228  16.839  0.00  0.00     0.087 H 
ATOM     23  H   D66 d   1      13.767  10.052  14.553  0.00  0.00     0.084 H 
BRANCH  18  24
ATOM     24  O1  D66 d   1      12.499  10.728  18.929  0.00  0.00    -0.356 OA
BRANCH  24  25
ATOM     25  C1  D66 d   1      12.787   9.388  19.353  0.00  0.00     0.010 C 
ATOM     26  H   D66 d   1      12.247   8.684  18.720  0.00  0.00     0.066 H 
ATOM     27  H   D66 d   1      13.858   9.205  19.271  0.00  0.00     0.066 H 
ATOM     28  H   D66 d   1      12.473   9.261  20.389  0.00  0.00     0.066 H 
ENDBRANCH  24  25
ENDBRANCH  18  24
ENDBRANCH  11  14
ENDBRANCH   5  11
ENDBRANCH   1   5
BRANCH   1  29
ATOM     29  C9  D66 d   1      14.911  10.899  11.339  0.00  0.00     0.249 C 
ATOM     30  N2  D66 d   1      16.023  10.936  10.663  0.00  0.00    -0.344 N 
ATOM     31  H   D66 d   1      16.283  11.749  10.105  0.00  0.00     0.163 HD
ATOM     32  O3  D66 d   1      14.636   9.869  11.985  0.00  0.00    -0.271 OA
BRANCH  30  33
ATOM     33  C10 D66 d   1      16.883   9.751  10.744  0.00  0.00     0.096 C 
ATOM     34  H   D66 d   1      16.233   8.883  10.854  0.00  0.00     0.089 H 
BRANCH  33  35
ATOM     35  C11 D66 d   1      17.730   9.624   9.472  0.00  0.00    -0.034 C 
ATOM     36  H   D66 d   1      18.559   8.956   9.706  0.00  0.00     0.037 H 
ATOM     37  H   D66 d   1      18.029  10.633   9.186  0.00  0.00     0.037 H 
BRANCH  35  38
ATOM     38  C12 D66 d   1      16.992   9.019   8.275  0.00  0.00    -0.059 C 
ATOM     39  H   D66 d   1      16.081   9.579   8.065  0.00  0.00     0.038 H 
BRANCH  38  40
ATOM     40  C13 D66 d   1      16.486   7.598   8.535  0.00  0.00    -0.073 C 
ATOM     41  H   D66 d   1      17.331   6.949   8.764  0.00  0.00     0.028 H 
ATOM     42  H   D66 d   1      15.795   7.608   9.378  0.00  0.00     0.028 H 
ATOM     43  H   D66 d   1      15.973   7.228   7.647  0.00  0.00     0.028 H 
ENDBRANCH  38  40
BRANCH  38  44
ATOM     44  C14 D66 d   1      17.959   9.095   7.101  0.00  0.00    -0.073 C 
ATOM     45  H   D66 d   1      18.222  10.136   6.916  0.00  0.00     0.028 H 
ATOM     46  H   D66 d   1      18.859   8.527   7.336  0.00  0.00     0.028 H 
ATOM     47  H   D66 d   1      17.485   8.675   6.214  0.00  0.00     0.028 H 
ENDBRANCH  38  44
ENDBRANCH  35  38
ENDBRANCH  33  35
BRANCH  33  48
ATOM     48  C15 D66 d   1      17.815   9.828  11.935  0.00  0.00     0.196 C 
ATOM     49  O4  D66 d   1      18.729   8.992  12.168  0.00  0.00    -0.646 OA
ATOM     50  O5  D66 d   1      17.676  10.866  12.748  0.00  0.00    -0.646 OA
ENDBRANCH  33  48
ENDBRANCH  30  33
ENDBRANCH   1  29
TORSDOF 14
