REMARK  14 active torsions:
REMARK  status: ('A' for Active; 'I' for Inactive)
REMARK    1  A    between atoms: N1_2  and  C1_1 
REMARK    2  A    between atoms: C2_4  and  N1_2 
REMARK    3  A    between atoms: C3_7  and  C2_4 
REMARK    4  A    between atoms: C2_4  and  C11_19 
REMARK    5  A    between atoms: N2_5  and  C3_7 
REMARK       I    between atoms: C4_10  and  N2_5 
REMARK    6  A    between atoms: O2_6  and  C10_18 
REMARK    7  A    between atoms: C18_26  and  O2_6 
REMARK       I    between atoms: N3_8  and  C4_10 
REMARK    8  A    between atoms: C19_27  and  N4_11 
REMARK       I    between atoms: N4_11  and  C20_28 
REMARK    9  A    between atoms: C20_28  and  O4_12 
REMARK   10  A    between atoms: O4_12  and  C27_35 
REMARK   11  A    between atoms: C10_18  and  C6_14 
REMARK   12  A    between atoms: C10_18  and  C21_29 
REMARK   13  A    between atoms: C11_19  and  C12_20 
REMARK   14  A    between atoms: C18_26  and  C19_27 
ROOT
ATOM      1  O1  RX5 d   1      25.431 -11.235 -11.169  0.00  0.00    -0.247 OA
ATOM      2  N2  RX5 d   1      26.006  -9.165 -10.836  0.00  0.00    -0.341 N 
ATOM      3  N3  RX5 d   1      26.338 -10.148 -12.924  0.00  0.00    -0.334 N 
ATOM      4  C4  RX5 d   1      25.908 -10.203 -11.650  0.00  0.00     0.318 C 
ATOM      5  C5  RX5 d   1      26.944  -8.962 -13.581  0.00  0.00     0.005 C 
ATOM      6  C6  RX5 d   1      28.412  -9.326 -13.884  0.00  0.00    -0.009 C 
ATOM      7  C7  RX5 d   1      28.460 -10.576 -14.802  0.00  0.00    -0.056 C 
ATOM      8  C8  RX5 d   1      27.630 -11.762 -14.258  0.00  0.00    -0.050 C 
ATOM      9  C9  RX5 d   1      26.214 -11.335 -13.792  0.00  0.00    -0.001 C 
ATOM     10  H7  RX5 d   1      26.398  -8.299 -11.147  0.00  0.00     0.164 HD
ATOM     11  H11 RX5 d   1      26.900  -8.092 -12.909  0.00  0.00     0.065 H 
ATOM     12  H12 RX5 d   1      26.410  -8.731 -14.515  0.00  0.00     0.065 H 
ATOM     13  H13 RX5 d   1      28.894  -9.593 -12.932  0.00  0.00     0.046 H 
ATOM     14  H14 RX5 d   1      29.507 -10.898 -14.900  0.00  0.00     0.033 H 
ATOM     15  H15 RX5 d   1      28.067 -10.299 -15.791  0.00  0.00     0.033 H 
ATOM     16  H16 RX5 d   1      28.164 -12.203 -13.403  0.00  0.00     0.035 H 
ATOM     17  H17 RX5 d   1      27.527 -12.514 -15.054  0.00  0.00     0.035 H 
ATOM     18  H18 RX5 d   1      25.595 -11.090 -14.668  0.00  0.00     0.064 H 
ATOM     19  H19 RX5 d   1      25.746 -12.157 -13.230  0.00  0.00     0.064 H 
ENDROOT
BRANCH   2  20
ATOM     20  C3  RX5 d   1      25.522  -9.327  -9.465  0.00  0.00     0.023 C 
ATOM     21  H8  RX5 d   1      24.452  -9.074  -9.425  0.00  0.00     0.067 H 
ATOM     22  H9  RX5 d   1      25.664 -10.371  -9.150  0.00  0.00     0.067 H 
BRANCH  20  23
ATOM     23  C2  RX5 d   1      26.292  -8.409  -8.525  0.00  0.00     0.117 C 
ATOM     24  H6  RX5 d   1      26.472  -7.471  -9.070  0.00  0.00     0.086 H 
BRANCH  23  25
ATOM     25  N1  RX5 d   1      25.535  -8.072  -7.288  0.00  0.00    -0.073 N 
ATOM     26  H4  RX5 d   1      26.047  -7.359  -6.792  0.00  0.00     0.277 HD
ATOM     27  H5  RX5 d   1      24.634  -7.711  -7.561  0.00  0.00     0.277 HD
BRANCH  25  28
ATOM     28  C1  RX5 d   1      25.316  -9.197  -6.371  0.00  0.00     0.065 C 
ATOM     29  H1  RX5 d   1      24.752  -8.850  -5.493  0.00  0.00     0.067 H 
ATOM     30  H2  RX5 d   1      26.287  -9.600  -6.047  0.00  0.00     0.067 H 
ATOM     31  H3  RX5 d   1      24.745  -9.984  -6.886  0.00  0.00     0.067 H 
ENDBRANCH  25  28
ENDBRANCH  23  25
BRANCH  23  32
ATOM     32  C11 RX5 d   1      27.645  -8.985  -8.135  0.00  0.00    -0.032 C 
ATOM     33  H21 RX5 d   1      27.531 -10.071  -8.006  0.00  0.00     0.036 H 
ATOM     34  H22 RX5 d   1      27.948  -8.532  -7.179  0.00  0.00     0.036 H 
BRANCH  32  35
ATOM     35  C12 RX5 d   1      28.756  -8.741  -9.150  0.00  0.00    -0.031 C 
ATOM     36  C13 RX5 d   1      29.801  -9.844  -8.965  0.00  0.00     0.023 C 
ATOM     37  O14 RX5 d   1      30.888  -9.647  -9.889  0.00  0.00    -0.391 OA
ATOM     38  H24 RX5 d   1      29.336 -10.823  -9.152  0.00  0.00     0.074 H 
ATOM     39  H25 RX5 d   1      30.187  -9.812  -7.935  0.00  0.00     0.074 H 
ATOM     40  C15 RX5 d   1      31.633  -8.482  -9.528  0.00  0.00     0.019 C 
ATOM     41  C16 RX5 d   1      30.726  -7.261  -9.642  0.00  0.00    -0.045 C 
ATOM     42  H26 RX5 d   1      32.492  -8.368 -10.206  0.00  0.00     0.074 H 
ATOM     43  H27 RX5 d   1      31.993  -8.580  -8.493  0.00  0.00     0.074 H 
ATOM     44  C17 RX5 d   1      29.449  -7.419  -8.858  0.00  0.00    -0.058 C 
ATOM     45  H28 RX5 d   1      30.473  -7.106 -10.701  0.00  0.00     0.036 H 
ATOM     46  H29 RX5 d   1      31.267  -6.382  -9.262  0.00  0.00     0.036 H 
ATOM     47  H30 RX5 d   1      29.684  -7.372  -7.785  0.00  0.00     0.033 H 
ATOM     48  H31 RX5 d   1      28.768  -6.596  -9.121  0.00  0.00     0.033 H 
ATOM     49  H23 RX5 d   1      28.351  -8.747 -10.173  0.00  0.00     0.043 H 
ENDBRANCH  32  35
ENDBRANCH  23  32
ENDBRANCH  20  23
ENDBRANCH   2  20
BRANCH   6  50
ATOM     50  C10 RX5 d   1      29.187  -8.143 -14.466  0.00  0.00     0.069 C 
ATOM     51  H20 RX5 d   1      28.675  -7.772 -15.366  0.00  0.00     0.091 H 
BRANCH  50  52
ATOM     52  O2  RX5 d   1      29.203  -7.157 -13.438  0.00  0.00    -0.379 OA
BRANCH  52  53
ATOM     53  C18 RX5 d   1      29.560  -5.865 -13.965  0.00  0.00     0.035 C 
ATOM     54  H32 RX5 d   1      28.908  -5.597 -14.810  0.00  0.00     0.076 H 
ATOM     55  H33 RX5 d   1      30.609  -5.857 -14.295  0.00  0.00     0.076 H 
BRANCH  53  56
ATOM     56  C19 RX5 d   1      29.354  -4.896 -12.796  0.00  0.00     0.017 C 
ATOM     57  H34 RX5 d   1      29.839  -5.287 -11.889  0.00  0.00     0.067 H 
ATOM     58  H35 RX5 d   1      29.775  -3.910 -13.041  0.00  0.00     0.067 H 
BRANCH  56  59
ATOM     59  N4  RX5 d   1      27.894  -4.790 -12.589  0.00  0.00    -0.335 N 
ATOM     60  C20 RX5 d   1      27.284  -3.670 -13.051  0.00  0.00     0.360 C 
ATOM     61  O3  RX5 d   1      27.854  -2.694 -13.615  0.00  0.00    -0.239 OA
ATOM     62  H10 RX5 d   1      27.378  -5.513 -12.128  0.00  0.00     0.164 HD
BRANCH  60  63
ATOM     63  O4  RX5 d   1      25.855  -3.622 -12.898  0.00  0.00    -0.309 OA
BRANCH  63  64
ATOM     64  C27 RX5 d   1      25.111  -2.621 -13.623  0.00  0.00     0.015 C 
ATOM     65  H40 RX5 d   1      24.040  -2.723 -13.394  0.00  0.00     0.067 H 
ATOM     66  H41 RX5 d   1      25.270  -2.757 -14.703  0.00  0.00     0.067 H 
ATOM     67  H42 RX5 d   1      25.456  -1.620 -13.324  0.00  0.00     0.067 H 
ENDBRANCH  63  64
ENDBRANCH  60  63
ENDBRANCH  56  59
ENDBRANCH  53  56
ENDBRANCH  52  53
ENDBRANCH  50  52
BRANCH  50  68
ATOM     68  C21 RX5 d   1      30.619  -8.444 -14.794  0.00  0.00    -0.027 A 
ATOM     69  C22 RX5 d   1      31.541  -8.737 -13.792  0.00  0.00    -0.053 A 
ATOM     70  C23 RX5 d   1      32.858  -9.012 -14.117  0.00  0.00     0.034 A 
ATOM     71  H36 RX5 d   1      31.226  -8.750 -12.755  0.00  0.00     0.087 H 
ATOM     72  C24 RX5 d   1      33.325  -8.986 -15.422  0.00  0.00    -0.062 A 
ATOM     73 CL2  RX5 d   1      33.991  -9.423 -12.806  0.00  0.00    -0.084 Cl
ATOM     74  C25 RX5 d   1      32.394  -8.687 -16.412  0.00  0.00    -0.081 A 
ATOM     75  H37 RX5 d   1      34.363  -9.188 -15.659  0.00  0.00     0.086 H 
ATOM     76  C26 RX5 d   1      31.058  -8.441 -16.109  0.00  0.00    -0.074 A 
ATOM     77  H38 RX5 d   1      32.718  -8.645 -17.446  0.00  0.00     0.083 H 
ATOM     78  H39 RX5 d   1      30.354  -8.245 -16.909  0.00  0.00     0.084 H 
ENDBRANCH  50  68
ENDBRANCH   6  50
TORSDOF 14
