REMARK  2 active torsions:
REMARK  status: ('A' for Active; 'I' for Inactive)
REMARK    1  A    between atoms: C17_22  and  C21_26 
REMARK    2  A    between atoms: C22_27  and  C28_33 
ROOT
ATOM      1  O   RSW d   1     -20.354  12.176  -0.101  0.00  0.00    -0.267 OA
ATOM      2 CL   RSW d   1     -13.059   9.851  -1.600  0.00  0.00     0.000 Cl
ATOM      3  C1  RSW d   1     -16.022  10.967   0.348  0.00  0.00     0.099 A 
ATOM      4  N2  RSW d   1     -14.900  11.721   0.021  0.00  0.00    -0.245 N 
ATOM      5  O2  RSW d   1     -20.058   7.966   1.633  0.00  0.00    -0.267 OA
ATOM      6  C3  RSW d   1     -15.408  12.974  -0.495  0.00  0.00     0.068 A 
ATOM      7  C4  RSW d   1     -14.725  14.157  -1.000  0.00  0.00    -0.054 A 
ATOM      8  C5  RSW d   1     -15.536  15.267  -1.451  0.00  0.00    -0.081 A 
ATOM      9  C6  RSW d   1     -16.978  15.210  -1.404  0.00  0.00    -0.082 A 
ATOM     10  C7  RSW d   1     -17.664  14.029  -0.901  0.00  0.00    -0.070 A 
ATOM     11  C8  RSW d   1     -16.871  12.907  -0.446  0.00  0.00     0.006 A 
ATOM     12  C9  RSW d   1     -17.259  11.631   0.088  0.00  0.00     0.024 A 
ATOM     13  C10 RSW d   1     -18.462  10.812   0.441  0.00  0.00     0.062 A 
ATOM     14  C11 RSW d   1     -19.844  11.086   0.343  0.00  0.00     0.260 A 
ATOM     15  N12 RSW d   1     -20.597  10.045   0.781  0.00  0.00    -0.289 N 
ATOM     16  C13 RSW d   1     -19.697   9.104   1.160  0.00  0.00     0.260 A 
ATOM     17  C14 RSW d   1     -18.354   9.482   0.988  0.00  0.00     0.061 A 
ATOM     18  C15 RSW d   1     -17.041   8.848   1.236  0.00  0.00     0.012 A 
ATOM     19  C16 RSW d   1     -16.752   7.530   1.776  0.00  0.00    -0.063 A 
ATOM     20  C17 RSW d   1     -15.376   7.094   1.937  0.00  0.00    -0.044 A 
ATOM     21  C18 RSW d   1     -14.266   7.945   1.571  0.00  0.00     0.009 A 
ATOM     22  N19 RSW d   1     -14.526   9.251   1.042  0.00  0.00    -0.257 N 
ATOM     23  C20 RSW d   1     -15.859   9.657   0.888  0.00  0.00     0.097 A 
ATOM     24  C22 RSW d   1     -11.377  10.393   1.235  0.00  0.00     0.087 C 
ATOM     25  C23 RSW d   1     -11.492  11.688   0.658  0.00  0.00     0.011 A 
ATOM     26  C24 RSW d   1     -12.513  12.552   1.042  0.00  0.00     0.001 A 
ATOM     27  C25 RSW d   1     -13.461  12.147   2.016  0.00  0.00     0.000 A 
ATOM     28  C26 RSW d   1     -13.360  10.892   2.607  0.00  0.00     0.001 A 
ATOM     29  C27 RSW d   1     -12.329  10.006   2.217  0.00  0.00     0.011 A 
ATOM     30 RU   RSW d   1     -13.356  10.671   0.431  0.00  0.00     0.000 Ru
ATOM     31  H   RSW d   1     -13.637  14.205  -1.037  0.00  0.00     0.087 H 
ATOM     32  H   RSW d   1     -15.049  16.164  -1.834  0.00  0.00     0.083 H 
ATOM     33  H   RSW d   1     -17.561  16.064  -1.750  0.00  0.00     0.083 H 
ATOM     34  H   RSW d   1     -18.753  13.990  -0.868  0.00  0.00     0.084 H 
ATOM     35  H   RSW d   1     -21.614   9.984   0.817  0.00  0.00     0.172 HD
ATOM     36  H   RSW d   1     -17.569   6.867   2.061  0.00  0.00     0.085 H 
ATOM     37  H   RSW d   1     -13.241   7.596   1.696  0.00  0.00     0.115 H 
ENDROOT
BRANCH  24  38
ATOM     38  C28 RSW d   1     -10.268   9.470   0.809  0.00  0.00     0.185 C 
ATOM     39  O3  RSW d   1     -10.150   8.350   1.296  0.00  0.00    -0.647 OA
ATOM     40  O4  RSW d   1      -9.348   9.810  -0.118  0.00  0.00    -0.647 OA
ENDBRANCH  24  38
BRANCH  20  41
ATOM     41  C21 RSW d   1     -15.094   5.731   2.494  0.00  0.00    -0.050 C 
ATOM     42  H   RSW d   1     -15.520   5.654   3.494  0.00  0.00     0.033 H 
ATOM     43  H   RSW d   1     -15.542   4.976   1.848  0.00  0.00     0.033 H 
ATOM     44  H   RSW d   1     -14.016   5.576   2.543  0.00  0.00     0.033 H 
ENDBRANCH  20  41
TORSDOF 2
