REMARK  26 active torsions:
REMARK  status: ('A' for Active; 'I' for Inactive)
REMARK    1  A    between atoms: C_1  and  CH3_3 
REMARK       I    between atoms: C_1  and  N_4 
REMARK    2  A    between atoms: N_4  and  CA_5 
REMARK    3  A    between atoms: CA_5  and  C_6 
REMARK    4  A    between atoms: CA_5  and  CB_8 
REMARK       I    between atoms: C_6  and  N_13 
REMARK    5  A    between atoms: CB_8  and  CG_9 
REMARK    6  A    between atoms: CG_9  and  CD_10 
REMARK       I    between atoms: CD_10  and  NE2_12 
REMARK    7  A    between atoms: N_13  and  CA_14 
REMARK    8  A    between atoms: CA_14  and  C_15 
REMARK    9  A    between atoms: CA_14  and  CB_17 
REMARK       I    between atoms: C_15  and  N_21 
REMARK   10  A    between atoms: CB_17  and  CG_18 
REMARK   11  A    between atoms: CG_18  and  CD1_19 
REMARK   12  A    between atoms: CG_18  and  CD2_20 
REMARK   13  A    between atoms: N_21  and  CA_22 
REMARK   14  A    between atoms: CA_22  and  C_23 
REMARK   15  A    between atoms: CA_22  and  CB_25 
REMARK       I    between atoms: C_23  and  N_29 
REMARK   16  A    between atoms: CB_25  and  CG_26 
REMARK   17  A    between atoms: N_29  and  CA_30 
REMARK   18  A    between atoms: CA_30  and  C_31 
REMARK   19  A    between atoms: CA_30  and  CB_33 
REMARK       I    between atoms: C_31  and  N_37 
REMARK   20  A    between atoms: CB_33  and  CG_34 
REMARK   21  A    between atoms: CG_34  and  CD1_35 
REMARK   22  A    between atoms: CG_34  and  CD2_36 
REMARK   23  A    between atoms: N_37  and  CA_38 
REMARK   24  A    between atoms: CA_38  and  C_39 
REMARK   25  A    between atoms: CA_38  and  CB_41 
REMARK   26  A    between atoms: CB_41  and  CG_42 
ROOT
ATOM      1  CA  ASP d   1      24.699  42.961  62.953  0.00  0.00     0.098 C 
ATOM      2  H24 ASP d   1      24.206  43.739  62.351  0.00  0.00     0.088 H 
ENDROOT
BRANCH   1   3
ATOM      3  N   ASP d   1      25.164  43.594  64.182  0.00  0.00    -0.346 N 
ATOM      4  C   LEU d   1      24.760  44.816  64.535  0.00  0.00     0.241 C 
ATOM      5  O   LEU d   1      23.981  45.493  63.845  0.00  0.00    -0.271 OA
ATOM      6  H23 ASP d   1      25.801  43.100  64.774  0.00  0.00     0.163 HD
BRANCH   4   7
ATOM      7  CA  LEU d   1      25.345  45.376  65.850  0.00  0.00     0.089 C 
ATOM      8  H13 LEU d   1      26.406  45.089  65.892  0.00  0.00     0.087 H 
BRANCH   7   9
ATOM      9  N   LEU d   1      25.280  46.839  65.846  0.00  0.00    -0.346 N 
ATOM     10  C   GLN d   1      26.219  47.611  65.269  0.00  0.00     0.241 C 
ATOM     11  O   GLN d   1      27.224  47.157  64.722  0.00  0.00    -0.271 OA
ATOM     12  H12 LEU d   1      24.503  47.284  66.292  0.00  0.00     0.163 HD
BRANCH  10  13
ATOM     13  CA  GLN d   1      25.959  49.114  65.314  0.00  0.00     0.089 C 
ATOM     14  H5  GLN d   1      24.999  49.226  65.839  0.00  0.00     0.087 H 
BRANCH  13  15
ATOM     15  N   GLN d   1      26.920  49.871  66.104  0.00  0.00    -0.348 N 
ATOM     16  C   ACE d   1      27.178  49.679  67.418  0.00  0.00     0.214 C 
ATOM     17  O   ACE d   1      26.619  48.810  68.108  0.00  0.00    -0.274 OA
ATOM     18  H4  GLN d   1      27.431  50.592  65.637  0.00  0.00     0.163 HD
BRANCH  16  19
ATOM     19  CH3 ACE d   1      28.185  50.638  68.025  0.00  0.00    -0.003 C 
ATOM     20  H1  ACE d   1      28.557  51.321  67.246  0.00  0.00     0.040 H 
ATOM     21  H2  ACE d   1      29.027  50.068  68.445  0.00  0.00     0.040 H 
ATOM     22  H3  ACE d   1      27.702  51.221  68.823  0.00  0.00     0.040 H 
ENDBRANCH  16  19
ENDBRANCH  13  15
BRANCH  13  23
ATOM     23  CB  GLN d   1      25.742  49.726  63.908  0.00  0.00    -0.030 C 
ATOM     24  H6  GLN d   1      26.675  49.609  63.337  0.00  0.00     0.037 H 
ATOM     25  H7  GLN d   1      25.519  50.796  64.032  0.00  0.00     0.037 H 
BRANCH  23  26
ATOM     26  CG  GLN d   1      24.593  49.088  63.086  0.00  0.00     0.011 C 
ATOM     27  H8  GLN d   1      24.879  48.051  62.857  0.00  0.00     0.047 H 
ATOM     28  H9  GLN d   1      24.494  49.656  62.149  0.00  0.00     0.047 H 
BRANCH  26  29
ATOM     29  CD  GLN d   1      23.224  49.057  63.761  0.00  0.00     0.215 C 
ATOM     30  OE1 GLN d   1      22.609  48.005  63.927  0.00  0.00    -0.274 OA
ATOM     31  NE2 GLN d   1      22.710  50.195  64.170  0.00  0.00    -0.370 N 
ATOM     32  H10 GLN d   1      21.815  50.208  64.616  0.00  0.00     0.159 HD
ATOM     33  H11 GLN d   1      23.214  51.048  64.035  0.00  0.00     0.159 HD
ENDBRANCH  26  29
ENDBRANCH  23  26
ENDBRANCH  13  23
ENDBRANCH  10  13
ENDBRANCH   7   9
BRANCH   7  34
ATOM     34  CB  LEU d   1      24.651  44.767  67.101  0.00  0.00    -0.035 C 
ATOM     35  H14 LEU d   1      24.736  43.673  67.029  0.00  0.00     0.037 H 
ATOM     36  H15 LEU d   1      23.590  45.055  67.066  0.00  0.00     0.037 H 
BRANCH  34  37
ATOM     37  CG  LEU d   1      25.203  45.188  68.477  0.00  0.00    -0.059 C 
ATOM     38  H16 LEU d   1      25.486  46.249  68.409  0.00  0.00     0.038 H 
BRANCH  37  39
ATOM     39  CD1 LEU d   1      24.135  45.069  69.571  0.00  0.00    -0.073 C 
ATOM     40  H17 LEU d   1      24.563  45.377  70.536  0.00  0.00     0.028 H 
ATOM     41  H18 LEU d   1      23.793  44.026  69.638  0.00  0.00     0.028 H 
ATOM     42  H19 LEU d   1      23.283  45.719  69.324  0.00  0.00     0.028 H 
ENDBRANCH  37  39
BRANCH  37  43
ATOM     43  CD2 LEU d   1      26.446  44.410  68.826  0.00  0.00    -0.073 C 
ATOM     44  H20 LEU d   1      27.186  44.520  68.019  0.00  0.00     0.028 H 
ATOM     45  H21 LEU d   1      26.191  43.347  68.947  0.00  0.00     0.028 H 
ATOM     46  H22 LEU d   1      26.868  44.795  69.766  0.00  0.00     0.028 H 
ENDBRANCH  37  43
ENDBRANCH  34  37
ENDBRANCH   7  34
ENDBRANCH   4   7
ENDBRANCH   1   3
BRANCH   1  47
ATOM     47  C   ASP d   1      23.665  41.871  63.204  0.00  0.00     0.241 C 
ATOM     48  O   ASP d   1      23.730  41.192  64.239  0.00  0.00    -0.271 OA
ATOM     49  N   LEU d   1      22.696  41.718  62.264  0.00  0.00    -0.346 N 
ATOM     50  H27 LEU d   1      22.692  42.343  61.483  0.00  0.00     0.163 HD
BRANCH  49  51
ATOM     51  CA  LEU d   1      21.651  40.681  62.332  0.00  0.00     0.089 C 
ATOM     52  H28 LEU d   1      21.206  40.708  63.338  0.00  0.00     0.087 H 
BRANCH  51  53
ATOM     53  C   LEU d   1      22.233  39.292  62.087  0.00  0.00     0.241 C 
ATOM     54  O   LEU d   1      21.693  38.312  62.590  0.00  0.00    -0.271 OA
ATOM     55  N   PHE d   1      23.291  39.218  61.261  0.00  0.00    -0.344 N 
ATOM     56  H38 PHE d   1      23.635  40.083  60.896  0.00  0.00     0.163 HD
BRANCH  55  57
ATOM     57  CA  PHE d   1      23.993  38.005  60.840  0.00  0.00     0.100 C 
ATOM     58  H39 PHE d   1      24.109  37.348  61.715  0.00  0.00     0.090 H 
BRANCH  57  59
ATOM     59  C   PHE d   1      25.402  38.362  60.308  0.00  0.00     0.197 C 
ATOM     60  O   PHE d   1      25.636  39.549  59.969  0.00  0.00    -0.646 OA
ATOM     61  OXT PHE d   1      26.261  37.454  60.212  0.00  0.00    -0.646 OA
ENDBRANCH  57  59
BRANCH  57  62
ATOM     62  CB  PHE d   1      23.166  37.247  59.768  0.00  0.00    -0.013 C 
ATOM     63  H40 PHE d   1      22.302  36.782  60.264  0.00  0.00     0.043 H 
ATOM     64  H41 PHE d   1      23.803  36.464  59.331  0.00  0.00     0.043 H 
BRANCH  62  65
ATOM     65  CG  PHE d   1      22.656  38.122  58.650  0.00  0.00    -0.056 A 
ATOM     66  CD1 PHE d   1      23.450  38.399  57.544  0.00  0.00    -0.077 A 
ATOM     67  CE1 PHE d   1      22.996  39.254  56.537  0.00  0.00    -0.082 A 
ATOM     68  H42 PHE d   1      24.432  37.947  57.462  0.00  0.00     0.084 H 
ATOM     69  CZ  PHE d   1      21.743  39.823  56.630  0.00  0.00    -0.083 A 
ATOM     70  H44 PHE d   1      23.628  39.470  55.683  0.00  0.00     0.083 H 
ATOM     71  CE2 PHE d   1      20.941  39.554  57.717  0.00  0.00    -0.082 A 
ATOM     72  H46 PHE d   1      21.389  40.483  55.846  0.00  0.00     0.083 H 
ATOM     73  CD2 PHE d   1      21.388  38.691  58.714  0.00  0.00    -0.077 A 
ATOM     74  H45 PHE d   1      19.963  40.014  57.796  0.00  0.00     0.083 H 
ATOM     75  H43 PHE d   1      20.739  38.459  59.551  0.00  0.00     0.084 H 
ENDBRANCH  62  65
ENDBRANCH  57  62
ENDBRANCH  55  57
ENDBRANCH  51  53
BRANCH  51  76
ATOM     76  CB  LEU d   1      20.543  40.921  61.293  0.00  0.00    -0.035 C 
ATOM     77  H29 LEU d   1      20.001  39.972  61.169  0.00  0.00     0.037 H 
ATOM     78  H30 LEU d   1      21.036  41.188  60.347  0.00  0.00     0.037 H 
BRANCH  76  79
ATOM     79  CG  LEU d   1      19.518  41.985  61.576  0.00  0.00    -0.059 C 
ATOM     80  H31 LEU d   1      20.047  42.939  61.715  0.00  0.00     0.038 H 
BRANCH  79  81
ATOM     81  CD1 LEU d   1      18.607  42.123  60.410  0.00  0.00    -0.073 C 
ATOM     82  H32 LEU d   1      17.859  42.901  60.620  0.00  0.00     0.028 H 
ATOM     83  H33 LEU d   1      18.098  41.165  60.227  0.00  0.00     0.028 H 
ATOM     84  H34 LEU d   1      19.190  42.405  59.521  0.00  0.00     0.028 H 
ENDBRANCH  79  81
BRANCH  79  85
ATOM     85  CD2 LEU d   1      18.734  41.699  62.848  0.00  0.00    -0.073 C 
ATOM     86  H35 LEU d   1      19.430  41.602  63.694  0.00  0.00     0.028 H 
ATOM     87  H36 LEU d   1      18.170  40.763  62.728  0.00  0.00     0.028 H 
ATOM     88  H37 LEU d   1      18.035  42.526  63.042  0.00  0.00     0.028 H 
ENDBRANCH  79  85
ENDBRANCH  76  79
ENDBRANCH  51  76
ENDBRANCH  49  51
ENDBRANCH   1  47
BRANCH   1  89
ATOM     89  CB  ASP d   1      25.891  42.441  62.144  0.00  0.00     0.043 C 
ATOM     90  H25 ASP d   1      25.540  41.638  61.479  0.00  0.00     0.052 H 
ATOM     91  H26 ASP d   1      26.639  42.038  62.843  0.00  0.00     0.052 H 
BRANCH  89  92
ATOM     92  CG  ASP d   1      26.549  43.513  61.299  0.00  0.00     0.175 C 
ATOM     93  OD1 ASP d   1      27.203  44.410  61.883  0.00  0.00    -0.648 OA
ATOM     94  OD2 ASP d   1      26.386  43.472  60.050  0.00  0.00    -0.648 OA
ENDBRANCH  89  92
ENDBRANCH   1  89
TORSDOF 26
