REMARK  24 active torsions:
REMARK  status: ('A' for Active; 'I' for Inactive)
REMARK    1  A    between atoms: C_1  and  CH3_3 
REMARK       I    between atoms: C_1  and  N_4 
REMARK    2  A    between atoms: N_4  and  CA_5 
REMARK    3  A    between atoms: CA_5  and  C_6 
REMARK    4  A    between atoms: CA_5  and  CB_8 
REMARK       I    between atoms: C_6  and  N_13 
REMARK    5  A    between atoms: CB_8  and  CG_9 
REMARK    6  A    between atoms: CG_9  and  CD_10 
REMARK       I    between atoms: CD_10  and  NE2_12 
REMARK    7  A    between atoms: N_13  and  CA_14 
REMARK    8  A    between atoms: CA_14  and  C_15 
REMARK    9  A    between atoms: CA_14  and  CB_17 
REMARK       I    between atoms: C_15  and  N_24 
REMARK   10  A    between atoms: CB_17  and  CG_18 
REMARK   11  A    between atoms: N_24  and  CA_25 
REMARK   12  A    between atoms: CA_25  and  C_26 
REMARK   13  A    between atoms: CA_25  and  CB_28 
REMARK       I    between atoms: C_26  and  N_32 
REMARK   14  A    between atoms: CB_28  and  CG_29 
REMARK   15  A    between atoms: N_32  and  CA_33 
REMARK   16  A    between atoms: CA_33  and  C_34 
REMARK   17  A    between atoms: CA_33  and  CB_36 
REMARK       I    between atoms: C_34  and  N_40 
REMARK   18  A    between atoms: CB_36  and  CG_37 
REMARK   19  A    between atoms: CG_37  and  CD1_38 
REMARK   20  A    between atoms: CG_37  and  CD2_39 
REMARK   21  A    between atoms: N_40  and  CA_41 
REMARK   22  A    between atoms: CA_41  and  C_42 
REMARK   23  A    between atoms: CA_41  and  CB_45 
REMARK   24  A    between atoms: CB_45  and  CG_46 
ROOT
ATOM      1  C   ALC d   1     -11.636   6.300  29.995  0.00  0.00     0.241 C 
ATOM      2  O   ALC d   1     -10.844   5.719  29.263  0.00  0.00    -0.271 OA
ATOM      3  N   ASP d   1     -11.984   7.629  29.488  0.00  0.00    -0.346 N 
ATOM      4  H27 ASP d   1     -11.842   7.782  28.510  0.00  0.00     0.163 HD
ENDROOT
BRANCH   3   5
ATOM      5  CA  ASP d   1     -12.550   8.830  30.301  0.00  0.00     0.098 C 
ATOM      6  H28 ASP d   1     -12.801   9.533  29.493  0.00  0.00     0.088 H 
BRANCH   5   7
ATOM      7  C   ASP d   1     -11.474   9.729  31.120  0.00  0.00     0.241 C 
ATOM      8  O   ASP d   1     -11.377   9.697  32.347  0.00  0.00    -0.271 OA
ATOM      9  N   LEU d   1     -10.560  10.539  30.269  0.00  0.00    -0.346 N 
ATOM     10  H31 LEU d   1     -10.580  10.373  29.283  0.00  0.00     0.163 HD
BRANCH   9  11
ATOM     11  CA  LEU d   1      -9.624  11.571  30.769  0.00  0.00     0.089 C 
ATOM     12  H32 LEU d   1      -9.190  11.185  31.703  0.00  0.00     0.087 H 
BRANCH  11  13
ATOM     13  C   LEU d   1     -10.269  12.914  31.093  0.00  0.00     0.241 C 
ATOM     14  O   LEU d   1      -9.703  13.671  31.882  0.00  0.00    -0.271 OA
ATOM     15  N   200 d   1     -11.514  13.352  30.399  0.00  0.00    -0.344 N 
ATOM     16  H42 200 d   1     -11.979  12.722  29.777  0.00  0.00     0.163 HD
BRANCH  15  17
ATOM     17  CA  200 d   1     -12.085  14.735  30.622  0.00  0.00     0.100 C 
ATOM     18  H43 200 d   1     -11.689  15.057  31.596  0.00  0.00     0.090 H 
BRANCH  17  19
ATOM     19  C   200 d   1     -13.594  14.731  30.756  0.00  0.00     0.197 C 
ATOM     20  O   200 d   1     -14.200  15.440  31.810  0.00  0.00    -0.646 OA
ATOM     21  OXT 200 d   1     -14.362  13.982  29.828  0.00  0.00    -0.646 OA
ENDBRANCH  17  19
BRANCH  17  22
ATOM     22  CB  200 d   1     -11.640  15.817  29.612  0.00  0.00    -0.013 C 
ATOM     23  H44 200 d   1     -11.771  16.800  30.088  0.00  0.00     0.043 H 
ATOM     24  H45 200 d   1     -12.293  15.747  28.729  0.00  0.00     0.043 H 
BRANCH  22  25
ATOM     25  CG  200 d   1     -10.185  15.711  29.135  0.00  0.00    -0.056 A 
ATOM     26  CD1 200 d   1      -9.909  15.210  27.863  0.00  0.00    -0.075 A 
ATOM     27  CE1 200 d   1      -8.592  15.088  27.455  0.00  0.00    -0.061 A 
ATOM     28  H46 200 d   1     -10.717  14.919  27.201  0.00  0.00     0.084 H 
ATOM     29  CZ  200 d   1      -7.572  15.459  28.324  0.00  0.00     0.034 A 
ATOM     30  H48 200 d   1      -8.358  14.707  26.468  0.00  0.00     0.086 H 
ATOM     31  CE2 200 d   1      -7.842  15.960  29.593  0.00  0.00    -0.061 A 
ATOM     32 CL   200 d   1      -5.931  15.288  27.829  0.00  0.00    -0.084 Cl
ATOM     33  CD2 200 d   1      -9.161  16.082  29.995  0.00  0.00    -0.075 A 
ATOM     34  H49 200 d   1      -7.034  16.250  30.255  0.00  0.00     0.086 H 
ATOM     35  H47 200 d   1      -9.394  16.467  30.981  0.00  0.00     0.084 H 
ENDBRANCH  22  25
ENDBRANCH  17  22
ENDBRANCH  15  17
ENDBRANCH  11  13
BRANCH  11  36
ATOM     36  CB  LEU d   1      -8.465  11.790  29.754  0.00  0.00    -0.035 C 
ATOM     37  H33 LEU d   1      -7.889  12.661  30.098  0.00  0.00     0.037 H 
ATOM     38  H34 LEU d   1      -8.922  12.015  28.779  0.00  0.00     0.037 H 
BRANCH  36  39
ATOM     39  CG  LEU d   1      -7.489  10.663  29.542  0.00  0.00    -0.059 C 
ATOM     40  H35 LEU d   1      -8.125   9.773  29.425  0.00  0.00     0.038 H 
BRANCH  39  41
ATOM     41  CD1 LEU d   1      -6.748  10.753  28.242  0.00  0.00    -0.073 C 
ATOM     42  H36 LEU d   1      -6.056   9.902  28.155  0.00  0.00     0.028 H 
ATOM     43  H37 LEU d   1      -6.178  11.693  28.209  0.00  0.00     0.028 H 
ATOM     44  H38 LEU d   1      -7.465  10.729  27.409  0.00  0.00     0.028 H 
ENDBRANCH  39  41
BRANCH  39  45
ATOM     45  CD2 LEU d   1      -6.637  10.343  30.752  0.00  0.00    -0.073 C 
ATOM     46  H39 LEU d   1      -7.274  10.300  31.648  0.00  0.00     0.028 H 
ATOM     47  H40 LEU d   1      -5.875  11.125  30.881  0.00  0.00     0.028 H 
ATOM     48  H41 LEU d   1      -6.144   9.371  30.606  0.00  0.00     0.028 H 
ENDBRANCH  39  45
ENDBRANCH  36  39
ENDBRANCH  11  36
ENDBRANCH   9  11
ENDBRANCH   5   7
BRANCH   5  49
ATOM     49  CB  ASP d   1     -14.029   8.546  30.909  0.00  0.00     0.043 C 
ATOM     50  H29 ASP d   1     -14.253   9.261  31.714  0.00  0.00     0.052 H 
ATOM     51  H30 ASP d   1     -14.088   7.520  31.302  0.00  0.00     0.052 H 
BRANCH  49  52
ATOM     52  CG  ASP d   1     -15.012   8.727  29.752  0.00  0.00     0.175 C 
ATOM     53  OD1 ASP d   1     -16.182   8.114  29.765  0.00  0.00    -0.648 OA
ATOM     54  OD2 ASP d   1     -14.418   9.287  28.668  0.00  0.00    -0.648 OA
ENDBRANCH  49  52
ENDBRANCH   5  49
ENDBRANCH   3   5
BRANCH   1  55
ATOM     55  CA  ALC d   1     -12.514   5.508  30.964  0.00  0.00     0.089 C 
ATOM     56  H13 ALC d   1     -13.501   5.988  31.038  0.00  0.00     0.087 H 
BRANCH  55  57
ATOM     57  N   ALC d   1     -12.687   4.147  30.488  0.00  0.00    -0.346 N 
ATOM     58  C   GLN d   1     -13.778   3.790  29.559  0.00  0.00     0.241 C 
ATOM     59  O   GLN d   1     -14.830   4.442  29.488  0.00  0.00    -0.271 OA
ATOM     60  H12 ALC d   1     -12.054   3.437  30.796  0.00  0.00     0.163 HD
BRANCH  58  61
ATOM     61  CA  GLN d   1     -13.424   2.699  28.412  0.00  0.00     0.089 C 
ATOM     62  H5  GLN d   1     -12.438   2.318  28.718  0.00  0.00     0.087 H 
BRANCH  61  63
ATOM     63  N   GLN d   1     -14.292   1.401  28.359  0.00  0.00    -0.348 N 
ATOM     64  C   ACE d   1     -14.628   0.704  29.591  0.00  0.00     0.214 C 
ATOM     65  O   ACE d   1     -14.221   1.136  30.667  0.00  0.00    -0.274 OA
ATOM     66  H4  GLN d   1     -14.616   1.050  27.480  0.00  0.00     0.163 HD
BRANCH  64  67
ATOM     67  CH3 ACE d   1     -15.612  -0.454  29.524  0.00  0.00    -0.003 C 
ATOM     68  H1  ACE d   1     -15.842  -0.679  28.472  0.00  0.00     0.040 H 
ATOM     69  H2  ACE d   1     -16.537  -0.180  30.052  0.00  0.00     0.040 H 
ATOM     70  H3  ACE d   1     -15.168  -1.341  30.000  0.00  0.00     0.040 H 
ENDBRANCH  64  67
ENDBRANCH  61  63
BRANCH  61  71
ATOM     71  CB  GLN d   1     -13.142   3.398  26.993  0.00  0.00    -0.030 C 
ATOM     72  H6  GLN d   1     -13.996   4.045  26.745  0.00  0.00     0.037 H 
ATOM     73  H7  GLN d   1     -13.043   2.613  26.229  0.00  0.00     0.037 H 
BRANCH  71  74
ATOM     74  CG  GLN d   1     -11.862   4.252  26.986  0.00  0.00     0.011 C 
ATOM     75  H8  GLN d   1     -11.990   5.072  27.708  0.00  0.00     0.047 H 
ATOM     76  H9  GLN d   1     -11.731   4.670  25.977  0.00  0.00     0.047 H 
BRANCH  74  77
ATOM     77  CD  GLN d   1     -10.609   3.491  27.350  0.00  0.00     0.215 C 
ATOM     78  OE1 GLN d   1     -10.426   2.411  26.809  0.00  0.00    -0.274 OA
ATOM     79  NE2 GLN d   1      -9.792   3.893  28.463  0.00  0.00    -0.370 N 
ATOM     80  H10 GLN d   1      -8.966   3.377  28.689  0.00  0.00     0.159 HD
ATOM     81  H11 GLN d   1     -10.050   4.689  29.011  0.00  0.00     0.159 HD
ENDBRANCH  74  77
ENDBRANCH  71  74
ENDBRANCH  61  71
ENDBRANCH  58  61
ENDBRANCH  55  57
BRANCH  55  82
ATOM     82  CB  ALC d   1     -11.826   5.516  32.374  0.00  0.00    -0.035 C 
ATOM     83  H14 ALC d   1     -11.709   6.574  32.651  0.00  0.00     0.037 H 
ATOM     84  H15 ALC d   1     -10.834   5.062  32.233  0.00  0.00     0.037 H 
BRANCH  82  85
ATOM     85  CG  ALC d   1     -12.462   4.800  33.632  0.00  0.00    -0.052 C 
ATOM     86  CD2 ALC d   1     -13.892   4.431  33.398  0.00  0.00    -0.062 C 
ATOM     87  CE2 ALC d   1     -14.487   3.799  34.618  0.00  0.00    -0.065 C 
ATOM     88  H17 ALC d   1     -13.948   3.720  32.560  0.00  0.00     0.033 H 
ATOM     89  H18 ALC d   1     -14.462   5.338  33.148  0.00  0.00     0.033 H 
ATOM     90  CZ  ALC d   1     -13.665   2.730  35.276  0.00  0.00    -0.065 C 
ATOM     91  H19 ALC d   1     -15.450   3.352  34.329  0.00  0.00     0.033 H 
ATOM     92  H20 ALC d   1     -14.659   4.594  35.358  0.00  0.00     0.033 H 
ATOM     93  CE1 ALC d   1     -12.176   2.854  35.208  0.00  0.00    -0.065 C 
ATOM     94  H21 ALC d   1     -13.936   1.772  34.807  0.00  0.00     0.033 H 
ATOM     95  H22 ALC d   1     -13.944   2.710  36.340  0.00  0.00     0.033 H 
ATOM     96  CD1 ALC d   1     -11.611   3.659  34.076  0.00  0.00    -0.062 C 
ATOM     97  H23 ALC d   1     -11.761   1.838  35.132  0.00  0.00     0.033 H 
ATOM     98  H24 ALC d   1     -11.838   3.318  36.146  0.00  0.00     0.033 H 
ATOM     99  H25 ALC d   1     -10.638   4.062  34.395  0.00  0.00     0.033 H 
ATOM    100  H26 ALC d   1     -11.466   2.987  33.218  0.00  0.00     0.033 H 
ATOM    101  H16 ALC d   1     -12.460   5.532  34.453  0.00  0.00     0.040 H 
ENDBRANCH  82  85
ENDBRANCH  55  82
ENDBRANCH   1  55
TORSDOF 24
