REMARK  24 active torsions:
REMARK  status: ('A' for Active; 'I' for Inactive)
REMARK    1  A    between atoms: C_1  and  CH3_3 
REMARK       I    between atoms: N_4  and  C_1 
REMARK    2  A    between atoms: CA_5  and  N_4 
REMARK    3  A    between atoms: C_6  and  CA_5 
REMARK    4  A    between atoms: CA_5  and  CB_8 
REMARK       I    between atoms: N_13  and  C_6 
REMARK    5  A    between atoms: CB_8  and  CG_9 
REMARK    6  A    between atoms: CG_9  and  CD_10 
REMARK       I    between atoms: CD_10  and  NE2_12 
REMARK    7  A    between atoms: CA_14  and  N_13 
REMARK    8  A    between atoms: C_15  and  CA_14 
REMARK    9  A    between atoms: CA_14  and  CB_17 
REMARK       I    between atoms: N_24  and  C_15 
REMARK   10  A    between atoms: CB_17  and  CG_18 
REMARK   11  A    between atoms: CA_25  and  N_24 
REMARK   12  A    between atoms: C_26  and  CA_25 
REMARK   13  A    between atoms: CA_25  and  CB_28 
REMARK       I    between atoms: N_32  and  C_26 
REMARK   14  A    between atoms: CB_28  and  CG_29 
REMARK   15  A    between atoms: CA_33  and  N_32 
REMARK   16  A    between atoms: C_34  and  CA_33 
REMARK   17  A    between atoms: CA_33  and  CB_36 
REMARK       I    between atoms: N_40  and  C_34 
REMARK   18  A    between atoms: CB_36  and  CG_37 
REMARK   19  A    between atoms: CG_37  and  CD1_38 
REMARK   20  A    between atoms: CG_37  and  CD2_39 
REMARK   21  A    between atoms: CA_52  and  N_40 
REMARK   22  A    between atoms: CB_48  and  CG_51 
REMARK   23  A    between atoms: CA_52  and  CB_48 
REMARK   24  A    between atoms: C_49  and  CA_52 
ROOT
ATOM      1  C   ALC d   1     -11.878   7.192  29.752  0.00  0.00     0.241 C 
ATOM      2  O   ALC d   1     -10.984   7.069  28.869  0.00  0.00    -0.271 OA
ATOM      3  N   ASP d   1     -12.406   8.334  30.145  0.00  0.00    -0.346 N 
ATOM      4  H27 ASP d   1     -13.108   8.291  30.856  0.00  0.00     0.163 HD
ENDROOT
BRANCH   3   5
ATOM      5  CA  ASP d   1     -12.054   9.670  29.629  0.00  0.00     0.098 C 
ATOM      6  H28 ASP d   1     -11.756   9.602  28.572  0.00  0.00     0.088 H 
BRANCH   5   7
ATOM      7  C   ASP d   1     -10.905  10.238  30.494  0.00  0.00     0.241 C 
ATOM      8  O   ASP d   1     -10.900  10.094  31.706  0.00  0.00    -0.271 OA
ATOM      9  N   LEU d   1      -9.929  10.917  29.882  0.00  0.00    -0.346 N 
ATOM     10  H31 LEU d   1      -9.908  10.881  28.883  0.00  0.00     0.163 HD
BRANCH   9  11
ATOM     11  CA  LEU d   1      -8.785  11.787  30.606  0.00  0.00     0.089 C 
ATOM     12  H32 LEU d   1      -8.339  11.116  31.354  0.00  0.00     0.087 H 
BRANCH  11  13
ATOM     13  C   LEU d   1      -9.335  12.911  31.330  0.00  0.00     0.241 C 
ATOM     14  O   LEU d   1      -8.808  13.271  32.377  0.00  0.00    -0.271 OA
ATOM     15  N   ZCL d   1     -10.331  13.589  30.796  0.00  0.00    -0.344 N 
ATOM     16  H42 ZCL d   1     -10.689  13.213  29.942  0.00  0.00     0.163 HD
BRANCH  15  17
ATOM     17  CA  ZCL d   1     -11.007  14.833  31.271  0.00  0.00     0.100 C 
ATOM     18  H48 ZCL d   1     -10.372  15.209  32.087  0.00  0.00     0.090 H 
BRANCH  17  19
ATOM     19  CB  ZCL d   1     -11.091  16.085  30.288  0.00  0.00    -0.013 C 
ATOM     20  H46 ZCL d   1     -11.764  15.871  29.445  0.00  0.00     0.043 H 
ATOM     21  H47 ZCL d   1     -11.449  16.976  30.825  0.00  0.00     0.043 H 
BRANCH  19  22
ATOM     22  CG  ZCL d   1      -9.672  16.291  29.799  0.00  0.00    -0.054 A 
ATOM     23  CD2 ZCL d   1      -8.663  17.020  30.494  0.00  0.00    -0.075 A 
ATOM     24  CE2 ZCL d   1      -7.347  17.172  29.984  0.00  0.00    -0.060 A 
ATOM     25  H44 ZCL d   1      -8.910  17.475  31.447  0.00  0.00     0.084 H 
ATOM     26  CZ  ZCL d   1      -7.057  16.515  28.746  0.00  0.00     0.055 A 
ATOM     27  H43 ZCL d   1      -6.599  17.757  30.506  0.00  0.00     0.086 H 
ATOM     28 CLZ  ZCL d   1      -5.507  16.525  27.966  0.00  0.00    -0.083 Cl
ATOM     29  CE1 ZCL d   1      -8.088  15.803  28.089  0.00  0.00     0.056 A 
ATOM     30 CLE1 ZCL d   1      -7.803  15.045  26.635  0.00  0.00    -0.083 Cl
ATOM     31  CD1 ZCL d   1      -9.347  15.682  28.574  0.00  0.00    -0.054 A 
ATOM     32  H45 ZCL d   1     -10.095  15.122  28.024  0.00  0.00     0.086 H 
ENDBRANCH  19  22
ENDBRANCH  17  19
BRANCH  17  33
ATOM     33  C   ZCL d   1     -12.356  14.343  31.982  0.00  0.00     0.197 C 
ATOM     34  O   ZCL d   1     -13.391  14.104  31.274  0.00  0.00    -0.646 OA
ATOM     35  OXT ZCL d   1     -12.339  14.160  33.254  0.00  0.00    -0.646 OA
ENDBRANCH  17  33
ENDBRANCH  15  17
ENDBRANCH  11  13
BRANCH  11  36
ATOM     36  CB  LEU d   1      -7.621  12.265  29.726  0.00  0.00    -0.035 C 
ATOM     37  H33 LEU d   1      -7.067  13.024  30.298  0.00  0.00     0.037 H 
ATOM     38  H34 LEU d   1      -8.056  12.728  28.828  0.00  0.00     0.037 H 
BRANCH  36  39
ATOM     39  CG  LEU d   1      -6.599  11.206  29.251  0.00  0.00    -0.059 C 
ATOM     40  H35 LEU d   1      -7.204  10.340  28.944  0.00  0.00     0.038 H 
BRANCH  39  41
ATOM     41  CD1 LEU d   1      -5.841  11.622  27.996  0.00  0.00    -0.073 C 
ATOM     42  H36 LEU d   1      -5.134  10.828  27.714  0.00  0.00     0.028 H 
ATOM     43  H37 LEU d   1      -5.288  12.552  28.193  0.00  0.00     0.028 H 
ATOM     44  H38 LEU d   1      -6.554  11.787  27.175  0.00  0.00     0.028 H 
ENDBRANCH  39  41
BRANCH  39  45
ATOM     45  CD2 LEU d   1      -5.712  10.688  30.370  0.00  0.00    -0.073 C 
ATOM     46  H39 LEU d   1      -6.335  10.411  31.233  0.00  0.00     0.028 H 
ATOM     47  H40 LEU d   1      -5.001  11.473  30.667  0.00  0.00     0.028 H 
ATOM     48  H41 LEU d   1      -5.158   9.805  30.020  0.00  0.00     0.028 H 
ENDBRANCH  39  45
ENDBRANCH  36  39
ENDBRANCH  11  36
ENDBRANCH   9  11
ENDBRANCH   5   7
BRANCH   5  49
ATOM     49  CB  ASP d   1     -13.194  10.609  29.791  0.00  0.00     0.043 C 
ATOM     50  H29 ASP d   1     -12.868  11.609  29.470  0.00  0.00     0.052 H 
ATOM     51  H30 ASP d   1     -13.471  10.638  30.855  0.00  0.00     0.052 H 
BRANCH  49  52
ATOM     52  CG  ASP d   1     -14.398  10.233  29.003  0.00  0.00     0.175 C 
ATOM     53  OD1 ASP d   1     -14.373   9.336  28.084  0.00  0.00    -0.648 OA
ATOM     54  OD2 ASP d   1     -15.398  10.873  29.360  0.00  0.00    -0.648 OA
ENDBRANCH  49  52
ENDBRANCH   5  49
ENDBRANCH   3   5
BRANCH   1  55
ATOM     55  CA  ALC d   1     -12.500   6.004  30.548  0.00  0.00     0.089 C 
ATOM     56  H13 ALC d   1     -13.565   6.195  30.748  0.00  0.00     0.087 H 
BRANCH  55  57
ATOM     57  N   ALC d   1     -12.348   4.783  29.710  0.00  0.00    -0.346 N 
ATOM     58  C   GLN d   1     -13.283   4.349  28.853  0.00  0.00     0.241 C 
ATOM     59  O   GLN d   1     -14.330   4.821  28.622  0.00  0.00    -0.271 OA
ATOM     60  H12 ALC d   1     -11.501   4.257  29.791  0.00  0.00     0.163 HD
BRANCH  58  61
ATOM     61  CA  GLN d   1     -12.873   3.100  28.115  0.00  0.00     0.089 C 
ATOM     62  H5  GLN d   1     -11.905   2.796  28.541  0.00  0.00     0.087 H 
BRANCH  61  63
ATOM     63  N   GLN d   1     -13.746   1.957  28.290  0.00  0.00    -0.348 N 
ATOM     64  C   ACE d   1     -14.148   1.368  29.378  0.00  0.00     0.214 C 
ATOM     65  O   ACE d   1     -13.835   1.713  30.502  0.00  0.00    -0.274 OA
ATOM     66  H4  GLN d   1     -14.094   1.558  27.442  0.00  0.00     0.163 HD
BRANCH  64  67
ATOM     67  CH3 ACE d   1     -15.035   0.134  29.141  0.00  0.00    -0.003 C 
ATOM     68  H1  ACE d   1     -15.196   0.000  28.061  0.00  0.00     0.040 H 
ATOM     69  H2  ACE d   1     -16.004   0.278  29.641  0.00  0.00     0.040 H 
ATOM     70  H3  ACE d   1     -14.539  -0.758  29.551  0.00  0.00     0.040 H 
ENDBRANCH  64  67
ENDBRANCH  61  63
BRANCH  61  71
ATOM     71  CB  GLN d   1     -12.617   3.443  26.659  0.00  0.00    -0.030 C 
ATOM     72  H6  GLN d   1     -13.544   3.848  26.228  0.00  0.00     0.037 H 
ATOM     73  H7  GLN d   1     -12.337   2.521  26.128  0.00  0.00     0.037 H 
BRANCH  71  74
ATOM     74  CG  GLN d   1     -11.470   4.502  26.458  0.00  0.00     0.011 C 
ATOM     75  H8  GLN d   1     -11.830   5.455  26.873  0.00  0.00     0.047 H 
ATOM     76  H9  GLN d   1     -11.313   4.610  25.375  0.00  0.00     0.047 H 
BRANCH  74  77
ATOM     77  CD  GLN d   1     -10.087   4.218  27.096  0.00  0.00     0.215 C 
ATOM     78  OE1 GLN d   1      -9.495   4.916  28.005  0.00  0.00    -0.274 OA
ATOM     79  NE2 GLN d   1      -9.514   3.231  26.666  0.00  0.00    -0.370 N 
ATOM     80  H10 GLN d   1      -8.616   2.978  27.026  0.00  0.00     0.159 HD
ATOM     81  H11 GLN d   1      -9.942   2.675  25.954  0.00  0.00     0.159 HD
ENDBRANCH  74  77
ENDBRANCH  71  74
ENDBRANCH  61  71
ENDBRANCH  58  61
ENDBRANCH  55  57
BRANCH  55  82
ATOM     82  CB  ALC d   1     -11.739   5.830  31.889  0.00  0.00    -0.035 C 
ATOM     83  H14 ALC d   1     -11.898   6.720  32.515  0.00  0.00     0.037 H 
ATOM     84  H15 ALC d   1     -10.665   5.713  31.685  0.00  0.00     0.037 H 
BRANCH  82  85
ATOM     85  CG  ALC d   1     -12.265   4.559  32.650  0.00  0.00    -0.052 C 
ATOM     86  CD2 ALC d   1     -11.323   4.206  33.835  0.00  0.00    -0.062 C 
ATOM     87  CE2 ALC d   1     -11.911   3.020  34.514  0.00  0.00    -0.065 C 
ATOM     88  H17 ALC d   1     -11.263   5.052  34.535  0.00  0.00     0.033 H 
ATOM     89  H18 ALC d   1     -10.317   3.967  33.461  0.00  0.00     0.033 H 
ATOM     90  CZ  ALC d   1     -13.067   3.588  35.295  0.00  0.00    -0.065 C 
ATOM     91  H19 ALC d   1     -11.178   2.550  35.186  0.00  0.00     0.033 H 
ATOM     92  H20 ALC d   1     -12.261   2.281  33.778  0.00  0.00     0.033 H 
ATOM     93  CE1 ALC d   1     -14.214   3.964  34.302  0.00  0.00    -0.065 C 
ATOM     94  H21 ALC d   1     -12.739   4.487  35.838  0.00  0.00     0.033 H 
ATOM     95  H22 ALC d   1     -13.431   2.838  36.013  0.00  0.00     0.033 H 
ATOM     96  CD1 ALC d   1     -13.808   4.654  32.962  0.00  0.00    -0.062 C 
ATOM     97  H23 ALC d   1     -14.897   4.646  34.830  0.00  0.00     0.033 H 
ATOM     98  H24 ALC d   1     -14.747   3.036  34.047  0.00  0.00     0.033 H 
ATOM     99  H25 ALC d   1     -14.360   4.173  32.141  0.00  0.00     0.033 H 
ATOM    100  H26 ALC d   1     -14.087   5.716  33.019  0.00  0.00     0.033 H 
ATOM    101  H16 ALC d   1     -12.170   3.719  31.946  0.00  0.00     0.040 H 
ENDBRANCH  82  85
ENDBRANCH  55  82
ENDBRANCH   1  55
TORSDOF 24
