REMARK  14 active torsions:
REMARK  status: ('A' for Active; 'I' for Inactive)
REMARK    1  A    between atoms: C1_1  and  C3_6 
REMARK    2  A    between atoms: O3_7  and  C1_1 
REMARK    3  A    between atoms: C1_1  and  C48_31 
REMARK       I    between atoms: N1_2  and  C9_13 
REMARK    4  A    between atoms: CT3_36  and  N1_2 
REMARK    5  A    between atoms: O2_5  and  C2_4 
REMARK    6  A    between atoms: C9_13  and  O2_5 
REMARK    7  A    between atoms: CT2_35  and  O3_7 
REMARK    8  A    between atoms: C32_15  and  C33_16 
REMARK    9  A    between atoms: C32_15  and  C34_17 
REMARK   10  A    between atoms: N42_25  and  C32_15 
REMARK   11  A    between atoms: C33_16  and  N35_18 
REMARK   12  A    between atoms: C34_17  and  C36_20 
REMARK   13  A    between atoms: N35_18  and  C51_34 
REMARK       I    between atoms: C43_26  and  N42_25 
REMARK       I    between atoms: N45_28  and  C43_26 
REMARK   14  A    between atoms: CT2_35  and  CT3_36 
ROOT
ATOM      1  N42 RX6 d   1      26.775  -9.120 -10.739  0.00  0.00    -0.337 N 
ATOM      2  C43 RX6 d   1      26.456 -10.195 -11.448  0.00  0.00     0.318 C 
ATOM      3  O44 RX6 d   1      26.093 -11.262 -10.893  0.00  0.00    -0.247 OA
ATOM      4  N45 RX6 d   1      26.565 -10.078 -12.775  0.00  0.00    -0.334 N 
ATOM      5  C46 RX6 d   1      27.688 -11.693 -14.188  0.00  0.00    -0.050 C 
ATOM      6  C47 RX6 d   1      28.543 -10.540 -14.690  0.00  0.00    -0.056 C 
ATOM      7  C48 RX6 d   1      28.538  -9.290 -13.757  0.00  0.00    -0.009 C 
ATOM      8  C49 RX6 d   1      27.059  -8.883 -13.476  0.00  0.00     0.005 C 
ATOM      9  C50 RX6 d   1      26.284 -11.189 -13.674  0.00  0.00    -0.001 C 
ATOM     10  H26 RX6 d   1      27.044  -8.289 -11.225  0.00  0.00     0.164 HD
ATOM     11  H27 RX6 d   1      28.213 -12.194 -13.361  0.00  0.00     0.035 H 
ATOM     12  H28 RX6 d   1      27.533 -12.407 -15.010  0.00  0.00     0.035 H 
ATOM     13  H29 RX6 d   1      28.167 -10.235 -15.678  0.00  0.00     0.033 H 
ATOM     14  H30 RX6 d   1      29.580 -10.895 -14.786  0.00  0.00     0.033 H 
ATOM     15  H31 RX6 d   1      29.024  -9.540 -12.803  0.00  0.00     0.046 H 
ATOM     16  H32 RX6 d   1      27.001  -7.988 -12.839  0.00  0.00     0.065 H 
ATOM     17  H33 RX6 d   1      26.505  -8.705 -14.409  0.00  0.00     0.065 H 
ATOM     18  H34 RX6 d   1      25.666 -10.851 -14.519  0.00  0.00     0.064 H 
ATOM     19  H35 RX6 d   1      25.762 -11.994 -13.136  0.00  0.00     0.064 H 
ENDROOT
BRANCH   1  20
ATOM     20  C32 RX6 d   1      26.750  -9.100  -9.305  0.00  0.00     0.037 C 
ATOM     21  H10 RX6 d   1      27.005 -10.101  -8.925  0.00  0.00     0.075 H 
BRANCH  20  22
ATOM     22  C33 RX6 d   1      25.361  -8.749  -8.770  0.00  0.00     0.100 C 
ATOM     23  H11 RX6 d   1      24.722  -9.640  -8.852  0.00  0.00     0.078 H 
ATOM     24  H12 RX6 d   1      24.945  -7.941  -9.389  0.00  0.00     0.078 H 
BRANCH  22  25
ATOM     25  N35 RX6 d   1      25.362  -8.301  -7.351  0.00  0.00    -0.077 N 
ATOM     26  H15 RX6 d   1      24.467  -7.875  -7.167  0.00  0.00     0.276 HD
ATOM     27  H16 RX6 d   1      26.090  -7.611  -7.252  0.00  0.00     0.276 HD
BRANCH  25  28
ATOM     28  C51 RX6 d   1      25.581  -9.318  -6.331  0.00  0.00     0.065 C 
ATOM     29  H36 RX6 d   1      25.557  -8.850  -5.336  0.00  0.00     0.067 H 
ATOM     30  H37 RX6 d   1      26.561  -9.791  -6.490  0.00  0.00     0.067 H 
ATOM     31  H38 RX6 d   1      24.791 -10.080  -6.397  0.00  0.00     0.067 H 
ENDBRANCH  25  28
ENDBRANCH  22  25
ENDBRANCH  20  22
BRANCH  20  32
ATOM     32  C34 RX6 d   1      27.846  -8.134  -8.895  0.00  0.00    -0.039 C 
ATOM     33  H13 RX6 d   1      27.992  -8.219  -7.808  0.00  0.00     0.036 H 
ATOM     34  H14 RX6 d   1      27.517  -7.114  -9.142  0.00  0.00     0.036 H 
BRANCH  32  35
ATOM     35  C36 RX6 d   1      29.196  -8.385  -9.584  0.00  0.00    -0.032 C 
ATOM     36  C37 RX6 d   1      30.206  -7.412  -8.969  0.00  0.00    -0.058 C 
ATOM     37  C38 RX6 d   1      31.623  -7.698  -9.503  0.00  0.00    -0.045 C 
ATOM     38  H18 RX6 d   1      30.201  -7.528  -7.875  0.00  0.00     0.033 H 
ATOM     39  H19 RX6 d   1      29.922  -6.382  -9.230  0.00  0.00     0.033 H 
ATOM     40  C39 RX6 d   1      32.076  -9.172  -9.493  0.00  0.00     0.019 C 
ATOM     41  H20 RX6 d   1      32.334  -7.125  -8.889  0.00  0.00     0.036 H 
ATOM     42  H21 RX6 d   1      31.667  -7.342 -10.543  0.00  0.00     0.036 H 
ATOM     43  O1  RX6 d   1      31.052  -9.912 -10.074  0.00  0.00    -0.391 OA
ATOM     44  H22 RX6 d   1      33.003  -9.287 -10.074  0.00  0.00     0.074 H 
ATOM     45  H23 RX6 d   1      32.247  -9.508  -8.460  0.00  0.00     0.074 H 
ATOM     46  C40 RX6 d   1      29.763  -9.785  -9.393  0.00  0.00     0.023 C 
ATOM     47  H24 RX6 d   1      29.901  -9.977  -8.319  0.00  0.00     0.074 H 
ATOM     48  H25 RX6 d   1      29.059 -10.521  -9.809  0.00  0.00     0.074 H 
ATOM     49  H17 RX6 d   1      29.084  -8.191 -10.661  0.00  0.00     0.043 H 
ENDBRANCH  32  35
ENDBRANCH  20  32
ENDBRANCH   1  20
BRANCH   7  50
ATOM     50  C1  RX6 d   1      29.325  -8.179 -14.432  0.00  0.00     0.069 C 
ATOM     51  H1  RX6 d   1      28.798  -7.830 -15.332  0.00  0.00     0.091 H 
BRANCH  50  52
ATOM     52  C3  RX6 d   1      30.705  -8.584 -14.740  0.00  0.00    -0.027 A 
ATOM     53  C4  RX6 d   1      31.637  -8.865 -13.718  0.00  0.00    -0.053 A 
ATOM     54  C6  RX6 d   1      32.942  -9.179 -14.067  0.00  0.00     0.034 A 
ATOM     55  H6  RX6 d   1      31.337  -8.836 -12.677  0.00  0.00     0.087 H 
ATOM     56  C8  RX6 d   1      33.320  -9.240 -15.404  0.00  0.00    -0.062 A 
ATOM     57 CL28 RX6 d   1      34.162  -9.608 -12.820  0.00  0.00    -0.084 Cl
ATOM     58  C7  RX6 d   1      32.393  -8.956 -16.402  0.00  0.00    -0.081 A 
ATOM     59  H9  RX6 d   1      34.336  -9.509 -15.668  0.00  0.00     0.086 H 
ATOM     60  C5  RX6 d   1      31.088  -8.627 -16.078  0.00  0.00    -0.074 A 
ATOM     61  H8  RX6 d   1      32.695  -8.993 -17.442  0.00  0.00     0.083 H 
ATOM     62  H7  RX6 d   1      30.370  -8.405 -16.859  0.00  0.00     0.084 H 
ENDBRANCH  50  52
BRANCH  50  63
ATOM     63  O3  RX6 d   1      29.518  -7.139 -13.480  0.00  0.00    -0.379 OA
BRANCH  63  64
ATOM     64  CT2 RX6 d   1      29.715  -5.829 -14.010  0.00  0.00     0.035 C 
ATOM     65  H39 RX6 d   1      28.988  -5.609 -14.806  0.00  0.00     0.076 H 
ATOM     66  H40 RX6 d   1      30.736  -5.708 -14.402  0.00  0.00     0.076 H 
BRANCH  64  67
ATOM     67  CT3 RX6 d   1      29.482  -4.931 -12.779  0.00  0.00     0.017 C 
ATOM     68  H41 RX6 d   1      29.896  -5.405 -11.877  0.00  0.00     0.067 H 
ATOM     69  H42 RX6 d   1      29.956  -3.949 -12.928  0.00  0.00     0.067 H 
BRANCH  67  70
ATOM     70  N1  RX6 d   1      28.058  -4.784 -12.656  0.00  0.00    -0.335 N 
ATOM     71  C9  RX6 d   1      27.534  -3.660 -13.058  0.00  0.00     0.360 C 
ATOM     72  O35 RX6 d   1      28.210  -2.753 -13.518  0.00  0.00    -0.239 OA
ATOM     73  H2  RX6 d   1      27.491  -5.515 -12.277  0.00  0.00     0.164 HD
BRANCH  71  74
ATOM     74  O2  RX6 d   1      26.108  -3.527 -12.956  0.00  0.00    -0.309 OA
BRANCH  74  75
ATOM     75  C2  RX6 d   1      25.597  -2.391 -13.653  0.00  0.00     0.015 C 
ATOM     76  H3  RX6 d   1      24.504  -2.349 -13.534  0.00  0.00     0.067 H 
ATOM     77  H4  RX6 d   1      25.847  -2.473 -14.721  0.00  0.00     0.067 H 
ATOM     78  H5  RX6 d   1      26.046  -1.475 -13.241  0.00  0.00     0.067 H 
ENDBRANCH  74  75
ENDBRANCH  71  74
ENDBRANCH  67  70
ENDBRANCH  64  67
ENDBRANCH  63  64
ENDBRANCH  50  63
ENDBRANCH   7  50
TORSDOF 14
