REMARK WARNING: 32 MAX_TORS EXCEEDED!!!
REMARK  39 active torsions:
REMARK  status: ('A' for Active; 'I' for Inactive)
REMARK    1  A    between atoms: N_1  and  CA_2 
REMARK    2  A    between atoms: CA_2  and  C_3 
REMARK       I    between atoms: C_3  and  N_5 
REMARK    3  A    between atoms: N_5  and  CA_6 
REMARK    4  A    between atoms: CA_6  and  C_7 
REMARK    5  A    between atoms: CA_6  and  CB_9 
REMARK       I    between atoms: C_7  and  N_11 
REMARK    6  A    between atoms: CB_9  and  OG_10 
REMARK    7  A    between atoms: N_11  and  CA_12 
REMARK    8  A    between atoms: CA_12  and  C_13 
REMARK    9  A    between atoms: CA_12  and  CB_15 
REMARK       I    between atoms: C_13  and  N_19 
REMARK   10  A    between atoms: CB_15  and  CG1_16 
REMARK   11  A    between atoms: CB_15  and  CG2_17 
REMARK   12  A    between atoms: CG1_16  and  CD1_18 
REMARK   13  A    between atoms: N_19  and  CA_20 
REMARK   14  A    between atoms: CA_20  and  C_21 
REMARK   15  A    between atoms: CA_20  and  CB_23 
REMARK       I    between atoms: C_21  and  N_27 
REMARK   16  A    between atoms: CB_23  and  CG1_24 
REMARK   17  A    between atoms: CB_23  and  CG2_25 
REMARK   18  A    between atoms: CG1_24  and  CD1_26 
REMARK   19  A    between atoms: N_27  and  CA_28 
REMARK   20  A    between atoms: CA_28  and  C_29 
REMARK   21  A    between atoms: CA_28  and  CB_31 
REMARK       I    between atoms: C_29  and  N_38 
REMARK   22  A    between atoms: CB_31  and  CG_32 
REMARK   23  A    between atoms: CG_32  and  CD_33 
REMARK   24  A    between atoms: CD_33  and  NE_34 
REMARK       I    between atoms: NE_34  and  CZ_35 
REMARK       I    between atoms: CZ_35  and  NH1_36 
REMARK   25  A    between atoms: N_38  and  CA_39 
REMARK   26  A    between atoms: CA_39  and  C_40 
REMARK   27  A    between atoms: CA_39  and  CB_42 
REMARK       I    between atoms: C_40  and  N_47 
REMARK   28  A    between atoms: CB_42  and  CG_43 
REMARK   29  A    between atoms: CG_43  and  CD_44 
REMARK   30  A    between atoms: CD_44  and  CE_45 
REMARK   31  A    between atoms: CE_45  and  NZ_46 
REMARK   32  A    between atoms: N_47  and  CA_48 
REMARK   33  A    between atoms: CA_48  and  C_49 
REMARK   34  A    between atoms: CA_48  and  CB_51 
REMARK       I    between atoms: C_49  and  N_61 
REMARK   35  A    between atoms: CB_51  and  CG_52 
REMARK   36  A    between atoms: N_61  and  CA_62 
REMARK   37  A    between atoms: CA_62  and  C_63 
REMARK   38  A    between atoms: CA_62  and  CB_65 
REMARK   39  A    between atoms: CB_65  and  CG_66 
REMARK       I    between atoms: CG_66  and  ND2_68 
ROOT
ATOM      1  CA  ARG d   1      80.150  58.649  39.763  0.00  0.00     0.089 C 
ATOM      2  H34 ARG d   1      81.222  58.779  39.556  0.00  0.00     0.087 H 
ENDROOT
BRANCH   1   3
ATOM      3  N   ARG d   1      79.861  57.255  39.909  0.00  0.00    -0.346 N 
ATOM      4  C   ILE d   1      80.792  56.337  39.771  0.00  0.00     0.241 C 
ATOM      5  O   ILE d   1      81.890  56.561  39.349  0.00  0.00    -0.271 OA
ATOM      6  H33 ARG d   1      78.926  56.972  40.122  0.00  0.00     0.163 HD
BRANCH   4   7
ATOM      7  CA  ILE d   1      80.406  54.945  40.249  0.00  0.00     0.092 C 
ATOM      8  H23 ILE d   1      79.323  54.969  40.441  0.00  0.00     0.088 H 
BRANCH   7   9
ATOM      9  N   ILE d   1      80.631  53.909  39.243  0.00  0.00    -0.346 N 
ATOM     10  C   ILE d   1      79.907  53.811  38.147  0.00  0.00     0.241 C 
ATOM     11  O   ILE d   1      78.872  54.465  37.964  0.00  0.00    -0.271 OA
ATOM     12  H22 ILE d   1      81.365  53.247  39.393  0.00  0.00     0.163 HD
BRANCH  10  13
ATOM     13  CA  ILE d   1      80.500  52.940  37.034  0.00  0.00     0.092 C 
ATOM     14  H12 ILE d   1      81.482  52.600  37.395  0.00  0.00     0.088 H 
BRANCH  13  15
ATOM     15  N   ILE d   1      79.751  51.724  36.702  0.00  0.00    -0.346 N 
ATOM     16  C   SER d   1      80.239  50.512  36.971  0.00  0.00     0.243 C 
ATOM     17  O   SER d   1      81.266  50.333  37.636  0.00  0.00    -0.271 OA
ATOM     18  H11 ILE d   1      78.855  51.805  36.265  0.00  0.00     0.163 HD
BRANCH  16  19
ATOM     19  CA  SER d   1      79.461  49.320  36.413  0.00  0.00     0.109 C 
ATOM     20  H7  SER d   1      78.656  49.688  35.760  0.00  0.00     0.090 H 
BRANCH  19  21
ATOM     21  N   SER d   1      80.367  48.482  35.630  0.00  0.00    -0.344 N 
ATOM     22  C   GLY d   1      80.673  48.748  34.361  0.00  0.00     0.243 C 
ATOM     23  O   GLY d   1      81.482  48.075  33.715  0.00  0.00    -0.272 OA
ATOM     24  H6  SER d   1      80.773  47.678  36.064  0.00  0.00     0.163 HD
BRANCH  22  25
ATOM     25  CA  GLY d   1      79.982  49.946  33.730  0.00  0.00     0.152 C 
ATOM     26  H4  GLY d   1      78.996  49.627  33.360  0.00  0.00     0.090 H 
ATOM     27  H5  GLY d   1      79.852  50.720  34.500  0.00  0.00     0.090 H 
BRANCH  25  28
ATOM     28  N   GLY d   1      80.729  50.517  32.622  0.00  0.00    -0.071 N 
ATOM     29  H1  GLY d   1      80.224  51.304  32.246  0.00  0.00     0.274 HD
ATOM     30  H2  GLY d   1      80.849  49.821  31.903  0.00  0.00     0.274 HD
ATOM     31  H3  GLY d   1      81.632  50.823  32.948  0.00  0.00     0.274 HD
ENDBRANCH  25  28
ENDBRANCH  22  25
ENDBRANCH  19  21
BRANCH  19  32
ATOM     32  CB  SER d   1      78.841  48.512  37.560  0.00  0.00     0.044 C 
ATOM     33  H8  SER d   1      78.022  49.095  38.005  0.00  0.00     0.077 H 
ATOM     34  H9  SER d   1      79.612  48.323  38.321  0.00  0.00     0.077 H 
BRANCH  32  35
ATOM     35  OG  SER d   1      78.327  47.267  37.105  0.00  0.00    -0.398 OA
ATOM     36  H10 SER d   1      77.952  46.794  37.838  0.00  0.00     0.209 HD
ENDBRANCH  32  35
ENDBRANCH  19  32
ENDBRANCH  16  19
ENDBRANCH  13  15
BRANCH  13  37
ATOM     37  CB  ILE d   1      80.750  53.820  35.782  0.00  0.00    -0.030 C 
ATOM     38  H13 ILE d   1      79.776  54.095  35.351  0.00  0.00     0.043 H 
BRANCH  37  39
ATOM     39  CG1 ILE d   1      81.537  53.030  34.728  0.00  0.00    -0.063 C 
ATOM     40  H14 ILE d   1      80.868  52.269  34.300  0.00  0.00     0.033 H 
ATOM     41  H15 ILE d   1      82.381  52.535  35.230  0.00  0.00     0.033 H 
BRANCH  39  42
ATOM     42  CD1 ILE d   1      82.092  53.874  33.584  0.00  0.00    -0.076 C 
ATOM     43  H19 ILE d   1      82.638  53.227  32.882  0.00  0.00     0.027 H 
ATOM     44  H20 ILE d   1      82.776  54.635  33.988  0.00  0.00     0.027 H 
ATOM     45  H21 ILE d   1      81.263  54.369  33.057  0.00  0.00     0.027 H 
ENDBRANCH  39  42
ENDBRANCH  37  39
BRANCH  37  46
ATOM     46  CG2 ILE d   1      81.484  55.109  36.168  0.00  0.00    -0.071 C 
ATOM     47  H16 ILE d   1      80.897  55.653  36.923  0.00  0.00     0.028 H 
ATOM     48  H17 ILE d   1      81.609  55.741  35.276  0.00  0.00     0.028 H 
ATOM     49  H18 ILE d   1      82.472  54.859  36.582  0.00  0.00     0.028 H 
ENDBRANCH  37  46
ENDBRANCH  13  37
ENDBRANCH  10  13
ENDBRANCH   7   9
BRANCH   7  50
ATOM     50  CB  ILE d   1      81.093  54.580  41.587  0.00  0.00    -0.030 C 
ATOM     51  H24 ILE d   1      82.183  54.650  41.456  0.00  0.00     0.043 H 
BRANCH  50  52
ATOM     52  CG1 ILE d   1      80.713  53.168  41.980  0.00  0.00    -0.063 C 
ATOM     53  H25 ILE d   1      81.576  52.697  42.474  0.00  0.00     0.033 H 
ATOM     54  H26 ILE d   1      80.460  52.606  41.069  0.00  0.00     0.033 H 
BRANCH  52  55
ATOM     55  CD1 ILE d   1      79.585  53.118  42.879  0.00  0.00    -0.076 C 
ATOM     56  H30 ILE d   1      79.359  52.070  43.126  0.00  0.00     0.027 H 
ATOM     57  H31 ILE d   1      78.710  53.577  42.396  0.00  0.00     0.027 H 
ATOM     58  H32 ILE d   1      79.826  53.668  43.800  0.00  0.00     0.027 H 
ENDBRANCH  52  55
ENDBRANCH  50  52
BRANCH  50  59
ATOM     59  CG2 ILE d   1      80.673  55.480  42.708  0.00  0.00    -0.071 C 
ATOM     60  H27 ILE d   1      80.933  56.520  42.460  0.00  0.00     0.028 H 
ATOM     61  H28 ILE d   1      81.192  55.182  43.631  0.00  0.00     0.028 H 
ATOM     62  H29 ILE d   1      79.586  55.399  42.856  0.00  0.00     0.028 H 
ENDBRANCH  50  59
ENDBRANCH   7  50
ENDBRANCH   4   7
ENDBRANCH   1   3
BRANCH   1  63
ATOM     63  C   ARG d   1      79.814  59.381  41.028  0.00  0.00     0.241 C 
ATOM     64  O   ARG d   1      78.693  59.381  41.440  0.00  0.00    -0.271 OA
ATOM     65  N   LYS d   1      80.813  60.005  41.634  0.00  0.00    -0.346 N 
ATOM     66  H46 LYS d   1      81.743  59.686  41.450  0.00  0.00     0.163 HD
BRANCH  65  67
ATOM     67  CA  LYS d   1      80.648  61.122  42.548  0.00  0.00     0.089 C 
ATOM     68  H47 LYS d   1      79.757  60.917  43.160  0.00  0.00     0.087 H 
BRANCH  67  69
ATOM     69  C   LYS d   1      80.397  62.463  41.842  0.00  0.00     0.241 C 
ATOM     70  O   LYS d   1      80.656  62.579  40.673  0.00  0.00    -0.271 OA
ATOM     71  N   TRP d   1      79.791  63.431  42.520  0.00  0.00    -0.346 N 
ATOM     72  H59 TRP d   1      78.796  63.373  42.597  0.00  0.00     0.163 HD
BRANCH  71  73
ATOM     73  CA  TRP d   1      80.439  64.579  43.168  0.00  0.00     0.093 C 
ATOM     74  H60 TRP d   1      81.178  64.202  43.891  0.00  0.00     0.088 H 
BRANCH  73  75
ATOM     75  C   TRP d   1      79.327  65.301  43.880  0.00  0.00     0.241 C 
ATOM     76  O   TRP d   1      78.365  64.705  44.252  0.00  0.00    -0.271 OA
ATOM     77  N   ASN d   1      79.464  66.602  44.081  0.00  0.00    -0.344 N 
ATOM     78  H69 ASN d   1      80.335  67.013  44.350  0.00  0.00     0.163 HD
BRANCH  77  79
ATOM     79  CA  ASN d   1      78.267  67.386  43.885  0.00  0.00     0.104 C 
ATOM     80  H70 ASN d   1      78.225  67.664  42.822  0.00  0.00     0.090 H 
BRANCH  79  81
ATOM     81  C   ASN d   1      78.241  68.655  44.689  0.00  0.00     0.197 C 
ATOM     82  O   ASN d   1      78.280  69.776  44.116  0.00  0.00    -0.646 OA
ATOM     83  O   ASN d   1      78.180  68.597  45.946  0.00  0.00    -0.646 OA
ENDBRANCH  79  81
BRANCH  79  84
ATOM     84  CB  ASN d   1      77.050  66.570  44.208  0.00  0.00     0.037 C 
ATOM     85  H71 ASN d   1      76.910  66.553  45.299  0.00  0.00     0.051 H 
ATOM     86  H72 ASN d   1      77.200  65.544  43.841  0.00  0.00     0.051 H 
BRANCH  84  87
ATOM     87  CG  ASN d   1      75.842  67.131  43.580  0.00  0.00     0.217 C 
ATOM     88  OD1 ASN d   1      74.966  66.415  43.151  0.00  0.00    -0.274 OA
ATOM     89  ND2 ASN d   1      75.796  68.430  43.491  0.00  0.00    -0.370 N 
ATOM     90  H73 ASN d   1      75.003  68.875  43.075  0.00  0.00     0.159 HD
ATOM     91  H74 ASN d   1      76.554  68.982  43.839  0.00  0.00     0.159 HD
ENDBRANCH  84  87
ENDBRANCH  79  84
ENDBRANCH  77  79
ENDBRANCH  73  75
BRANCH  73  92
ATOM     92  CB  TRP d   1      81.143  65.591  42.252  0.00  0.00    -0.012 C 
ATOM     93  H61 TRP d   1      82.219  65.371  42.312  0.00  0.00     0.044 H 
ATOM     94  H62 TRP d   1      80.948  66.586  42.678  0.00  0.00     0.044 H 
BRANCH  92  95
ATOM     95  CG  TRP d   1      80.803  65.679  40.780  0.00  0.00    -0.028 A 
ATOM     96  CD1 TRP d   1      81.130  64.786  39.814  0.00  0.00    -0.015 A 
ATOM     97  NE1 TRP d   1      80.698  65.222  38.594  0.00  0.00    -0.365 N 
ATOM     98  H63 TRP d   1      81.662  63.852  39.987  0.00  0.00     0.112 H 
ATOM     99  CE2 TRP d   1      80.104  66.444  38.747  0.00  0.00     0.042 A 
ATOM    100  H64 TRP d   1      80.802  64.714  37.704  0.00  0.00     0.165 HD
ATOM    101  CD2 TRP d   1      80.159  66.770  40.105  0.00  0.00    -0.002 A 
ATOM    102  CZ2 TRP d   1      79.519  67.285  37.803  0.00  0.00    -0.056 A 
ATOM    103  CE3 TRP d   1      79.618  67.985  40.523  0.00  0.00    -0.070 A 
ATOM    104  CZ3 TRP d   1      79.042  68.805  39.599  0.00  0.00    -0.082 A 
ATOM    105  H65 TRP d   1      79.655  68.273  41.567  0.00  0.00     0.084 H 
ATOM    106  CH2 TRP d   1      78.992  68.458  38.256  0.00  0.00    -0.081 A 
ATOM    107  H67 TRP d   1      78.614  69.748  39.920  0.00  0.00     0.083 H 
ATOM    108  H68 TRP d   1      78.523  69.135  37.551  0.00  0.00     0.083 H 
ATOM    109  H66 TRP d   1      79.484  67.018  36.753  0.00  0.00     0.086 H 
ENDBRANCH  92  95
ENDBRANCH  73  92
ENDBRANCH  71  73
ENDBRANCH  67  69
BRANCH  67 110
ATOM    110  CB  LYS d   1      81.847  61.166  43.481  0.00  0.00    -0.038 C 
ATOM    111  H48 LYS d   1      81.524  61.607  44.435  0.00  0.00     0.036 H 
ATOM    112  H49 LYS d   1      82.615  61.806  43.023  0.00  0.00     0.036 H 
BRANCH 110 113
ATOM    113  CG  LYS d   1      82.466  59.819  43.770  0.00  0.00    -0.061 C 
ATOM    114  H50 LYS d   1      83.224  59.603  43.002  0.00  0.00     0.033 H 
ATOM    115  H51 LYS d   1      81.680  59.050  43.736  0.00  0.00     0.033 H 
BRANCH 113 116
ATOM    116  CD  LYS d   1      83.122  59.787  45.127  0.00  0.00    -0.043 C 
ATOM    117  H52 LYS d   1      82.423  60.199  45.870  0.00  0.00     0.035 H 
ATOM    118  H53 LYS d   1      84.031  60.405  45.097  0.00  0.00     0.035 H 
BRANCH 116 119
ATOM    119  CE  LYS d   1      83.496  58.397  45.535  0.00  0.00     0.080 C 
ATOM    120  H54 LYS d   1      84.537  58.216  45.230  0.00  0.00     0.075 H 
ATOM    121  H55 LYS d   1      82.833  57.693  45.011  0.00  0.00     0.075 H 
BRANCH 119 122
ATOM    122  NZ  LYS d   1      83.388  58.142  46.985  0.00  0.00    -0.079 N 
ATOM    123  H56 LYS d   1      83.655  57.190  47.179  0.00  0.00     0.274 HD
ATOM    124  H57 LYS d   1      82.437  58.291  47.282  0.00  0.00     0.274 HD
ATOM    125  H58 LYS d   1      83.999  58.771  47.483  0.00  0.00     0.274 HD
ENDBRANCH 119 122
ENDBRANCH 116 119
ENDBRANCH 113 116
ENDBRANCH 110 113
ENDBRANCH  67 110
ENDBRANCH  65  67
ENDBRANCH   1  63
BRANCH   1 126
ATOM    126  CB  ARG d   1      79.355  59.173  38.591  0.00  0.00    -0.036 C 
ATOM    127  H35 ARG d   1      79.482  60.264  38.533  0.00  0.00     0.036 H 
ATOM    128  H36 ARG d   1      78.292  58.935  38.745  0.00  0.00     0.036 H 
BRANCH 126 129
ATOM    129  CG  ARG d   1      79.807  58.562  37.303  0.00  0.00    -0.048 C 
ATOM    130  H37 ARG d   1      79.918  57.476  37.441  0.00  0.00     0.035 H 
ATOM    131  H38 ARG d   1      80.777  58.997  37.021  0.00  0.00     0.035 H 
BRANCH 129 132
ATOM    132  CD  ARG d   1      78.836  58.812  36.223  0.00  0.00     0.009 C 
ATOM    133  H39 ARG d   1      79.049  58.134  35.383  0.00  0.00     0.064 H 
ATOM    134  H40 ARG d   1      78.932  59.855  35.886  0.00  0.00     0.064 H 
BRANCH 132 135
ATOM    135  NE  ARG d   1      77.489  58.586  36.683  0.00  0.00    -0.227 N 
ATOM    136  CZ  ARG d   1      76.555  59.499  36.636  0.00  0.00     0.665 C 
ATOM    137  NH1 ARG d   1      76.844  60.669  36.160  0.00  0.00    -0.235 N 
ATOM    138  NH2 ARG d   1      75.349  59.254  37.072  0.00  0.00    -0.235 N 
ATOM    139  H42 ARG d   1      76.120  61.400  36.116  0.00  0.00     0.174 HD
ATOM    140  H43 ARG d   1      77.798  60.868  35.826  0.00  0.00     0.174 HD
ATOM    141  H44 ARG d   1      75.117  58.325  37.451  0.00  0.00     0.174 HD
ATOM    142  H45 ARG d   1      74.629  59.990  37.037  0.00  0.00     0.174 HD
ATOM    143  H41 ARG d   1      77.251  57.660  37.067  0.00  0.00     0.177 HD
ENDBRANCH 132 135
ENDBRANCH 129 132
ENDBRANCH 126 129
ENDBRANCH   1 126
TORSDOF 39
