REMARK  4 active torsions:
REMARK  status: ('A' for Active; 'I' for Inactive)
REMARK    1  A    between atoms: OH_1  and  CZ3_2 
REMARK    2  A    between atoms: CG_8  and  CB_11 
REMARK    3  A    between atoms: CB_11  and  CA_12 
REMARK    4  A    between atoms: CA_12  and  NZ_13 
ROOT
ATOM      1  CZ3 SRO d   1      38.174  13.324 -26.894  0.00  0.00     0.066 A 
ATOM      2  CH2 SRO d   1      37.070  14.181 -27.086  0.00  0.00    -0.049 A 
ATOM      3  CZ2 SRO d   1      36.582  14.905 -25.991  0.00  0.00    -0.054 A 
ATOM      4  CE2 SRO d   1      37.228  14.718 -24.755  0.00  0.00     0.043 A 
ATOM      5  NE1 SRO d   1      37.046  15.216 -23.499  0.00  0.00    -0.365 N 
ATOM      6  CD1 SRO d   1      37.973  14.699 -22.641  0.00  0.00    -0.015 A 
ATOM      7  CG  SRO d   1      38.786  13.831 -23.354  0.00  0.00    -0.029 A 
ATOM      8  CD2 SRO d   1      38.316  13.839 -24.683  0.00  0.00     0.001 A 
ATOM      9  CE3 SRO d   1      38.752  13.175 -25.728  0.00  0.00    -0.038 A 
ATOM     10  H   SRO d   1      36.606  14.278 -28.067  0.00  0.00     0.087 H 
ATOM     11  H   SRO d   1      35.736  15.585 -26.092  0.00  0.00     0.087 H 
ATOM     12  H   SRO d   1      36.319  15.882 -23.237  0.00  0.00     0.165 HD
ATOM     13  H   SRO d   1      38.059  14.929 -21.579  0.00  0.00     0.112 H 
ATOM     14  H   SRO d   1      39.599  12.496 -25.625  0.00  0.00     0.089 H 
ENDROOT
BRANCH   7  15
ATOM     15  CB  SRO d   1      39.925  13.051 -22.747  0.00  0.00    -0.017 C 
ATOM     16  H   SRO d   1      39.811  11.996 -22.996  0.00  0.00     0.042 H 
ATOM     17  H   SRO d   1      39.913  13.181 -21.665  0.00  0.00     0.042 H 
BRANCH  15  18
ATOM     18  CA  SRO d   1      41.251  13.555 -23.297  0.00  0.00     0.083 C 
ATOM     19  H   SRO d   1      41.750  14.154 -22.535  0.00  0.00     0.075 H 
ATOM     20  H   SRO d   1      41.064  14.159 -24.185  0.00  0.00     0.075 H 
BRANCH  18  21
ATOM     21  NZ  SRO d   1      42.097  12.439 -23.652  0.00  0.00    -0.079 N 
ATOM     22  H   SRO d   1      42.982  12.788 -24.019  0.00  0.00     0.274 HD
ATOM     23  H   SRO d   1      42.272  11.870 -22.824  0.00  0.00     0.274 HD
ATOM     24  H   SRO d   1      41.632  11.874 -24.363  0.00  0.00     0.274 HD
ENDBRANCH  18  21
ENDBRANCH  15  18
ENDBRANCH   7  15
BRANCH   1  25
ATOM     25  OH  SRO d   1      38.640  12.635 -27.967  0.00  0.00    -0.361 OA
ATOM     26  H   SRO d   1      39.387  12.095 -27.699  0.00  0.00     0.217 HD
ENDBRANCH   1  25
TORSDOF 4
