REMARK WARNING: 32 MAX_TORS EXCEEDED!!!
REMARK  81 active torsions:
REMARK  status: ('A' for Active; 'I' for Inactive)
REMARK    1  A    between atoms: N_1  and  CA_2 
REMARK    2  A    between atoms: CA_2  and  C_3 
REMARK    3  A    between atoms: CA_2  and  CB_5 
REMARK       I    between atoms: C_3  and  N_8 
REMARK    4  A    between atoms: CB_5  and  OG1_6 
REMARK    5  A    between atoms: CB_5  and  CG2_7 
REMARK    6  A    between atoms: N_8  and  CA_9 
REMARK    7  A    between atoms: CA_9  and  C_10 
REMARK    8  A    between atoms: CA_9  and  CB_12 
REMARK       I    between atoms: C_10  and  N_16 
REMARK    9  A    between atoms: CB_12  and  CG_13 
REMARK       I    between atoms: CG_13  and  ND2_15 
REMARK   10  A    between atoms: N_16  and  CA_17 
REMARK   11  A    between atoms: CA_17  and  C_18 
REMARK   12  A    between atoms: CA_17  and  CB_20 
REMARK       I    between atoms: C_18  and  N_23 
REMARK   13  A    between atoms: CB_20  and  CG1_21 
REMARK   14  A    between atoms: CB_20  and  CG2_22 
REMARK   15  A    between atoms: N_23  and  CA_24 
REMARK   16  A    between atoms: CA_24  and  C_25 
REMARK   17  A    between atoms: CA_24  and  CB_27 
REMARK       I    between atoms: C_25  and  N_29 
REMARK   18  A    between atoms: CB_27  and  OG_28 
REMARK   19  A    between atoms: N_29  and  CA_30 
REMARK   20  A    between atoms: CA_30  and  C_31 
REMARK   21  A    between atoms: CA_30  and  CB_33 
REMARK       I    between atoms: C_31  and  N_37 
REMARK   22  A    between atoms: CB_33  and  CG_34 
REMARK   23  A    between atoms: CG_34  and  CD1_35 
REMARK   24  A    between atoms: CG_34  and  CD2_36 
REMARK   25  A    between atoms: N_37  and  CA_38 
REMARK   26  A    between atoms: CA_38  and  C_39 
REMARK   27  A    between atoms: CA_38  and  CB_41 
REMARK       I    between atoms: C_39  and  N_49 
REMARK   28  A    between atoms: CB_41  and  CG_42 
REMARK   29  A    between atoms: CZ_47  and  OH_48 
REMARK   30  A    between atoms: CA_50  and  C_51 
REMARK       I    between atoms: C_51  and  N_56 
REMARK   31  A    between atoms: N_56  and  CA_57 
REMARK   32  A    between atoms: CA_57  and  C_58 
REMARK   33  A    between atoms: CA_57  and  CB_60 
REMARK       I    between atoms: C_58  and  N_63 
REMARK   34  A    between atoms: CB_60  and  CG1_61 
REMARK   35  A    between atoms: CB_60  and  CG2_62 
REMARK   36  A    between atoms: N_63  and  CA_64 
REMARK   37  A    between atoms: CA_64  and  C_65 
REMARK   38  A    between atoms: CA_64  and  CB_67 
REMARK       I    between atoms: C_65  and  N_70 
REMARK   39  A    between atoms: CB_67  and  CG1_68 
REMARK   40  A    between atoms: CB_67  and  CG2_69 
REMARK   41  A    between atoms: N_70  and  CA_71 
REMARK   42  A    between atoms: CA_71  and  C_72 
REMARK   43  A    between atoms: CA_71  and  CB_74 
REMARK       I    between atoms: C_72  and  N_79 
REMARK   44  A    between atoms: CB_74  and  CG_75 
REMARK   45  A    between atoms: CG_75  and  CD_76 
REMARK   46  A    between atoms: CD_76  and  CE_77 
REMARK   47  A    between atoms: CE_77  and  NZ_78 
REMARK   48  A    between atoms: N_79  and  CA_80 
REMARK   49  A    between atoms: CA_80  and  C_81 
REMARK   50  A    between atoms: CA_80  and  CB_83 
REMARK       I    between atoms: C_81  and  N_87 
REMARK   51  A    between atoms: CB_83  and  CG1_84 
REMARK   52  A    between atoms: CB_83  and  CG2_85 
REMARK   53  A    between atoms: CG1_84  and  CD1_86 
REMARK   54  A    between atoms: N_87  and  CA_88 
REMARK   55  A    between atoms: CA_88  and  C_89 
REMARK   56  A    between atoms: CA_88  and  CB_91 
REMARK       I    between atoms: C_89  and  N_98 
REMARK   57  A    between atoms: CB_91  and  CG_92 
REMARK   58  A    between atoms: CG_92  and  CD_93 
REMARK   59  A    between atoms: CD_93  and  NE_94 
REMARK       I    between atoms: NE_94  and  CZ_95 
REMARK       I    between atoms: CZ_95  and  NH1_96 
REMARK       I    between atoms: CZ_95  and  NH2_97 
REMARK   60  A    between atoms: N_98  and  CA_99 
REMARK   61  A    between atoms: CA_99  and  C_100 
REMARK   62  A    between atoms: CA_99  and  CB_102 
REMARK       I    between atoms: C_100  and  N_109 
REMARK   63  A    between atoms: CB_102  and  CG_103 
REMARK   64  A    between atoms: CG_103  and  CD_104 
REMARK   65  A    between atoms: CD_104  and  NE_105 
REMARK       I    between atoms: NE_105  and  CZ_106 
REMARK       I    between atoms: CZ_106  and  NH1_107 
REMARK       I    between atoms: CZ_106  and  NH2_108 
REMARK   66  A    between atoms: N_109  and  CA_110 
REMARK   67  A    between atoms: CA_110  and  C_111 
REMARK   68  A    between atoms: CA_110  and  CB_113 
REMARK       I    between atoms: C_111  and  N_117 
REMARK   69  A    between atoms: CB_113  and  CG_114 
REMARK   70  A    between atoms: CG_114  and  CD1_115 
REMARK   71  A    between atoms: CG_114  and  CD2_116 
REMARK   72  A    between atoms: N_117  and  CA_118 
REMARK   73  A    between atoms: CA_118  and  C_119 
REMARK   74  A    between atoms: CA_118  and  CB_121 
REMARK       I    between atoms: C_119  and  N_123 
REMARK   75  A    between atoms: CB_121  and  OG_122 
REMARK   76  A    between atoms: N_123  and  CA_124 
REMARK   77  A    between atoms: CA_124  and  C_125 
REMARK   78  A    between atoms: CA_124  and  CB_127 
REMARK   79  A    between atoms: CB_127  and  CG_128 
REMARK   80  A    between atoms: CG_128  and  CD1_129 
REMARK   81  A    between atoms: CG_128  and  CD2_130 
ROOT
ATOM      1  CA  VAL d   1      -5.579  20.993  22.420  0.00  0.00     0.092 C 
ATOM      2  H   VAL d   1      -6.169  20.683  21.558  0.00  0.00     0.088 H 
ENDROOT
BRANCH   1   3
ATOM      3  N   VAL d   1      -4.564  21.927  21.971  0.00  0.00    -0.346 N 
ATOM      4  C   VAL d   1      -4.586  22.389  20.731  0.00  0.00     0.241 C 
ATOM      5  O   VAL d   1      -5.386  21.973  19.892  0.00  0.00    -0.271 OA
ATOM      6  H   VAL d   1      -3.831  22.229  22.613  0.00  0.00     0.163 HD
BRANCH   4   7
ATOM      7  CA  VAL d   1      -3.563  23.454  20.362  0.00  0.00     0.092 C 
ATOM      8  H   VAL d   1      -2.679  23.378  20.996  0.00  0.00     0.088 H 
BRANCH   7   9
ATOM      9  N   VAL d   1      -3.221  23.246  18.972  0.00  0.00    -0.346 N 
ATOM     10  C   PRO d   1      -1.974  23.327  18.519  0.00  0.00     0.241 C 
ATOM     11  O   PRO d   1      -0.987  23.560  19.250  0.00  0.00    -0.271 OA
ATOM     12  H   VAL d   1      -3.968  23.028  18.312  0.00  0.00     0.163 HD
BRANCH  10  13
ATOM     13  CA  PRO d   1      -1.826  23.065  17.005  0.00  0.00     0.091 C 
ATOM     14  N   PRO d   1      -0.889  23.997  16.374  0.00  0.00    -0.337 N 
ATOM     15  C   TYR d   1      -1.178  25.273  16.120  0.00  0.00     0.243 C 
ATOM     16  CD  PRO d   1       0.382  23.334  15.990  0.00  0.00    -0.001 C 
ATOM     17  O   TYR d   1      -2.271  25.787  16.402  0.00  0.00    -0.271 OA
ATOM     18  CG  PRO d   1       0.296  21.979  16.647  0.00  0.00    -0.048 C 
ATOM     19  H   PRO d   1       1.257  23.897  16.314  0.00  0.00     0.064 H 
ATOM     20  H   PRO d   1       0.502  23.263  14.909  0.00  0.00     0.064 H 
ATOM     21  CB  PRO d   1      -1.184  21.693  16.757  0.00  0.00    -0.036 C 
ATOM     22  H   PRO d   1       0.814  21.215  16.067  0.00  0.00     0.035 H 
ATOM     23  H   PRO d   1       0.783  21.970  17.622  0.00  0.00     0.035 H 
ATOM     24  H   PRO d   1      -1.575  21.217  15.858  0.00  0.00     0.036 H 
ATOM     25  H   PRO d   1      -1.405  20.989  17.559  0.00  0.00     0.036 H 
ATOM     26  H   PRO d   1      -2.833  23.157  16.599  0.00  0.00     0.087 H 
BRANCH  15  27
ATOM     27  CA  TYR d   1      -0.116  26.084  15.376  0.00  0.00     0.093 C 
ATOM     28  H   TYR d   1       0.518  25.375  14.843  0.00  0.00     0.088 H 
BRANCH  27  29
ATOM     29  N   TYR d   1      -0.756  26.982  14.431  0.00  0.00    -0.346 N 
ATOM     30  C   LEU d   1      -0.292  27.107  13.187  0.00  0.00     0.241 C 
ATOM     31  O   LEU d   1       0.737  26.524  12.776  0.00  0.00    -0.271 OA
ATOM     32  H   TYR d   1      -1.570  27.523  14.722  0.00  0.00     0.163 HD
BRANCH  30  33
ATOM     33  CA  LEU d   1      -1.097  27.993  12.248  0.00  0.00     0.089 C 
ATOM     34  H   LEU d   1      -1.629  28.755  12.818  0.00  0.00     0.087 H 
BRANCH  33  35
ATOM     35  N   LEU d   1      -0.210  28.698  11.308  0.00  0.00    -0.346 N 
ATOM     36  C   SER d   1       0.084  30.001  11.447  0.00  0.00     0.243 C 
ATOM     37  O   SER d   1      -0.370  30.699  12.353  0.00  0.00    -0.271 OA
ATOM     38  H   LEU d   1       0.194  28.181  10.527  0.00  0.00     0.163 HD
BRANCH  36  39
ATOM     39  CA  SER d   1       0.968  30.652  10.378  0.00  0.00     0.109 C 
ATOM     40  H   SER d   1       1.092  29.962   9.543  0.00  0.00     0.090 H 
BRANCH  39  41
ATOM     41  N   SER d   1       0.308  31.890  10.029  0.00  0.00    -0.344 N 
ATOM     42  C   VAL d   1       0.100  32.234   8.774  0.00  0.00     0.241 C 
ATOM     43  O   VAL d   1       0.475  31.537   7.818  0.00  0.00    -0.271 OA
ATOM     44  H   SER d   1      -0.005  32.513  10.773  0.00  0.00     0.163 HD
BRANCH  42  45
ATOM     45  CA  VAL d   1      -0.664  33.546   8.575  0.00  0.00     0.092 C 
ATOM     46  H   VAL d   1      -0.276  34.276   9.285  0.00  0.00     0.088 H 
BRANCH  45  47
ATOM     47  N   VAL d   1      -0.437  34.135   7.246  0.00  0.00    -0.346 N 
ATOM     48  C   ASN d   1      -0.008  35.390   7.133  0.00  0.00     0.241 C 
ATOM     49  O   ASN d   1       0.250  36.102   8.113  0.00  0.00    -0.271 OA
ATOM     50  H   VAL d   1      -0.609  33.580   6.408  0.00  0.00     0.163 HD
BRANCH  48  51
ATOM     51  CA  ASN d   1       0.155  35.933   5.716  0.00  0.00     0.097 C 
ATOM     52  H   ASN d   1      -0.230  35.221   4.986  0.00  0.00     0.088 H 
BRANCH  51  53
ATOM     53  N   ASN d   1      -0.582  37.176   5.628  0.00  0.00    -0.345 N 
ATOM     54  C   THR d   1      -1.901  37.161   5.494  0.00  0.00     0.251 C 
ATOM     55  O   THR d   1      -2.540  36.123   5.373  0.00  0.00    -0.271 OA
ATOM     56  H   ASN d   1      -0.085  38.066   5.669  0.00  0.00     0.163 HD
BRANCH  54  57
ATOM     57  CA  THR d   1      -2.598  38.499   5.469  0.00  0.00     0.199 C 
ATOM     58  H   THR d   1      -1.878  39.314   5.545  0.00  0.00     0.103 H 
BRANCH  57  59
ATOM     59  N   THR d   1      -3.315  38.633   4.216  0.00  0.00    -0.064 N 
ATOM     60  H   THR d   1      -2.655  38.581   3.441  0.00  0.00     0.275 HD
ATOM     61  H   THR d   1      -3.998  37.879   4.134  0.00  0.00     0.275 HD
ATOM     62  H   THR d   1      -3.796  39.532   4.195  0.00  0.00     0.275 HD
ENDBRANCH  57  59
BRANCH  57  63
ATOM     63  CB  THR d   1      -3.558  38.572   6.660  0.00  0.00     0.068 C 
ATOM     64  H   THR d   1      -4.251  37.732   6.605  0.00  0.00     0.086 H 
BRANCH  63  65
ATOM     65  OG1 THR d   1      -4.275  39.806   6.609  0.00  0.00    -0.393 OA
ATOM     66  H   THR d   1      -4.878  39.855   7.354  0.00  0.00     0.210 HD
ENDBRANCH  63  65
BRANCH  63  67
ATOM     67  CG2 THR d   1      -2.795  38.486   7.972  0.00  0.00    -0.050 C 
ATOM     68  H   THR d   1      -2.094  39.318   8.039  0.00  0.00     0.031 H 
ATOM     69  H   THR d   1      -3.498  38.534   8.803  0.00  0.00     0.031 H 
ATOM     70  H   THR d   1      -2.248  37.544   8.011  0.00  0.00     0.031 H 
ENDBRANCH  63  67
ENDBRANCH  57  63
ENDBRANCH  54  57
ENDBRANCH  51  53
BRANCH  51  71
ATOM     71  CB  ASN d   1       1.631  36.161   5.414  0.00  0.00     0.036 C 
ATOM     72  H   ASN d   1       2.026  36.849   6.162  0.00  0.00     0.051 H 
ATOM     73  H   ASN d   1       1.711  36.558   4.402  0.00  0.00     0.051 H 
BRANCH  71  74
ATOM     74  CG  ASN d   1       2.444  34.870   5.482  0.00  0.00     0.217 C 
ATOM     75  OD1 ASN d   1       3.044  34.547   6.511  0.00  0.00    -0.274 OA
ATOM     76  ND2 ASN d   1       2.461  34.128   4.384  0.00  0.00    -0.370 N 
ATOM     77  H   ASN d   1       2.984  33.253   4.368  0.00  0.00     0.159 HD
ATOM     78  H   ASN d   1       1.951  34.432   3.555  0.00  0.00     0.159 HD
ENDBRANCH  71  74
ENDBRANCH  51  71
ENDBRANCH  48  51
ENDBRANCH  45  47
BRANCH  45  79
ATOM     79  CB  VAL d   1      -2.169  33.325   8.871  0.00  0.00    -0.033 C 
ATOM     80  H   VAL d   1      -2.247  32.901   9.872  0.00  0.00     0.042 H 
BRANCH  79  81
ATOM     81  CG1 VAL d   1      -2.926  34.651   8.843  0.00  0.00    -0.071 C 
ATOM     82  H   VAL d   1      -2.513  35.320   9.598  0.00  0.00     0.028 H 
ATOM     83  H   VAL d   1      -2.824  35.106   7.858  0.00  0.00     0.028 H 
ATOM     84  H   VAL d   1      -3.980  34.471   9.053  0.00  0.00     0.028 H 
ENDBRANCH  79  81
BRANCH  79  85
ATOM     85  CG2 VAL d   1      -2.795  32.329   7.893  0.00  0.00    -0.071 C 
ATOM     86  H   VAL d   1      -2.696  32.709   6.876  0.00  0.00     0.028 H 
ATOM     87  H   VAL d   1      -2.283  31.370   7.975  0.00  0.00     0.028 H 
ATOM     88  H   VAL d   1      -3.850  32.201   8.133  0.00  0.00     0.028 H 
ENDBRANCH  79  85
ENDBRANCH  45  79
ENDBRANCH  42  45
ENDBRANCH  39  41
BRANCH  39  89
ATOM     89  CB  SER d   1       2.380  30.994  10.893  0.00  0.00     0.044 C 
ATOM     90  H   SER d   1       2.281  31.638  11.767  0.00  0.00     0.077 H 
ATOM     91  H   SER d   1       2.929  31.487  10.091  0.00  0.00     0.077 H 
BRANCH  89  92
ATOM     92  OG  SER d   1       3.092  29.832  11.273  0.00  0.00    -0.398 OA
ATOM     93  H   SER d   1       3.964  30.081  11.588  0.00  0.00     0.209 HD
ENDBRANCH  89  92
ENDBRANCH  39  89
ENDBRANCH  36  39
ENDBRANCH  33  35
BRANCH  33  94
ATOM     94  CB  LEU d   1      -2.104  27.115  11.505  0.00  0.00    -0.035 C 
ATOM     95  H   LEU d   1      -2.785  26.755  12.276  0.00  0.00     0.037 H 
ATOM     96  H   LEU d   1      -1.497  26.395  10.957  0.00  0.00     0.037 H 
BRANCH  94  97
ATOM     97  CG  LEU d   1      -3.003  27.749  10.454  0.00  0.00    -0.059 C 
ATOM     98  H   LEU d   1      -2.394  28.120   9.630  0.00  0.00     0.038 H 
BRANCH  97  99
ATOM     99  CD1 LEU d   1      -3.974  26.710   9.908  0.00  0.00    -0.073 C 
ATOM    100  H   LEU d   1      -3.413  25.892   9.456  0.00  0.00     0.028 H 
ATOM    101  H   LEU d   1      -4.588  26.325  10.722  0.00  0.00     0.028 H 
ATOM    102  H   LEU d   1      -4.614  27.172   9.156  0.00  0.00     0.028 H 
ENDBRANCH  97  99
BRANCH  97 103
ATOM    103  CD2 LEU d   1      -3.748  28.894  11.059  0.00  0.00    -0.073 C 
ATOM    104  H   LEU d   1      -4.357  28.532  11.888  0.00  0.00     0.028 H 
ATOM    105  H   LEU d   1      -3.038  29.635  11.425  0.00  0.00     0.028 H 
ATOM    106  H   LEU d   1      -4.391  29.347  10.304  0.00  0.00     0.028 H 
ENDBRANCH  97 103
ENDBRANCH  94  97
ENDBRANCH  33  94
ENDBRANCH  30  33
ENDBRANCH  27  29
BRANCH  27 107
ATOM    107  CB  TYR d   1       0.795  26.866  16.315  0.00  0.00    -0.014 C 
ATOM    108  H   TYR d   1       1.536  27.377  15.700  0.00  0.00     0.043 H 
ATOM    109  H   TYR d   1       1.226  26.154  17.019  0.00  0.00     0.043 H 
BRANCH 107 110
ATOM    110  CG  TYR d   1       0.082  27.908  17.114  0.00  0.00    -0.056 A 
ATOM    111  CD1 TYR d   1      -0.422  27.610  18.387  0.00  0.00    -0.074 A 
ATOM    112  CE1 TYR d   1      -1.080  28.559  19.154  0.00  0.00    -0.051 A 
ATOM    113  H   TYR d   1      -0.293  26.604  18.785  0.00  0.00     0.084 H 
ATOM    114  CZ  TYR d   1      -1.241  29.842  18.661  0.00  0.00     0.065 A 
ATOM    115  H   TYR d   1      -1.468  28.297  20.138  0.00  0.00     0.087 H 
ATOM    116  CE2 TYR d   1      -0.752  30.191  17.390  0.00  0.00    -0.051 A 
ATOM    117  CD2 TYR d   1      -0.085  29.213  16.619  0.00  0.00    -0.074 A 
ATOM    118  H   TYR d   1      -0.886  31.202  17.005  0.00  0.00     0.087 H 
ATOM    119  H   TYR d   1       0.303  29.472  15.634  0.00  0.00     0.084 H 
BRANCH 114 120
ATOM    120  OH  TYR d   1      -1.898  30.760  19.438  0.00  0.00    -0.361 OA
ATOM    121  H   TYR d   1      -2.679  31.070  18.974  0.00  0.00     0.217 HD
ENDBRANCH 114 120
ENDBRANCH 107 110
ENDBRANCH  27 107
ENDBRANCH  15  27
ENDBRANCH  10  13
ENDBRANCH   7   9
BRANCH   7 122
ATOM    122  CB  VAL d   1      -4.155  24.860  20.562  0.00  0.00    -0.033 C 
ATOM    123  H   VAL d   1      -4.884  25.036  19.771  0.00  0.00     0.042 H 
BRANCH 122 124
ATOM    124  CG1 VAL d   1      -4.858  24.956  21.871  0.00  0.00    -0.071 C 
ATOM    125  H   VAL d   1      -5.667  24.226  21.902  0.00  0.00     0.028 H 
ATOM    126  H   VAL d   1      -4.152  24.753  22.677  0.00  0.00     0.028 H 
ATOM    127  H   VAL d   1      -5.268  25.959  21.989  0.00  0.00     0.028 H 
ENDBRANCH 122 124
BRANCH 122 128
ATOM    128  CG2 VAL d   1      -3.062  25.931  20.453  0.00  0.00    -0.071 C 
ATOM    129  H   VAL d   1      -2.305  25.755  21.218  0.00  0.00     0.028 H 
ATOM    130  H   VAL d   1      -2.602  25.880  19.466  0.00  0.00     0.028 H 
ATOM    131  H   VAL d   1      -3.505  26.916  20.598  0.00  0.00     0.028 H 
ENDBRANCH 122 128
ENDBRANCH   7 122
ENDBRANCH   4   7
ENDBRANCH   1   3
BRANCH   1 132
ATOM    132  C   VAL d   1      -6.484  21.678  23.462  0.00  0.00     0.241 C 
ATOM    133  O   VAL d   1      -6.025  21.981  24.528  0.00  0.00    -0.271 OA
ATOM    134  N   LYS d   1      -7.760  21.897  23.159  0.00  0.00    -0.346 N 
ATOM    135  H   LYS d   1      -8.143  21.522  22.291  0.00  0.00     0.163 HD
BRANCH 134 136
ATOM    136  CA  LYS d   1      -8.625  22.672  24.057  0.00  0.00     0.089 C 
ATOM    137  H   LYS d   1      -8.001  23.346  24.643  0.00  0.00     0.087 H 
BRANCH 136 138
ATOM    138  C   LYS d   1      -9.358  21.779  25.036  0.00  0.00     0.241 C 
ATOM    139  O   LYS d   1     -10.113  20.888  24.630  0.00  0.00    -0.271 OA
ATOM    140  N   ILE d   1      -9.135  21.995  26.336  0.00  0.00    -0.346 N 
ATOM    141  H   ILE d   1      -8.547  22.774  26.632  0.00  0.00     0.163 HD
BRANCH 140 142
ATOM    142  CA  ILE d   1      -9.736  21.113  27.329  0.00  0.00     0.092 C 
ATOM    143  H   ILE d   1     -10.337  20.378  26.793  0.00  0.00     0.088 H 
BRANCH 142 144
ATOM    144  C   ILE d   1     -10.569  21.949  28.296  0.00  0.00     0.241 C 
ATOM    145  O   ILE d   1     -10.121  22.993  28.752  0.00  0.00    -0.271 OA
ATOM    146  N   ARG d   1     -11.770  21.480  28.609  0.00  0.00    -0.346 N 
ATOM    147  H   ARG d   1     -12.153  20.688  28.093  0.00  0.00     0.163 HD
BRANCH 146 148
ATOM    148  CA  ARG d   1     -12.553  22.090  29.692  0.00  0.00     0.089 C 
ATOM    149  H   ARG d   1     -12.489  23.175  29.614  0.00  0.00     0.087 H 
BRANCH 148 150
ATOM    150  C   ARG d   1     -11.995  21.629  31.058  0.00  0.00     0.241 C 
ATOM    151  O   ARG d   1     -11.950  20.410  31.338  0.00  0.00    -0.271 OA
ATOM    152  N   ARG d   1     -11.530  22.564  31.867  0.00  0.00    -0.346 N 
ATOM    153  H   ARG d   1     -11.437  23.526  31.540  0.00  0.00     0.163 HD
BRANCH 152 154
ATOM    154  CA  ARG d   1     -11.149  22.212  33.236  0.00  0.00     0.089 C 
ATOM    155  H   ARG d   1     -10.460  21.369  33.185  0.00  0.00     0.087 H 
BRANCH 154 156
ATOM    156  C   ARG d   1     -12.379  21.769  34.057  0.00  0.00     0.241 C 
ATOM    157  O   ARG d   1     -13.265  22.577  34.308  0.00  0.00    -0.271 OA
ATOM    158  N   LEU d   1     -12.443  20.492  34.441  0.00  0.00    -0.346 N 
ATOM    159  H   LEU d   1     -11.742  19.837  34.096  0.00  0.00     0.163 HD
BRANCH 158 160
ATOM    160  CA  LEU d   1     -13.504  19.994  35.356  0.00  0.00     0.089 C 
ATOM    161  H   LEU d   1     -14.388  20.572  35.086  0.00  0.00     0.087 H 
BRANCH 160 162
ATOM    162  C   LEU d   1     -13.202  20.229  36.839  0.00  0.00     0.241 C 
ATOM    163  O   LEU d   1     -12.152  20.761  37.187  0.00  0.00    -0.271 OA
ATOM    164  N   SER d   1     -14.123  19.809  37.713  0.00  0.00    -0.344 N 
ATOM    165  H   SER d   1     -14.993  19.411  37.359  0.00  0.00     0.163 HD
BRANCH 164 166
ATOM    166  CA  SER d   1     -13.924  19.902  39.168  0.00  0.00     0.109 C 
ATOM    167  H   SER d   1     -13.137  20.640  39.327  0.00  0.00     0.090 H 
BRANCH 166 168
ATOM    168  C   SER d   1     -13.475  18.565  39.759  0.00  0.00     0.243 C 
ATOM    169  O   SER d   1     -13.512  17.542  39.072  0.00  0.00    -0.271 OA
ATOM    170  N   LEU d   1     -13.066  18.595  41.031  0.00  0.00    -0.345 N 
ATOM    171  H   LEU d   1     -13.130  19.481  41.533  0.00  0.00     0.163 HD
BRANCH 170 172
ATOM    172  CA  LEU d   1     -12.528  17.430  41.754  0.00  0.00     0.096 C 
ATOM    173  H   LEU d   1     -12.447  17.744  42.795  0.00  0.00     0.089 H 
BRANCH 172 174
ATOM    174  C   LEU d   1     -11.118  17.032  41.300  0.00  0.00     0.196 C 
ATOM    175  O   LEU d   1     -10.170  17.862  41.298  0.00  0.00    -0.646 OA
ATOM    176  O   LEU d   1     -10.903  15.850  40.921  0.00  0.00    -0.646 OA
ENDBRANCH 172 174
BRANCH 172 177
ATOM    177  CB  LEU d   1     -13.477  16.228  41.677  0.00  0.00    -0.034 C 
ATOM    178  H   LEU d   1     -12.845  15.359  41.858  0.00  0.00     0.037 H 
ATOM    179  H   LEU d   1     -13.977  16.326  40.713  0.00  0.00     0.037 H 
BRANCH 177 180
ATOM    180  CG  LEU d   1     -14.609  16.111  42.698  0.00  0.00    -0.059 C 
ATOM    181  H   LEU d   1     -14.169  16.131  43.695  0.00  0.00     0.038 H 
BRANCH 180 182
ATOM    182  CD1 LEU d   1     -15.582  17.286  42.633  0.00  0.00    -0.073 C 
ATOM    183  H   LEU d   1     -15.044  18.213  42.833  0.00  0.00     0.028 H 
ATOM    184  H   LEU d   1     -16.029  17.331  41.640  0.00  0.00     0.028 H 
ATOM    185  H   LEU d   1     -16.364  17.150  43.380  0.00  0.00     0.028 H 
ENDBRANCH 180 182
BRANCH 180 186
ATOM    186  CD2 LEU d   1     -15.340  14.805  42.472  0.00  0.00    -0.073 C 
ATOM    187  H   LEU d   1     -15.751  14.790  41.462  0.00  0.00     0.028 H 
ATOM    188  H   LEU d   1     -14.645  13.975  42.595  0.00  0.00     0.028 H 
ATOM    189  H   LEU d   1     -16.149  14.713  43.196  0.00  0.00     0.028 H 
ENDBRANCH 180 186
ENDBRANCH 177 180
ENDBRANCH 172 177
ENDBRANCH 170 172
ENDBRANCH 166 168
BRANCH 166 190
ATOM    190  CB  SER d   1     -15.195  20.376  39.885  0.00  0.00     0.044 C 
ATOM    191  H   SER d   1     -15.769  21.008  39.207  0.00  0.00     0.077 H 
ATOM    192  H   SER d   1     -14.911  20.933  40.778  0.00  0.00     0.077 H 
BRANCH 190 193
ATOM    193  OG  SER d   1     -15.992  19.269  40.267  0.00  0.00    -0.398 OA
ATOM    194  H   SER d   1     -16.782  19.584  40.713  0.00  0.00     0.209 HD
ENDBRANCH 190 193
ENDBRANCH 166 190
ENDBRANCH 164 166
ENDBRANCH 160 162
BRANCH 160 195
ATOM    195  CB  LEU d   1     -13.749  18.496  35.167  0.00  0.00    -0.035 C 
ATOM    196  H   LEU d   1     -14.450  18.229  35.958  0.00  0.00     0.037 H 
ATOM    197  H   LEU d   1     -12.753  18.052  35.158  0.00  0.00     0.037 H 
BRANCH 195 198
ATOM    198  CG  LEU d   1     -14.410  17.993  33.875  0.00  0.00    -0.059 C 
ATOM    199  H   LEU d   1     -13.778  18.303  33.043  0.00  0.00     0.038 H 
BRANCH 198 200
ATOM    200  CD1 LEU d   1     -14.513  16.471  33.901  0.00  0.00    -0.073 C 
ATOM    201  H   LEU d   1     -13.514  16.042  33.985  0.00  0.00     0.028 H 
ATOM    202  H   LEU d   1     -15.115  16.163  34.756  0.00  0.00     0.028 H 
ATOM    203  H   LEU d   1     -14.983  16.124  32.981  0.00  0.00     0.028 H 
ENDBRANCH 198 200
BRANCH 198 204
ATOM    204  CD2 LEU d   1     -15.788  18.613  33.648  0.00  0.00    -0.073 C 
ATOM    205  H   LEU d   1     -16.441  18.359  34.483  0.00  0.00     0.028 H 
ATOM    206  H   LEU d   1     -15.691  19.696  33.578  0.00  0.00     0.028 H 
ATOM    207  H   LEU d   1     -16.212  18.224  32.722  0.00  0.00     0.028 H 
ENDBRANCH 198 204
ENDBRANCH 195 198
ENDBRANCH 160 195
ENDBRANCH 158 160
ENDBRANCH 154 156
BRANCH 154 208
ATOM    208  CB  ARG d   1     -10.422  23.375  33.920  0.00  0.00    -0.036 C 
ATOM    209  H   ARG d   1     -11.125  24.205  33.995  0.00  0.00     0.036 H 
ATOM    210  H   ARG d   1      -9.541  23.610  33.323  0.00  0.00     0.036 H 
BRANCH 208 211
ATOM    211  CG  ARG d   1      -9.947  23.042  35.334  0.00  0.00    -0.048 C 
ATOM    212  H   ARG d   1      -9.297  22.169  35.271  0.00  0.00     0.035 H 
ATOM    213  H   ARG d   1     -10.829  22.867  35.950  0.00  0.00     0.035 H 
BRANCH 211 214
ATOM    214  CD  ARG d   1      -9.146  24.179  35.973  0.00  0.00     0.009 C 
ATOM    215  H   ARG d   1      -9.044  23.977  37.039  0.00  0.00     0.064 H 
ATOM    216  H   ARG d   1      -9.673  25.117  35.800  0.00  0.00     0.064 H 
BRANCH 214 217
ATOM    217  NE  ARG d   1      -7.811  24.277  35.386  0.00  0.00    -0.227 N 
ATOM    218  CZ  ARG d   1      -7.423  25.233  34.550  0.00  0.00     0.665 C 
ATOM    219  NH1 ARG d   1      -8.260  26.212  34.224  0.00  0.00    -0.235 N 
ATOM    220  NH2 ARG d   1      -6.180  25.234  34.072  0.00  0.00    -0.235 N 
ATOM    221  H   ARG d   1      -9.201  26.230  34.616  0.00  0.00     0.174 HD
ATOM    222  H   ARG d   1      -7.961  26.946  33.582  0.00  0.00     0.174 HD
ATOM    223  H   ARG d   1      -5.527  24.501  34.348  0.00  0.00     0.174 HD
ATOM    224  H   ARG d   1      -5.881  25.968  33.430  0.00  0.00     0.174 HD
ATOM    225  H   ARG d   1      -7.129  23.561  35.636  0.00  0.00     0.177 HD
ENDBRANCH 214 217
ENDBRANCH 211 214
ENDBRANCH 208 211
ENDBRANCH 154 208
ENDBRANCH 152 154
ENDBRANCH 148 150
BRANCH 148 226
ATOM    226  CB  ARG d   1     -13.994  21.647  29.580  0.00  0.00    -0.036 C 
ATOM    227  H   ARG d   1     -14.043  20.599  29.874  0.00  0.00     0.036 H 
ATOM    228  H   ARG d   1     -14.315  21.815  28.552  0.00  0.00     0.036 H 
BRANCH 226 229
ATOM    229  CG  ARG d   1     -14.921  22.424  30.485  0.00  0.00    -0.048 C 
ATOM    230  H   ARG d   1     -15.323  23.284  29.950  0.00  0.00     0.035 H 
ATOM    231  H   ARG d   1     -14.373  22.777  31.359  0.00  0.00     0.035 H 
BRANCH 229 232
ATOM    232  CD  ARG d   1     -16.038  21.529  30.916  0.00  0.00     0.009 C 
ATOM    233  H   ARG d   1     -15.607  20.662  31.416  0.00  0.00     0.064 H 
ATOM    234  H   ARG d   1     -16.610  21.247  30.032  0.00  0.00     0.064 H 
BRANCH 232 235
ATOM    235  NE  ARG d   1     -16.942  22.195  31.852  0.00  0.00    -0.227 N 
ATOM    236  CZ  ARG d   1     -18.139  21.721  32.182  0.00  0.00     0.665 C 
ATOM    237  NH1 ARG d   1     -18.568  20.579  31.640  0.00  0.00    -0.235 N 
ATOM    238  NH2 ARG d   1     -18.909  22.389  33.040  0.00  0.00    -0.235 N 
ATOM    239  H   ARG d   1     -17.978  20.076  30.977  0.00  0.00     0.174 HD
ATOM    240  H   ARG d   1     -19.486  20.209  31.889  0.00  0.00     0.174 HD
ATOM    241  H   ARG d   1     -18.580  23.266  33.445  0.00  0.00     0.174 HD
ATOM    242  H   ARG d   1     -19.827  22.024  33.292  0.00  0.00     0.174 HD
ATOM    243  H   ARG d   1     -16.637  23.072  32.275  0.00  0.00     0.177 HD
ENDBRANCH 232 235
ENDBRANCH 229 232
ENDBRANCH 226 229
ENDBRANCH 148 226
ENDBRANCH 146 148
ENDBRANCH 142 144
BRANCH 142 244
ATOM    244  CB  ILE d   1      -8.664  20.393  28.174  0.00  0.00    -0.030 C 
ATOM    245  H   ILE d   1      -8.170  21.126  28.812  0.00  0.00     0.043 H 
BRANCH 244 246
ATOM    246  CG1 ILE d   1      -7.595  19.774  27.280  0.00  0.00    -0.063 C 
ATOM    247  H   ILE d   1      -6.752  19.516  27.921  0.00  0.00     0.033 H 
ATOM    248  H   ILE d   1      -7.364  20.504  26.505  0.00  0.00     0.033 H 
BRANCH 246 249
ATOM    249  CD1 ILE d   1      -8.035  18.478  26.566  0.00  0.00    -0.076 C 
ATOM    250  H   ILE d   1      -8.303  17.728  27.310  0.00  0.00     0.027 H 
ATOM    251  H   ILE d   1      -8.898  18.688  25.933  0.00  0.00     0.027 H 
ATOM    252  H   ILE d   1      -7.215  18.106  25.952  0.00  0.00     0.027 H 
ENDBRANCH 246 249
ENDBRANCH 244 246
BRANCH 244 253
ATOM    253  CG2 ILE d   1      -9.330  19.326  29.097  0.00  0.00    -0.071 C 
ATOM    254  H   ILE d   1     -10.040  19.816  29.763  0.00  0.00     0.028 H 
ATOM    255  H   ILE d   1      -9.853  18.592  28.483  0.00  0.00     0.028 H 
ATOM    256  H   ILE d   1      -8.561  18.827  29.687  0.00  0.00     0.028 H 
ENDBRANCH 244 253
ENDBRANCH 142 244
ENDBRANCH 140 142
ENDBRANCH 136 138
BRANCH 136 257
ATOM    257  CB  LYS d   1      -9.626  23.490  23.215  0.00  0.00    -0.038 C 
ATOM    258  H   LYS d   1     -10.288  24.045  23.880  0.00  0.00     0.036 H 
ATOM    259  H   LYS d   1     -10.211  22.813  22.593  0.00  0.00     0.036 H 
BRANCH 257 260
ATOM    260  CG  LYS d   1      -8.873  24.467  22.325  0.00  0.00    -0.061 C 
ATOM    261  H   LYS d   1      -8.403  23.900  21.522  0.00  0.00     0.033 H 
ATOM    262  H   LYS d   1      -8.144  24.993  22.941  0.00  0.00     0.033 H 
BRANCH 260 263
ATOM    263  CD  LYS d   1      -9.786  25.494  21.701  0.00  0.00    -0.043 C 
ATOM    264  H   LYS d   1     -10.387  24.991  20.943  0.00  0.00     0.035 H 
ATOM    265  H   LYS d   1      -9.164  26.287  21.287  0.00  0.00     0.035 H 
BRANCH 263 266
ATOM    266  CE  LYS d   1     -10.759  26.139  22.732  0.00  0.00     0.080 C 
ATOM    267  H   LYS d   1     -11.024  25.409  23.497  0.00  0.00     0.075 H 
ATOM    268  H   LYS d   1     -11.668  26.465  22.227  0.00  0.00     0.075 H 
BRANCH 266 269
ATOM    269  NZ  LYS d   1     -10.067  27.338  23.379  0.00  0.00    -0.079 N 
ATOM    270  H   LYS d   1     -10.697  27.768  24.056  0.00  0.00     0.274 HD
ATOM    271  H   LYS d   1      -9.219  27.025  23.852  0.00  0.00     0.274 HD
ATOM    272  H   LYS d   1      -9.825  28.019  22.659  0.00  0.00     0.274 HD
ENDBRANCH 266 269
ENDBRANCH 263 266
ENDBRANCH 260 263
ENDBRANCH 257 260
ENDBRANCH 136 257
ENDBRANCH 134 136
ENDBRANCH   1 132
BRANCH   1 273
ATOM    273  CB  VAL d   1      -4.929  19.745  23.057  0.00  0.00    -0.033 C 
ATOM    274  H   VAL d   1      -4.409  20.046  23.966  0.00  0.00     0.042 H 
BRANCH 273 275
ATOM    275  CG1 VAL d   1      -6.003  18.728  23.387  0.00  0.00    -0.071 C 
ATOM    276  H   VAL d   1      -6.713  19.166  24.088  0.00  0.00     0.028 H 
ATOM    277  H   VAL d   1      -6.523  18.441  22.473  0.00  0.00     0.028 H 
ATOM    278  H   VAL d   1      -5.543  17.848  23.836  0.00  0.00     0.028 H 
ENDBRANCH 273 275
BRANCH 273 279
ATOM    279  CG2 VAL d   1      -3.924  19.117  22.091  0.00  0.00    -0.071 C 
ATOM    280  H   VAL d   1      -4.437  18.823  21.175  0.00  0.00     0.028 H 
ATOM    281  H   VAL d   1      -3.146  19.843  21.856  0.00  0.00     0.028 H 
ATOM    282  H   VAL d   1      -3.475  18.239  22.556  0.00  0.00     0.028 H 
ENDBRANCH 273 279
ENDBRANCH   1 273
TORSDOF 81
