REMARK  11 active torsions:
REMARK  status: ('A' for Active; 'I' for Inactive)
REMARK    1  A    between atoms: PG_1  and  N3B_5 
REMARK    2  A    between atoms: N3B_5  and  PB_6 
REMARK    3  A    between atoms: PB_6  and  O3A_9 
REMARK    4  A    between atoms: O3A_9  and  PA_10 
REMARK    5  A    between atoms: PA_10  and  O5'_13 
REMARK    6  A    between atoms: O5'_13  and  C5'_14 
REMARK    7  A    between atoms: C5'_14  and  C4'_15 
REMARK    8  A    between atoms: C3'_17  and  O3'_18 
REMARK    9  A    between atoms: C2'_19  and  O2'_20 
REMARK   10  A    between atoms: C1'_21  and  N9_22 
REMARK   11  A    between atoms: C2_29  and  N2_30 
ROOT
ATOM      1  C4' GNP d   1      -7.696   1.120  -6.360  0.00  0.00     0.089 C 
ATOM      2  O4' GNP d   1      -7.416   2.539  -6.521  0.00  0.00    -0.353 OA
ATOM      3  C3' GNP d   1      -7.541   0.487  -7.733  0.00  0.00     0.091 C 
ATOM      4  C2' GNP d   1      -6.748   1.525  -8.548  0.00  0.00     0.105 C 
ATOM      5  C1' GNP d   1      -7.078   2.847  -7.858  0.00  0.00     0.139 C 
ATOM      6  H   GNP d   1      -8.705   0.921  -5.999  0.00  0.00     0.090 H 
ATOM      7  H   GNP d   1      -7.008  -0.463  -7.745  0.00  0.00     0.091 H 
ATOM      8  H   GNP d   1      -5.694   1.247  -8.562  0.00  0.00     0.093 H 
ATOM      9  H   GNP d   1      -7.888   3.319  -8.414  0.00  0.00     0.122 H 
ENDROOT
BRANCH   1  10
ATOM     10  C5' GNP d   1      -6.755   0.546  -5.319  0.00  0.00     0.058 C 
ATOM     11  H   GNP d   1      -6.762   1.179  -4.432  0.00  0.00     0.079 H 
ATOM     12  H   GNP d   1      -7.080  -0.458  -5.046  0.00  0.00     0.079 H 
BRANCH  10  13
ATOM     13  O5' GNP d   1      -5.451   0.492  -5.851  0.00  0.00    -0.287 OA
BRANCH  13  14
ATOM     14  PA  GNP d   1      -4.413  -0.512  -5.255  0.00  0.00     0.417 P 
ATOM     15  O1A GNP d   1      -4.939  -1.874  -5.465  0.00  0.00    -0.624 OA
ATOM     16  O2A GNP d   1      -3.126  -0.157  -5.869  0.00  0.00    -0.624 OA
BRANCH  14  17
ATOM     17  O3A GNP d   1      -4.405  -0.230  -3.751  0.00  0.00    -0.186 OA
BRANCH  17  18
ATOM     18  PB  GNP d   1      -3.880  -1.113  -2.621  0.00  0.00     0.379 P 
ATOM     19  O1B GNP d   1      -3.311  -0.163  -1.639  0.00  0.00    -0.629 OA
ATOM     20  O2B GNP d   1      -2.937  -2.102  -3.155  0.00  0.00    -0.629 OA
BRANCH  18  21
ATOM     21  N3B GNP d   1      -5.150  -1.864  -2.001  0.00  0.00    -0.218 N 
ATOM     22  H   GNP d   1      -6.068  -1.525  -2.288  0.00  0.00     0.179 HD
BRANCH  21  23
ATOM     23  PG  GNP d   1      -5.125  -3.091  -0.978  0.00  0.00     0.381 P 
ATOM     24  O1G GNP d   1      -4.165  -2.837   0.166  0.00  0.00    -0.622 OA
ATOM     25  O2G GNP d   1      -6.544  -3.281  -0.509  0.00  0.00    -0.622 OA
ATOM     26  O3G GNP d   1      -4.536  -4.236  -1.761  0.00  0.00    -0.622 OA
ENDBRANCH  21  23
ENDBRANCH  18  21
ENDBRANCH  17  18
ENDBRANCH  14  17
ENDBRANCH  13  14
ENDBRANCH  10  13
ENDBRANCH   1  10
BRANCH   3  27
ATOM     27  O3' GNP d   1      -8.837   0.190  -8.250  0.00  0.00    -0.390 OA
ATOM     28  H   GNP d   1      -8.750  -0.211  -9.118  0.00  0.00     0.210 HD
ENDBRANCH   3  27
BRANCH   5  29
ATOM     29  N9  GNP d   1      -5.977   3.812  -7.850  0.00  0.00    -0.295 N 
ATOM     30  C8  GNP d   1      -4.715   3.633  -7.347  0.00  0.00     0.071 A 
ATOM     31  N7  GNP d   1      -3.952   4.677  -7.489  0.00  0.00    -0.234 NA
ATOM     32  H   GNP d   1      -4.383   2.708  -6.875  0.00  0.00     0.144 H 
ATOM     33  C5  GNP d   1      -4.752   5.608  -8.128  0.00  0.00     0.171 A 
ATOM     34  C6  GNP d   1      -4.467   6.931  -8.542  0.00  0.00     0.292 A 
ATOM     35  C4  GNP d   1      -6.000   5.086  -8.360  0.00  0.00     0.161 A 
ATOM     36  O6  GNP d   1      -3.418   7.567  -8.424  0.00  0.00    -0.265 OA
ATOM     37  N1  GNP d   1      -5.553   7.524  -9.160  0.00  0.00    -0.154 N 
ATOM     38  C2  GNP d   1      -6.767   6.913  -9.352  0.00  0.00     0.680 A 
ATOM     39  H   GNP d   1      -5.444   8.481  -9.496  0.00  0.00     0.187 HD
ATOM     40  N3  GNP d   1      -7.050   5.680  -8.963  0.00  0.00    -0.174 N 
ATOM     41  H   GNP d   1      -7.955   5.232  -9.103  0.00  0.00     0.186 HD
BRANCH  38  42
ATOM     42  N2  GNP d   1      -7.706   7.638  -9.971  0.00  0.00    -0.234 N 
ATOM     43  H   GNP d   1      -7.499   8.591 -10.272  0.00  0.00     0.174 HD
ATOM     44  H   GNP d   1      -8.629   7.238 -10.142  0.00  0.00     0.174 HD
ENDBRANCH  38  42
ENDBRANCH   5  29
BRANCH   4  45
ATOM     45  O2' GNP d   1      -7.094   1.618  -9.923  0.00  0.00    -0.388 OA
ATOM     46  H   GNP d   1      -8.020   1.860 -10.003  0.00  0.00     0.210 HD
ENDBRANCH   4  45
TORSDOF 11
