REMARK  9 active torsions:
REMARK  status: ('A' for Active; 'I' for Inactive)
REMARK    1  A    between atoms: N1_3  and  C5_14 
REMARK    2  A    between atoms: C13_21  and  C2_5 
REMARK    3  A    between atoms: C3_9  and  C20_28 
REMARK    4  A    between atoms: C20_28  and  O3_12 
REMARK    5  A    between atoms: O3_12  and  C21_29 
REMARK    6  A    between atoms: C4_13  and  C23_31 
REMARK    7  A    between atoms: C7_16  and  C11_20 
REMARK    8  A    between atoms: C21_29  and  C22_30 
REMARK    9  A    between atoms: C22_30  and  O33_32 
ROOT
ATOM      1  N3  2HY d   1      37.810  -9.196   8.870  0.00  0.00    -0.191 NA
ATOM      2  C13 2HY d   1      39.090 -12.880   5.319  0.00  0.00    -0.031 A 
ATOM      3  C14 2HY d   1      38.838 -11.550   4.944  0.00  0.00    -0.073 A 
ATOM      4  C15 2HY d   1      38.502 -10.578   5.887  0.00  0.00    -0.062 A 
ATOM      5  C16 2HY d   1      38.414 -10.921   7.232  0.00  0.00     0.044 A 
ATOM      6  C17 2HY d   1      38.665 -12.244   7.623  0.00  0.00    -0.062 A 
ATOM      7  C18 2HY d   1      39.001 -13.209   6.670  0.00  0.00    -0.073 A 
ATOM      8  C19 2HY d   1      38.097 -10.023   8.101  0.00  0.00     0.099 C 
ATOM      9  H7  2HY d   1      38.906 -11.273   3.898  0.00  0.00     0.084 H 
ATOM     10  H8  2HY d   1      38.310  -9.559   5.572  0.00  0.00     0.085 H 
ATOM     11  H9  2HY d   1      38.598 -12.519   8.669  0.00  0.00     0.085 H 
ATOM     12  H10 2HY d   1      39.195 -14.228   6.986  0.00  0.00     0.084 H 
ENDROOT
BRANCH   2  13
ATOM     13  C2  2HY d   1      39.429 -13.909   4.278  0.00  0.00     0.072 A 
ATOM     14  N2  2HY d   1      38.238 -13.833   3.441  0.00  0.00    -0.329 N 
ATOM     15  C1  2HY d   1      38.200 -13.221   2.243  0.00  0.00     0.328 A 
ATOM     16  H2  2HY d   1      37.399 -14.261   3.777  0.00  0.00     0.165 HD
ATOM     17  N1  2HY d   1      39.295 -12.689   1.663  0.00  0.00    -0.268 N 
ATOM     18  O1  2HY d   1      37.096 -13.170   1.664  0.00  0.00    -0.246 OA
ATOM     19  C4  2HY d   1      40.497 -12.732   2.273  0.00  0.00     0.032 A 
ATOM     20  C3  2HY d   1      40.614 -13.385   3.600  0.00  0.00     0.067 A 
ATOM     21  H1  2HY d   1      39.602 -14.918   4.680  0.00  0.00     0.088 H 
BRANCH  17  22
ATOM     22  C5  2HY d   1      39.143 -12.052   0.410  0.00  0.00     0.044 A 
ATOM     23  C6  2HY d   1      38.986 -10.660   0.442  0.00  0.00    -0.042 A 
ATOM     24  C7  2HY d   1      38.821  -9.921  -0.726  0.00  0.00     0.050 A 
ATOM     25  H3  2HY d   1      38.993 -10.147   1.397  0.00  0.00     0.088 H 
ATOM     26  C8  2HY d   1      38.804 -10.589  -1.949  0.00  0.00    -0.068 A 
ATOM     27  C9  2HY d   1      38.946 -11.983  -1.981  0.00  0.00    -0.080 A 
ATOM     28  H4  2HY d   1      38.681 -10.033  -2.871  0.00  0.00     0.084 H 
ATOM     29  C10 2HY d   1      39.115 -12.717  -0.807  0.00  0.00    -0.057 A 
ATOM     30  H5  2HY d   1      38.924 -12.499  -2.934  0.00  0.00     0.083 H 
ATOM     31  H6  2HY d   1      39.223 -13.795  -0.845  0.00  0.00     0.086 H 
BRANCH  24  32
ATOM     32  C11 2HY d   1      38.627  -8.424  -0.664  0.00  0.00     0.417 C 
ATOM     33  F1  2HY d   1      39.139  -7.832  -1.726  0.00  0.00    -0.166 F 
ATOM     34  F2  2HY d   1      37.325  -8.251  -0.650  0.00  0.00    -0.166 F 
ATOM     35  F3  2HY d   1      39.104  -7.850   0.424  0.00  0.00    -0.166 F 
ENDBRANCH  24  32
ENDBRANCH  17  22
BRANCH  19  36
ATOM     36  C23 2HY d   1      41.724 -12.149   1.610  0.00  0.00    -0.036 C 
ATOM     37  H15 2HY d   1      42.596 -12.285   2.267  0.00  0.00     0.035 H 
ATOM     38  H16 2HY d   1      41.567 -11.076   1.427  0.00  0.00     0.035 H 
ATOM     39  H17 2HY d   1      41.903 -12.662   0.653  0.00  0.00     0.035 H 
ENDBRANCH  19  36
BRANCH  20  40
ATOM     40  C20 2HY d   1      41.891 -13.500   4.375  0.00  0.00     0.293 C 
ATOM     41  O2  2HY d   1      42.999 -13.228   3.928  0.00  0.00    -0.259 OA
BRANCH  40  42
ATOM     42  O3  2HY d   1      41.762 -13.994   5.728  0.00  0.00    -0.316 OA
BRANCH  42  43
ATOM     43  C21 2HY d   1      42.883 -14.583   6.367  0.00  0.00     0.049 C 
ATOM     44  H11 2HY d   1      43.791 -14.408   5.771  0.00  0.00     0.078 H 
ATOM     45  H12 2HY d   1      42.724 -15.665   6.484  0.00  0.00     0.078 H 
BRANCH  43  46
ATOM     46  C22 2HY d   1      43.021 -13.929   7.728  0.00  0.00     0.037 C 
ATOM     47  H13 2HY d   1      42.043 -13.914   8.232  0.00  0.00     0.077 H 
ATOM     48  H14 2HY d   1      43.388 -12.899   7.608  0.00  0.00     0.077 H 
BRANCH  46  49
ATOM     49  O33 2HY d   1      43.953 -14.683   8.510  0.00  0.00    -0.399 OA
ATOM     50  H18 2HY d   1      44.046 -14.280   9.365  0.00  0.00     0.209 HD
ENDBRANCH  46  49
ENDBRANCH  43  46
ENDBRANCH  42  43
ENDBRANCH  40  42
ENDBRANCH  20  40
ENDBRANCH   2  13
TORSDOF 9
