REMARK  11 active torsions:
REMARK  status: ('A' for Active; 'I' for Inactive)
REMARK    1  A    between atoms: PG_1  and  N3B_5 
REMARK    2  A    between atoms: N3B_5  and  PB_6 
REMARK    3  A    between atoms: PB_6  and  O3A_9 
REMARK    4  A    between atoms: O3A_9  and  PA_10 
REMARK    5  A    between atoms: PA_10  and  O5'_13 
REMARK    6  A    between atoms: O5'_13  and  C5'_14 
REMARK    7  A    between atoms: C5'_14  and  C4'_15 
REMARK    8  A    between atoms: C3'_17  and  O3'_18 
REMARK    9  A    between atoms: C2'_19  and  O2'_20 
REMARK   10  A    between atoms: C1'_21  and  N9_22 
REMARK   11  A    between atoms: C2_29  and  N2_30 
ROOT
ATOM      1  C4' GNP d   1      -3.101  -7.271   6.441  0.00  0.00     0.089 C 
ATOM      2  O4' GNP d   1      -1.724  -7.736   6.565  0.00  0.00    -0.353 OA
ATOM      3  C3' GNP d   1      -3.537  -6.888   7.854  0.00  0.00     0.091 C 
ATOM      4  C2' GNP d   1      -2.214  -6.555   8.537  0.00  0.00     0.105 C 
ATOM      5  C1' GNP d   1      -1.256  -7.546   7.890  0.00  0.00     0.139 C 
ATOM      6  H4  GNP d   1      -3.739  -8.093   6.085  0.00  0.00     0.090 H 
ATOM      7  H5  GNP d   1      -4.218  -6.024   7.849  0.00  0.00     0.091 H 
ATOM      8  H7  GNP d   1      -1.919  -5.515   8.335  0.00  0.00     0.093 H 
ATOM      9  H9  GNP d   1      -1.291  -8.498   8.440  0.00  0.00     0.122 H 
ENDROOT
BRANCH   1  10
ATOM     10  C5' GNP d   1      -3.180  -6.144   5.423  0.00  0.00     0.058 C 
ATOM     11  H2  GNP d   1      -2.583  -6.409   4.538  0.00  0.00     0.079 H 
ATOM     12  H3  GNP d   1      -4.228  -5.994   5.126  0.00  0.00     0.079 H 
BRANCH  10  13
ATOM     13  O5' GNP d   1      -2.672  -4.939   5.994  0.00  0.00    -0.287 OA
BRANCH  13  14
ATOM     14  PA  GNP d   1      -2.957  -3.533   5.339  0.00  0.00     0.417 P 
ATOM     15  O1A GNP d   1      -4.411  -3.281   5.480  0.00  0.00    -0.624 OA
ATOM     16  O2A GNP d   1      -2.011  -2.570   5.938  0.00  0.00    -0.624 OA
BRANCH  14  17
ATOM     17  O3A GNP d   1      -2.656  -3.704   3.850  0.00  0.00    -0.186 OA
BRANCH  17  18
ATOM     18  PB  GNP d   1      -3.128  -2.764   2.745  0.00  0.00     0.379 P 
ATOM     19  O1B GNP d   1      -2.044  -2.833   1.744  0.00  0.00    -0.629 OA
ATOM     20  O2B GNP d   1      -3.453  -1.450   3.345  0.00  0.00    -0.629 OA
BRANCH  18  21
ATOM     21  N3B GNP d   1      -4.477  -3.327   2.135  0.00  0.00    -0.218 N 
ATOM     22  H1  GNP d   1      -4.740  -4.275   2.312  0.00  0.00     0.179 HD
BRANCH  21  23
ATOM     23  PG  GNP d   1      -5.419  -2.404   1.244  0.00  0.00     0.381 P 
ATOM     24  O1G GNP d   1      -4.708  -2.081  -0.055  0.00  0.00    -0.622 OA
ATOM     25  O2G GNP d   1      -6.696  -3.179   1.072  0.00  0.00    -0.622 OA
ATOM     26  O3G GNP d   1      -5.548  -1.102   2.001  0.00  0.00    -0.622 OA
ENDBRANCH  21  23
ENDBRANCH  18  21
ENDBRANCH  17  18
ENDBRANCH  14  17
ENDBRANCH  13  14
ENDBRANCH  10  13
ENDBRANCH   1  10
BRANCH   3  27
ATOM     27  O3' GNP d   1      -4.160  -7.997   8.487  0.00  0.00    -0.390 OA
ATOM     28  H6  GNP d   1      -3.545  -8.720   8.534  0.00  0.00     0.210 HD
ENDBRANCH   3  27
BRANCH   5  29
ATOM     29  N9  GNP d   1       0.129  -7.071   7.867  0.00  0.00    -0.295 N 
ATOM     30  C8  GNP d   1       0.576  -5.851   7.418  0.00  0.00     0.071 A 
ATOM     31  N7  GNP d   1       1.867  -5.692   7.548  0.00  0.00    -0.234 NA
ATOM     32  H10 GNP d   1      -0.081  -5.092   6.996  0.00  0.00     0.144 H 
ATOM     33  C5  GNP d   1       2.313  -6.874   8.126  0.00  0.00     0.171 A 
ATOM     34  C6  GNP d   1       3.624  -7.285   8.499  0.00  0.00     0.292 A 
ATOM     35  C4  GNP d   1       1.252  -7.733   8.330  0.00  0.00     0.161 A 
ATOM     36  O6  GNP d   1       4.698  -6.679   8.376  0.00  0.00    -0.265 OA
ATOM     37  N1  GNP d   1       3.629  -8.557   9.058  0.00  0.00    -0.154 N 
ATOM     38  C2  GNP d   1       2.510  -9.325   9.251  0.00  0.00     0.680 A 
ATOM     39  H11 GNP d   1       4.510  -8.939   9.339  0.00  0.00     0.187 HD
ATOM     40  N3  GNP d   1       1.282  -8.967   8.885  0.00  0.00    -0.174 N 
ATOM     41  H14 GNP d   1       0.450  -9.561   9.010  0.00  0.00     0.186 HD
BRANCH  38  42
ATOM     42  N2  GNP d   1       2.718 -10.513   9.835  0.00  0.00    -0.234 N 
ATOM     43  H12 GNP d   1       1.925 -11.145  10.013  0.00  0.00     0.174 HD
ATOM     44  H13 GNP d   1       3.671 -10.794  10.106  0.00  0.00     0.174 HD
ENDBRANCH  38  42
ENDBRANCH   5  29
BRANCH   4  45
ATOM     45  O2' GNP d   1      -2.246  -6.775   9.931  0.00  0.00    -0.388 OA
ATOM     46  H8  GNP d   1      -1.401  -6.553  10.305  0.00  0.00     0.210 HD
ENDBRANCH   4  45
TORSDOF 11
