REMARK  11 active torsions:
REMARK  status: ('A' for Active; 'I' for Inactive)
REMARK    1  A    between atoms: N_1  and  CA_2 
REMARK    2  A    between atoms: CA_2  and  C_3 
REMARK    3  A    between atoms: CA_2  and  CB_5 
REMARK       I    between atoms: C_3  and  N_9 
REMARK    4  A    between atoms: CB_5  and  CG1_6 
REMARK    5  A    between atoms: CB_5  and  CG2_7 
REMARK    6  A    between atoms: CG1_6  and  CD1_8 
REMARK    7  A    between atoms: CA_10  and  C_11 
REMARK       I    between atoms: C_11  and  N_16 
REMARK    8  A    between atoms: N_16  and  CA_17 
REMARK    9  A    between atoms: CA_17  and  C_18 
REMARK   10  A    between atoms: CA_17  and  CB_20 
REMARK   11  A    between atoms: CB_20  and  CG_21 
ROOT
ATOM      1  C   ILE d   1      32.157  12.320  66.227  0.00  0.00     0.251 C 
ATOM      2  O   ILE d   1      32.855  11.500  65.627  0.00  0.00    -0.271 OA
ATOM      3  N   PRO d   1      31.676  13.426  65.627  0.00  0.00    -0.337 N 
ATOM      4  CA  PRO d   1      31.981  13.652  64.220  0.00  0.00     0.091 C 
ATOM      5  CB  PRO d   1      30.599  13.900  63.623  0.00  0.00    -0.036 C 
ATOM      6  CG  PRO d   1      29.880  14.641  64.709  0.00  0.00    -0.048 C 
ATOM      7  CD  PRO d   1      30.480  14.187  66.034  0.00  0.00    -0.001 C 
ATOM      8  H   PRO d   1      32.542  12.824  63.788  0.00  0.00     0.087 H 
ATOM      9  H   PRO d   1      30.093  12.977  63.340  0.00  0.00     0.036 H 
ATOM     10  H   PRO d   1      30.640  14.461  62.690  0.00  0.00     0.036 H 
ATOM     11  H   PRO d   1      28.811  14.428  64.677  0.00  0.00     0.035 H 
ATOM     12  H   PRO d   1      29.996  15.717  64.583  0.00  0.00     0.035 H 
ATOM     13  H   PRO d   1      30.720  15.022  66.692  0.00  0.00     0.064 H 
ATOM     14  H   PRO d   1      29.785  13.590  66.624  0.00  0.00     0.064 H 
ENDROOT
BRANCH   4  15
ATOM     15  C   PRO d   1      32.824  14.899  64.004  0.00  0.00     0.241 C 
ATOM     16  O   PRO d   1      34.026  14.812  63.759  0.00  0.00    -0.271 OA
ATOM     17  N   PHE d   1      32.143  16.028  63.882  0.00  0.00    -0.344 N 
ATOM     18  H   PHE d   1      31.313  16.183  64.454  0.00  0.00     0.163 HD
BRANCH  17  19
ATOM     19  CA  PHE d   1      32.570  17.045  62.940  0.00  0.00     0.100 C 
ATOM     20  H   PHE d   1      33.244  16.573  62.225  0.00  0.00     0.090 H 
BRANCH  19  21
ATOM     21  C   PHE d   1      33.356  18.148  63.628  0.00  0.00     0.197 C 
ATOM     22  O   PHE d   1      32.924  19.294  63.703  0.00  0.00    -0.646 OA
ATOM     23  OXT PHE d   1      34.459  17.905  64.110  0.00  0.00    -0.646 OA
ENDBRANCH  19  21
BRANCH  19  24
ATOM     24  CB  PHE d   1      31.380  17.601  62.150  0.00  0.00    -0.013 C 
ATOM     25  H   PHE d   1      30.778  16.749  61.834  0.00  0.00     0.043 H 
ATOM     26  H   PHE d   1      31.787  18.190  61.328  0.00  0.00     0.043 H 
BRANCH  24  27
ATOM     27  CG  PHE d   1      30.484  18.507  62.944  0.00  0.00    -0.056 A 
ATOM     28  CD1 PHE d   1      30.811  19.839  63.122  0.00  0.00    -0.077 A 
ATOM     29  CE1 PHE d   1      29.967  20.691  63.804  0.00  0.00    -0.082 A 
ATOM     30  H   PHE d   1      31.748  20.221  62.718  0.00  0.00     0.084 H 
ATOM     31  CZ  PHE d   1      28.752  20.230  64.267  0.00  0.00    -0.083 A 
ATOM     32  H   PHE d   1      30.260  21.727  63.977  0.00  0.00     0.083 H 
ATOM     33  CE2 PHE d   1      28.379  18.917  64.034  0.00  0.00    -0.082 A 
ATOM     34  H   PHE d   1      28.087  20.898  64.815  0.00  0.00     0.083 H 
ATOM     35  CD2 PHE d   1      29.242  18.066  63.369  0.00  0.00    -0.077 A 
ATOM     36  H   PHE d   1      27.408  18.556  64.374  0.00  0.00     0.083 H 
ATOM     37  H   PHE d   1      28.941  17.036  63.177  0.00  0.00     0.084 H 
ENDBRANCH  24  27
ENDBRANCH  19  24
ENDBRANCH  17  19
ENDBRANCH   4  15
BRANCH   1  38
ATOM     38  CA  ILE d   1      31.918  12.168  67.742  0.00  0.00     0.179 C 
ATOM     39  H   ILE d   1      32.904  11.990  68.171  0.00  0.00     0.099 H 
BRANCH  38  40
ATOM     40  N   ILE d   1      31.411  13.407  68.406  0.00  0.00    -0.066 N 
ATOM     41  H   ILE d   1      32.021  14.190  68.172  0.00  0.00     0.275 HD
ATOM     42  H   ILE d   1      30.464  13.603  68.080  0.00  0.00     0.275 HD
ATOM     43  H   ILE d   1      31.403  13.271  69.417  0.00  0.00     0.275 HD
ENDBRANCH  38  40
BRANCH  38  44
ATOM     44  CB  ILE d   1      31.020  10.936  68.066  0.00  0.00    -0.022 C 
ATOM     45  H   ILE d   1      30.489  11.146  68.995  0.00  0.00     0.043 H 
BRANCH  44  46
ATOM     46  CG1 ILE d   1      31.872   9.681  68.295  0.00  0.00    -0.063 C 
ATOM     47  H   ILE d   1      32.761   9.989  68.846  0.00  0.00     0.033 H 
ATOM     48  H   ILE d   1      32.086   9.251  67.316  0.00  0.00     0.033 H 
BRANCH  46  49
ATOM     49  CD1 ILE d   1      31.179   8.609  69.117  0.00  0.00    -0.076 C 
ATOM     50  H   ILE d   1      30.926   9.012  70.098  0.00  0.00     0.027 H 
ATOM     51  H   ILE d   1      30.269   8.293  68.607  0.00  0.00     0.027 H 
ATOM     52  H   ILE d   1      31.846   7.755  69.234  0.00  0.00     0.027 H 
ENDBRANCH  46  49
ENDBRANCH  44  46
BRANCH  44  53
ATOM     53  CG2 ILE d   1      29.957  10.715  66.991  0.00  0.00    -0.070 C 
ATOM     54  H   ILE d   1      30.442  10.455  66.050  0.00  0.00     0.028 H 
ATOM     55  H   ILE d   1      29.296   9.904  67.297  0.00  0.00     0.028 H 
ATOM     56  H   ILE d   1      29.377  11.629  66.862  0.00  0.00     0.028 H 
ENDBRANCH  44  53
ENDBRANCH  38  44
ENDBRANCH   1  38
TORSDOF 11
