REMARK  7 active torsions:
REMARK  status: ('A' for Active; 'I' for Inactive)
REMARK    1  A    between atoms: C1'_9  and  N1_1 
REMARK    2  A    between atoms: C4_5  and  N4_6 
REMARK    3  A    between atoms: C2'_10  and  O2'_11 
REMARK    4  A    between atoms: C3'_12  and  O3'_13 
REMARK    5  A    between atoms: C30_14  and  C32_16 
REMARK       I    between atoms: N5'_27  and  C30_14 
REMARK    6  A    between atoms: C5'_26  and  C4'_24 
REMARK    7  A    between atoms: C5'_26  and  N5'_27 
ROOT
ATOM      1  C1' AO9 d   1       9.386 -27.705 -24.208  0.00  0.00     0.141 C 
ATOM      2  C2' AO9 d   1       9.483 -28.954 -23.394  0.00  0.00     0.105 C 
ATOM      3  C3' AO9 d   1       8.198 -28.962 -22.681  0.00  0.00     0.091 C 
ATOM      4  C4' AO9 d   1       7.833 -27.489 -22.557  0.00  0.00     0.083 C 
ATOM      5  O4' AO9 d   1       8.780 -26.811 -23.334  0.00  0.00    -0.354 OA
ATOM      6  H6  AO9 d   1       8.794 -27.866 -25.121  0.00  0.00     0.123 H 
ATOM      7  H7  AO9 d   1      10.343 -28.954 -22.708  0.00  0.00     0.093 H 
ATOM      8  H9  AO9 d   1       8.212 -29.480 -21.711  0.00  0.00     0.091 H 
ATOM      9  H15 AO9 d   1       6.817 -27.349 -22.955  0.00  0.00     0.090 H 
ENDROOT
BRANCH   4  10
ATOM     10  C5' AO9 d   1       7.907 -26.834 -21.202  0.00  0.00     0.022 C 
ATOM     11  H16 AO9 d   1       7.175 -26.013 -21.190  0.00  0.00     0.068 H 
ATOM     12  H17 AO9 d   1       8.921 -26.423 -21.087  0.00  0.00     0.068 H 
BRANCH  10  13
ATOM     13  N5' AO9 d   1       7.644 -27.666 -20.062  0.00  0.00    -0.353 N 
ATOM     14  C30 AO9 d   1       6.479 -27.604 -19.473  0.00  0.00     0.270 C 
ATOM     15  O31 AO9 d   1       5.547 -27.150 -20.029  0.00  0.00    -0.266 OA
ATOM     16  H18 AO9 d   1       8.348 -28.289 -19.721  0.00  0.00     0.162 HD
BRANCH  14  17
ATOM     17  C32 AO9 d   1       6.372 -28.051 -18.108  0.00  0.00     0.124 A 
ATOM     18  N33 AO9 d   1       5.049 -28.190 -17.469  0.00  0.00    -0.296 N 
ATOM     19  C34 AO9 d   1       5.336 -28.561 -16.254  0.00  0.00     0.155 A 
ATOM     20  C39 AO9 d   1       3.697 -27.980 -17.781  0.00  0.00    -0.006 A 
ATOM     21  N35 AO9 d   1       6.662 -28.744 -16.002  0.00  0.00    -0.344 N 
ATOM     22  S37 AO9 d   1       3.981 -28.786 -15.370  0.00  0.00    -0.064 SA
ATOM     23  C36 AO9 d   1       7.307 -28.397 -17.147  0.00  0.00     0.011 A 
ATOM     24  H11 AO9 d   1       7.088 -29.077 -15.125  0.00  0.00     0.167 HD
ATOM     25  H12 AO9 d   1       8.387 -28.392 -17.286  0.00  0.00     0.115 H 
ATOM     26  C38 AO9 d   1       2.900 -28.273 -16.647  0.00  0.00    -0.026 A 
ATOM     27  H13 AO9 d   1       1.816 -28.194 -16.582  0.00  0.00     0.097 H 
ATOM     28  H14 AO9 d   1       3.319 -27.644 -18.745  0.00  0.00     0.113 H 
ENDBRANCH  14  17
ENDBRANCH  10  13
ENDBRANCH   4  10
BRANCH   3  29
ATOM     29  O3' AO9 d   1       7.384 -29.582 -23.631  0.00  0.00    -0.390 OA
ATOM     30  H10 AO9 d   1       7.723 -30.449 -23.819  0.00  0.00     0.210 HD
ENDBRANCH   3  29
BRANCH   2  31
ATOM     31  O2' AO9 d   1       9.541 -30.019 -24.276  0.00  0.00    -0.388 OA
ATOM     32  H8  AO9 d   1       8.755 -30.029 -24.810  0.00  0.00     0.210 HD
ENDBRANCH   2  31
BRANCH   1  33
ATOM     33  N1  AO9 d   1      10.692 -27.161 -24.535  0.00  0.00    -0.280 N 
ATOM     34  C2  AO9 d   1      11.036 -26.904 -25.843  0.00  0.00     0.330 A 
ATOM     35  O2  AO9 d   1      10.260 -27.139 -26.748  0.00  0.00    -0.246 OA
ATOM     36  N3  AO9 d   1      12.236 -26.421 -26.089  0.00  0.00    -0.295 N 
ATOM     37  C4  AO9 d   1      13.095 -26.112 -25.148  0.00  0.00     0.103 A 
ATOM     38  H1  AO9 d   1      12.506 -26.283 -27.042  0.00  0.00     0.172 HD
ATOM     39  C5  AO9 d   1      12.764 -26.361 -23.851  0.00  0.00    -0.026 A 
ATOM     40  C6  AO9 d   1      11.531 -26.887 -23.587  0.00  0.00    -0.010 A 
ATOM     41  H4  AO9 d   1      13.464 -26.146 -23.045  0.00  0.00     0.091 H 
ATOM     42  H5  AO9 d   1      11.246 -27.081 -22.554  0.00  0.00     0.112 H 
BRANCH  37  43
ATOM     43  N4  AO9 d   1      14.270 -25.592 -25.471  0.00  0.00    -0.385 N 
ATOM     44  H2  AO9 d   1      14.946 -25.349 -24.733  0.00  0.00     0.157 HD
ATOM     45  H3  AO9 d   1      14.508 -25.431 -26.460  0.00  0.00     0.157 HD
ENDBRANCH  37  43
ENDBRANCH   1  33
TORSDOF 7
