REMARK  8 active torsions:
REMARK  status: ('A' for Active; 'I' for Inactive)
REMARK    1  A    between atoms: C01_1  and  S02_2 
REMARK    2  A    between atoms: S02_2  and  C03_3 
REMARK    3  A    between atoms: C08_8  and  N09_9 
REMARK    4  A    between atoms: N09_9  and  C10_10 
REMARK    5  A    between atoms: C12_12  and  N25_25 
REMARK    6  A    between atoms: C15_15  and  N20_20 
REMARK    7  A    between atoms: N20_20  and  C21_21 
REMARK    8  A    between atoms: C21_21  and  C22_22 
ROOT
ATOM      1  C10 XNB d   1      -4.007  -1.465  18.924  0.00  0.00     0.178 A 
ATOM      2  N11 XNB d   1      -5.025  -0.637  19.386  0.00  0.00    -0.043 NA
ATOM      3  C12 XNB d   1      -5.991  -1.152  20.321  0.00  0.00     0.727 A 
ATOM      4  N13 XNB d   1      -5.955  -2.449  20.784  0.00  0.00    -0.057 NA
ATOM      5  C14 XNB d   1      -4.949  -3.267  20.329  0.00  0.00     0.154 A 
ATOM      6  C15 XNB d   1      -4.862  -4.717  20.805  0.00  0.00     0.157 A 
ATOM      7  N16 XNB d   1      -3.843  -5.476  20.327  0.00  0.00    -0.222 NA
ATOM      8  C17 XNB d   1      -2.934  -4.903  19.422  0.00  0.00     0.089 A 
ATOM      9  N18 XNB d   1      -2.930  -3.668  18.951  0.00  0.00    -0.236 NA
ATOM     10  C19 XNB d   1      -3.955  -2.841  19.414  0.00  0.00     0.138 A 
ATOM     11  H   XNB d   1      -2.136  -5.555  19.066  0.00  0.00     0.146 H 
ENDROOT
BRANCH   1  12
ATOM     12  N09 XNB d   1      -3.077  -0.929  17.986  0.00  0.00    -0.337 N 
ATOM     13  H   XNB d   1      -2.279  -1.506  17.720  0.00  0.00     0.167 HD
BRANCH  12  14
ATOM     14  C08 XNB d   1      -3.196   0.397  17.382  0.00  0.00     0.050 A 
ATOM     15  C03 XNB d   1      -2.553   0.642  16.139  0.00  0.00     0.026 A 
ATOM     16  C04 XNB d   1      -2.635   1.878  15.488  0.00  0.00    -0.065 A 
ATOM     17  C05 XNB d   1      -3.355   2.931  16.063  0.00  0.00    -0.082 A 
ATOM     18  H   XNB d   1      -2.136   2.021  14.530  0.00  0.00     0.085 H 
ATOM     19  C06 XNB d   1      -3.984   2.740  17.291  0.00  0.00    -0.081 A 
ATOM     20  H   XNB d   1      -3.423   3.893  15.554  0.00  0.00     0.083 H 
ATOM     21  C07 XNB d   1      -3.904   1.493  17.939  0.00  0.00    -0.056 A 
ATOM     22  H   XNB d   1      -4.539   3.558  17.751  0.00  0.00     0.083 H 
ATOM     23  H   XNB d   1      -4.402   1.365  18.900  0.00  0.00     0.087 H 
BRANCH  15  24
ATOM     24  S02 XNB d   1      -1.702  -0.766  15.456  0.00  0.00    -0.132 SA
BRANCH  24  25
ATOM     25  C01 XNB d   1      -2.494  -1.262  13.896  0.00  0.00    -0.030 C 
ATOM     26  H   XNB d   1      -3.535  -1.525  14.086  0.00  0.00     0.042 H 
ATOM     27  H   XNB d   1      -2.450  -0.434  13.188  0.00  0.00     0.042 H 
ATOM     28  H   XNB d   1      -1.970  -2.123  13.482  0.00  0.00     0.042 H 
ENDBRANCH  24  25
ENDBRANCH  15  24
ENDBRANCH  12  14
ENDBRANCH   1  12
BRANCH   3  29
ATOM     29  N25 XNB d   1      -7.077  -0.334  20.826  0.00  0.00    -0.211 N 
ATOM     30  C26 XNB d   1      -7.230   1.083  20.395  0.00  0.00     0.034 C 
ATOM     31  C27 XNB d   1      -8.685   1.613  20.335  0.00  0.00     0.097 C 
ATOM     32  H   XNB d   1      -6.838   1.141  19.380  0.00  0.00     0.067 H 
ATOM     33  H   XNB d   1      -6.711   1.689  21.137  0.00  0.00     0.067 H 
ATOM     34  N28 XNB d   1      -9.435   1.312  21.564  0.00  0.00    -0.072 N 
ATOM     35  H   XNB d   1      -9.190   1.126  19.501  0.00  0.00     0.078 H 
ATOM     36  H   XNB d   1      -8.648   2.696  20.216  0.00  0.00     0.078 H 
ATOM     37  C29 XNB d   1      -9.499  -0.130  21.835  0.00  0.00     0.097 C 
ATOM     38  H   XNB d   1     -10.388   1.656  21.447  0.00  0.00     0.277 HD
ATOM     39  H   XNB d   1      -8.957   1.761  22.346  0.00  0.00     0.277 HD
ATOM     40  C30 XNB d   1      -8.112  -0.836  21.795  0.00  0.00     0.034 C 
ATOM     41  H   XNB d   1     -10.117  -0.581  21.058  0.00  0.00     0.078 H 
ATOM     42  H   XNB d   1      -9.900  -0.255  22.841  0.00  0.00     0.078 H 
ATOM     43  H   XNB d   1      -7.681  -0.671  22.782  0.00  0.00     0.067 H 
ATOM     44  H   XNB d   1      -8.322  -1.859  21.482  0.00  0.00     0.067 H 
ENDBRANCH   3  29
BRANCH   6  45
ATOM     45  N20 XNB d   1      -5.870  -5.099  21.699  0.00  0.00    -0.372 N 
ATOM     46  H   XNB d   1      -6.580  -4.415  21.960  0.00  0.00     0.161 HD
BRANCH  45  47
ATOM     47  C21 XNB d   1      -5.943  -6.449  22.275  0.00  0.00    -0.003 C 
ATOM     48  H   XNB d   1      -6.900  -6.404  22.796  0.00  0.00     0.064 H 
ATOM     49  H   XNB d   1      -4.948  -6.546  22.710  0.00  0.00     0.064 H 
BRANCH  47  50
ATOM     50  C22 XNB d   1      -6.071  -7.764  21.543  0.00  0.00    -0.039 A 
ATOM     51  C23 XNB d   1      -7.206  -8.069  20.555  0.00  0.00    -0.060 A 
ATOM     52  C24 XNB d   1      -7.217  -8.706  21.916  0.00  0.00    -0.060 A 
ATOM     53  H   XNB d   1      -7.319  -8.371  19.514  0.00  0.00     0.033 H 
ATOM     54  H   XNB d   1      -7.890  -7.521  19.907  0.00  0.00     0.033 H 
ATOM     55  H   XNB d   1      -7.917  -8.845  22.740  0.00  0.00     0.033 H 
ATOM     56  H   XNB d   1      -7.342  -9.700  22.345  0.00  0.00     0.033 H 
ATOM     57  H   XNB d   1      -4.984  -7.808  21.477  0.00  0.00     0.042 H 
ENDBRANCH  47  50
ENDBRANCH  45  47
ENDBRANCH   6  45
TORSDOF 8
