REMARK  9 active torsions:
REMARK  status: ('A' for Active; 'I' for Inactive)
REMARK    1  A    between atoms: O11_33  and  C5_2 
REMARK    2  A    between atoms: C20_9  and  C22_11 
REMARK       I    between atoms: C22_11  and  N24_26 
REMARK    3  A    between atoms: C32_15  and  N33_14 
REMARK    4  A    between atoms: C32_15  and  C38_16 
REMARK    5  A    between atoms: C32_15  and  C39_17 
REMARK    6  A    between atoms: C29_18  and  C32_15 
REMARK    7  A    between atoms: C27_20  and  C34_21 
REMARK    8  A    between atoms: N24_26  and  C25_25 
REMARK    9  A    between atoms: C12_32  and  O11_33 
ROOT
ATOM      1  C13 0NF d   1      24.177  -5.359 -11.743  0.00  0.00    -0.050 A 
ATOM      2  C15 0NF d   1      25.341  -3.974 -10.130  0.00  0.00    -0.052 A 
ATOM      3  C17 0NF d   1      23.427  -5.275  -9.448  0.00  0.00    -0.044 A 
ATOM      4  C20 0NF d   1      25.615  -2.794  -7.480  0.00  0.00     0.028 C 
ATOM      5  C21 0NF d   1      24.549  -3.889  -7.678  0.00  0.00    -0.029 C 
ATOM      6  C19 0NF d   1      26.846  -3.028  -8.363  0.00  0.00    -0.050 C 
ATOM      7  C18 0NF d   1      26.483  -3.000  -9.848  0.00  0.00    -0.040 C 
ATOM      8  C16 0NF d   1      24.452  -4.378  -9.131  0.00  0.00    -0.048 A 
ATOM      9  C14 0NF d   1      25.199  -4.467 -11.427  0.00  0.00    -0.074 A 
ATOM     10  C12 0NF d   1      23.295  -5.777 -10.745  0.00  0.00     0.076 A 
ATOM     11  H   0NF d   1      24.067  -5.728 -12.763  0.00  0.00     0.087 H 
ATOM     12  H   0NF d   1      22.724  -5.586  -8.675  0.00  0.00     0.088 H 
ATOM     13  H   0NF d   1      25.159  -1.846  -7.766  0.00  0.00     0.055 H 
ATOM     14  H   0NF d   1      23.583  -3.464  -7.406  0.00  0.00     0.041 H 
ATOM     15  H   0NF d   1      24.830  -4.741  -7.059  0.00  0.00     0.041 H 
ATOM     16  H   0NF d   1      27.259  -4.008  -8.127  0.00  0.00     0.034 H 
ATOM     17  H   0NF d   1      27.567  -2.234  -8.168  0.00  0.00     0.034 H 
ATOM     18  H   0NF d   1      26.168  -1.992 -10.119  0.00  0.00     0.040 H 
ATOM     19  H   0NF d   1      27.354  -3.292 -10.434  0.00  0.00     0.040 H 
ATOM     20  H   0NF d   1      25.896  -4.150 -12.203  0.00  0.00     0.084 H 
ENDROOT
BRANCH   4  21
ATOM     21  C22 0NF d   1      26.059  -2.752  -6.019  0.00  0.00     0.226 C 
ATOM     22  N24 0NF d   1      26.311  -1.520  -5.561  0.00  0.00    -0.327 N 
ATOM     23  H   0NF d   1      26.183  -0.751  -6.219  0.00  0.00     0.169 HD
ATOM     24  O23 0NF d   1      26.172  -3.792  -5.372  0.00  0.00    -0.273 OA
BRANCH  22  25
ATOM     25  C25 0NF d   1      26.714  -1.195  -4.326  0.00  0.00     0.036 A 
ATOM     26  C26 0NF d   1      27.082  -2.165  -3.405  0.00  0.00    -0.043 A 
ATOM     27  C27 0NF d   1      27.498  -1.792  -2.137  0.00  0.00     0.050 A 
ATOM     28  H   0NF d   1      27.044  -3.219  -3.679  0.00  0.00     0.088 H 
ATOM     29  C28 0NF d   1      27.550  -0.454  -1.768  0.00  0.00    -0.060 A 
ATOM     30  C29 0NF d   1      27.191   0.535  -2.678  0.00  0.00    -0.021 A 
ATOM     31  H   0NF d   1      27.873  -0.178  -0.764  0.00  0.00     0.085 H 
ATOM     32  C30 0NF d   1      26.767   0.152  -3.954  0.00  0.00    -0.049 A 
ATOM     33  H   0NF d   1      26.472   0.917  -4.672  0.00  0.00     0.087 H 
BRANCH  27  34
ATOM     34  C34 0NF d   1      27.888  -2.871  -1.149  0.00  0.00     0.417 C 
ATOM     35  F37 0NF d   1      28.263  -2.292  -0.009  0.00  0.00    -0.166 F 
ATOM     36  F35 0NF d   1      26.827  -3.661  -0.956  0.00  0.00    -0.166 F 
ATOM     37  F36 0NF d   1      28.904  -3.572  -1.652  0.00  0.00    -0.166 F 
ENDBRANCH  27  34
BRANCH  30  38
ATOM     38  C32 0NF d   1      27.250   2.016  -2.250  0.00  0.00     0.143 C 
BRANCH  38  39
ATOM     39  N33 0NF d   1      26.100   2.263  -1.372  0.00  0.00    -0.067 N 
ATOM     40  H   0NF d   1      25.237   2.086  -1.886  0.00  0.00     0.275 HD
ATOM     41  H   0NF d   1      26.150   1.641  -0.565  0.00  0.00     0.275 HD
ATOM     42  H   0NF d   1      26.116   3.233  -1.057  0.00  0.00     0.275 HD
ENDBRANCH  38  39
BRANCH  38  43
ATOM     43  C38 0NF d   1      28.530   2.289  -1.454  0.00  0.00    -0.042 C 
ATOM     44  H   0NF d   1      28.532   3.325  -1.117  0.00  0.00     0.031 H 
ATOM     45  H   0NF d   1      28.568   1.624  -0.591  0.00  0.00     0.031 H 
ATOM     46  H   0NF d   1      29.397   2.111  -2.090  0.00  0.00     0.031 H 
ENDBRANCH  38  43
BRANCH  38  47
ATOM     47  C39 0NF d   1      27.169   2.948  -3.464  0.00  0.00    -0.042 C 
ATOM     48  H   0NF d   1      26.245   2.754  -4.008  0.00  0.00     0.031 H 
ATOM     49  H   0NF d   1      27.183   3.984  -3.126  0.00  0.00     0.031 H 
ATOM     50  H   0NF d   1      28.022   2.766  -4.117  0.00  0.00     0.031 H 
ENDBRANCH  38  47
ENDBRANCH  30  38
ENDBRANCH  22  25
ENDBRANCH   4  21
BRANCH  10  51
ATOM     51  O11 0NF d   1      22.273  -6.630 -11.049  0.00  0.00    -0.310 OA
BRANCH  51  52
ATOM     52  C5  0NF d   1      22.368  -7.984 -10.929  0.00  0.00     0.087 A 
ATOM     53  C4  0NF d   1      21.241  -8.727 -11.292  0.00  0.00     0.022 A 
ATOM     54  C10 0NF d   1      19.969  -8.027 -11.803  0.00  0.00    -0.027 C 
ATOM     55  C3  0NF d   1      21.336 -10.117 -11.174  0.00  0.00     0.138 A 
ATOM     56  C9  0NF d   1      18.706  -8.859 -11.575  0.00  0.00     0.013 C 
ATOM     57  H   0NF d   1      20.080  -7.873 -12.876  0.00  0.00     0.041 H 
ATOM     58  H   0NF d   1      19.858  -7.092 -11.254  0.00  0.00     0.041 H 
ATOM     59  C8  0NF d   1      18.957 -10.374 -11.697  0.00  0.00     0.223 C 
ATOM     60  H   0NF d   1      18.354  -8.660 -10.563  0.00  0.00     0.047 H 
ATOM     61  H   0NF d   1      17.980  -8.579 -12.338  0.00  0.00     0.047 H 
ATOM     62  O31 0NF d   1      18.015 -11.122 -11.967  0.00  0.00    -0.273 OA
ATOM     63  N7  0NF d   1      20.243 -10.923 -11.509  0.00  0.00    -0.311 N 
ATOM     64  H   0NF d   1      20.378 -11.928 -11.620  0.00  0.00     0.170 HD
ATOM     65  N2  0NF d   1      22.458 -10.711 -10.727  0.00  0.00    -0.243 NA
ATOM     66  C1  0NF d   1      23.529 -10.016 -10.380  0.00  0.00     0.007 A 
ATOM     67  C6  0NF d   1      23.518  -8.628 -10.467  0.00  0.00    -0.033 A 
ATOM     68  H   0NF d   1      24.421 -10.532 -10.025  0.00  0.00     0.115 H 
ATOM     69  H   0NF d   1      24.396  -8.050 -10.178  0.00  0.00     0.090 H 
ENDBRANCH  51  52
ENDBRANCH  10  51
TORSDOF 9
