REMARK  7 active torsions:
REMARK  status: ('A' for Active; 'I' for Inactive)
REMARK    1  A    between atoms: C01_1  and  C02_2 
REMARK    2  A    between atoms: C07_7  and  N08_8 
REMARK    3  A    between atoms: N08_8  and  C09_9 
REMARK    4  A    between atoms: C11_11  and  N24_24 
REMARK    5  A    between atoms: C14_14  and  N19_19 
REMARK    6  A    between atoms: N19_19  and  C20_20 
REMARK    7  A    between atoms: C20_20  and  C21_21 
ROOT
ATOM      1  C09 XNA d   1      -4.716  -1.448  18.963  0.00  0.00     0.178 A 
ATOM      2  N10 XNA d   1      -5.690  -0.561  19.416  0.00  0.00    -0.043 NA
ATOM      3  C11 XNA d   1      -6.599  -1.030  20.362  0.00  0.00     0.727 A 
ATOM      4  N12 XNA d   1      -6.578  -2.332  20.881  0.00  0.00    -0.057 NA
ATOM      5  C13 XNA d   1      -5.592  -3.193  20.409  0.00  0.00     0.154 A 
ATOM      6  C14 XNA d   1      -5.473  -4.580  20.873  0.00  0.00     0.157 A 
ATOM      7  N15 XNA d   1      -4.504  -5.402  20.409  0.00  0.00    -0.222 NA
ATOM      8  C16 XNA d   1      -3.609  -4.913  19.459  0.00  0.00     0.089 A 
ATOM      9  N17 XNA d   1      -3.624  -3.639  18.946  0.00  0.00    -0.236 NA
ATOM     10  C18 XNA d   1      -4.610  -2.824  19.434  0.00  0.00     0.138 A 
ATOM     11  H   XNA d   1      -2.839  -5.593  19.096  0.00  0.00     0.146 H 
ENDROOT
BRANCH   1  12
ATOM     12  N08 XNA d   1      -3.689  -1.089  17.994  0.00  0.00    -0.338 N 
ATOM     13  H   XNA d   1      -2.872  -1.683  17.853  0.00  0.00     0.167 HD
BRANCH  12  14
ATOM     14  C07 XNA d   1      -3.858   0.134  17.235  0.00  0.00     0.039 A 
ATOM     15  C02 XNA d   1      -3.559   0.101  15.815  0.00  0.00    -0.035 A 
ATOM     16  C03 XNA d   1      -3.699   1.320  15.064  0.00  0.00    -0.075 A 
ATOM     17  C04 XNA d   1      -4.137   2.528  15.713  0.00  0.00    -0.082 A 
ATOM     18  H   XNA d   1      -3.472   1.329  13.998  0.00  0.00     0.084 H 
ATOM     19  C05 XNA d   1      -4.445   2.552  17.124  0.00  0.00    -0.081 A 
ATOM     20  H   XNA d   1      -4.238   3.442  15.128  0.00  0.00     0.083 H 
ATOM     21  C06 XNA d   1      -4.299   1.339  17.891  0.00  0.00    -0.057 A 
ATOM     22  H   XNA d   1      -4.782   3.472  17.602  0.00  0.00     0.083 H 
ATOM     23  H   XNA d   1      -4.521   1.334  18.958  0.00  0.00     0.086 H 
BRANCH  15  24
ATOM     24  C01 XNA d   1      -3.116  -1.207  15.150  0.00  0.00    -0.049 C 
ATOM     25  H   XNA d   1      -3.829  -1.477  14.371  0.00  0.00     0.033 H 
ATOM     26  H   XNA d   1      -2.128  -1.073  14.710  0.00  0.00     0.033 H 
ATOM     27  H   XNA d   1      -3.077  -1.998  15.898  0.00  0.00     0.033 H 
ENDBRANCH  15  24
ENDBRANCH  12  14
ENDBRANCH   1  12
BRANCH   3  28
ATOM     28  N24 XNA d   1      -7.668  -0.133  20.915  0.00  0.00    -0.211 N 
ATOM     29  C25 XNA d   1      -7.712   1.270  20.642  0.00  0.00     0.034 C 
ATOM     30  C26 XNA d   1      -9.170   1.604  20.256  0.00  0.00     0.097 C 
ATOM     31  H   XNA d   1      -7.028   1.529  19.834  0.00  0.00     0.067 H 
ATOM     32  H   XNA d   1      -7.401   1.845  21.514  0.00  0.00     0.067 H 
ATOM     33  N27 XNA d   1     -10.108   1.227  21.405  0.00  0.00    -0.072 N 
ATOM     34  H   XNA d   1      -9.446   1.040  19.365  0.00  0.00     0.078 H 
ATOM     35  H   XNA d   1      -9.255   2.672  20.056  0.00  0.00     0.078 H 
ATOM     36  C28 XNA d   1      -9.936  -0.261  21.731  0.00  0.00     0.097 C 
ATOM     37  H   XNA d   1     -11.074   1.407  21.131  0.00  0.00     0.277 HD
ATOM     38  H   XNA d   1      -9.882   1.786  22.228  0.00  0.00     0.277 HD
ATOM     39  C29 XNA d   1      -8.452  -0.557  22.039  0.00  0.00     0.034 C 
ATOM     40  H   XNA d   1     -10.254  -0.858  20.876  0.00  0.00     0.078 H 
ATOM     41  H   XNA d   1     -10.543  -0.513  22.600  0.00  0.00     0.078 H 
ATOM     42  H   XNA d   1      -8.141  -0.021  22.936  0.00  0.00     0.067 H 
ATOM     43  H   XNA d   1      -8.311  -1.624  22.213  0.00  0.00     0.067 H 
ENDBRANCH   3  28
BRANCH   6  44
ATOM     44  N19 XNA d   1      -6.428  -5.056  21.883  0.00  0.00    -0.372 N 
ATOM     45  H   XNA d   1      -7.161  -4.444  22.242  0.00  0.00     0.161 HD
BRANCH  44  46
ATOM     46  C20 XNA d   1      -6.297  -6.434  22.359  0.00  0.00    -0.003 C 
ATOM     47  H   XNA d   1      -6.375  -6.478  23.445  0.00  0.00     0.064 H 
ATOM     48  H   XNA d   1      -5.322  -6.843  22.096  0.00  0.00     0.064 H 
BRANCH  46  49
ATOM     49  C21 XNA d   1      -7.426  -7.243  21.697  0.00  0.00    -0.039 A 
ATOM     50  C22 XNA d   1      -8.334  -7.953  22.703  0.00  0.00    -0.060 A 
ATOM     51  C23 XNA d   1      -7.336  -8.762  21.859  0.00  0.00    -0.060 A 
ATOM     52  H   XNA d   1      -9.389  -7.983  22.975  0.00  0.00     0.033 H 
ATOM     53  H   XNA d   1      -8.633  -7.856  23.747  0.00  0.00     0.033 H 
ATOM     54  H   XNA d   1      -6.572  -9.526  22.003  0.00  0.00     0.033 H 
ATOM     55  H   XNA d   1      -7.328  -9.653  21.232  0.00  0.00     0.033 H 
ATOM     56  H   XNA d   1      -7.568  -6.578  20.845  0.00  0.00     0.042 H 
ENDBRANCH  46  49
ENDBRANCH  44  46
ENDBRANCH   6  44
TORSDOF 7
