REMARK  8 active torsions:
REMARK  status: ('A' for Active; 'I' for Inactive)
REMARK    1  A    between atoms: C01_1  and  S02_2 
REMARK    2  A    between atoms: S02_2  and  C03_3 
REMARK    3  A    between atoms: C08_8  and  N09_9 
REMARK    4  A    between atoms: N09_9  and  C10_10 
REMARK    5  A    between atoms: C12_12  and  N25_25 
REMARK    6  A    between atoms: C15_15  and  N20_20 
REMARK    7  A    between atoms: N20_20  and  C21_21 
REMARK    8  A    between atoms: C21_21  and  C22_22 
ROOT
ATOM      1  C10 XNN d   1      -4.157  -1.520  18.814  0.00  0.00     0.178 A 
ATOM      2  N11 XNN d   1      -5.191  -0.781  19.237  0.00  0.00    -0.043 NA
ATOM      3  C12 XNN d   1      -6.180  -1.387  20.079  0.00  0.00     0.727 A 
ATOM      4  N13 XNN d   1      -6.137  -2.682  20.496  0.00  0.00    -0.057 NA
ATOM      5  C14 XNN d   1      -5.059  -3.443  20.064  0.00  0.00     0.154 A 
ATOM      6  C15 XNN d   1      -4.973  -4.876  20.493  0.00  0.00     0.157 A 
ATOM      7  N16 XNN d   1      -3.917  -5.632  20.080  0.00  0.00    -0.222 NA
ATOM      8  C17 XNN d   1      -2.991  -4.990  19.261  0.00  0.00     0.089 A 
ATOM      9  N18 XNN d   1      -2.983  -3.723  18.817  0.00  0.00    -0.236 NA
ATOM     10  C19 XNN d   1      -4.048  -2.934  19.235  0.00  0.00     0.138 A 
ATOM     11  H   XNN d   1      -2.152  -5.605  18.934  0.00  0.00     0.146 H 
ENDROOT
BRANCH   1  12
ATOM     12  N09 XNN d   1      -3.174  -0.925  17.920  0.00  0.00    -0.337 N 
ATOM     13  H   XNN d   1      -2.332  -1.452  17.687  0.00  0.00     0.167 HD
BRANCH  12  14
ATOM     14  C08 XNN d   1      -3.358   0.390  17.354  0.00  0.00     0.050 A 
ATOM     15  C03 XNN d   1      -2.757   0.580  16.073  0.00  0.00     0.026 A 
ATOM     16  C04 XNN d   1      -2.804   1.791  15.404  0.00  0.00    -0.065 A 
ATOM     17  C05 XNN d   1      -3.432   2.908  15.969  0.00  0.00    -0.082 A 
ATOM     18  H   XNN d   1      -2.344   1.877  14.420  0.00  0.00     0.085 H 
ATOM     19  C06 XNN d   1      -4.010   2.773  17.220  0.00  0.00    -0.081 A 
ATOM     20  H   XNN d   1      -3.465   3.859  15.438  0.00  0.00     0.083 H 
ATOM     21  C07 XNN d   1      -3.969   1.542  17.903  0.00  0.00    -0.056 A 
ATOM     22  H   XNN d   1      -4.502   3.629  17.681  0.00  0.00     0.083 H 
ATOM     23  H   XNN d   1      -4.425   1.474  18.891  0.00  0.00     0.087 H 
BRANCH  15  24
ATOM     24  S02 XNN d   1      -1.996  -0.844  15.313  0.00  0.00    -0.132 SA
BRANCH  24  25
ATOM     25  C01 XNN d   1      -2.779  -1.148  13.676  0.00  0.00    -0.030 C 
ATOM     26  H   XNN d   1      -3.845  -1.332  13.813  0.00  0.00     0.042 H 
ATOM     27  H   XNN d   1      -2.638  -0.274  13.040  0.00  0.00     0.042 H 
ATOM     28  H   XNN d   1      -2.316  -2.017  13.209  0.00  0.00     0.042 H 
ENDBRANCH  24  25
ENDBRANCH  15  24
ENDBRANCH  12  14
ENDBRANCH   1  12
BRANCH   3  29
ATOM     29  N25 XNN d   1      -7.256  -0.601  20.617  0.00  0.00    -0.212 N 
ATOM     30  C26 XNN d   1      -8.485  -0.988  21.431  0.00  0.00     0.023 C 
ATOM     31  C27 XNN d   1      -8.961   0.487  21.358  0.00  0.00     0.041 C 
ATOM     32  H   XNN d   1      -8.379  -1.490  22.392  0.00  0.00     0.066 H 
ATOM     33  H   XNN d   1      -9.136  -1.798  21.103  0.00  0.00     0.066 H 
ATOM     34  C28 XNN d   1      -9.223   1.049  22.792  0.00  0.00     0.093 C 
ATOM     35  C30 XNN d   1     -10.329   1.137  20.991  0.00  0.00     0.093 C 
ATOM     36  C31 XNN d   1      -7.799   0.792  20.365  0.00  0.00     0.023 C 
ATOM     37  N29 XNN d   1     -10.688   1.087  22.456  0.00  0.00    -0.073 N 
ATOM     38  H   XNN d   1      -8.705   1.938  23.151  0.00  0.00     0.077 H 
ATOM     39  H   XNN d   1      -8.862   0.524  23.677  0.00  0.00     0.077 H 
ATOM     40  H   XNN d   1     -11.294   1.798  22.864  0.00  0.00     0.277 HD
ATOM     41  H   XNN d   1     -11.319   0.367  22.810  0.00  0.00     0.277 HD
ATOM     42  H   XNN d   1     -10.979   0.694  20.236  0.00  0.00     0.077 H 
ATOM     43  H   XNN d   1     -10.377   2.071  20.431  0.00  0.00     0.077 H 
ATOM     44  H   XNN d   1      -8.010   1.131  19.351  0.00  0.00     0.066 H 
ATOM     45  H   XNN d   1      -7.166   1.668  20.504  0.00  0.00     0.066 H 
ENDBRANCH   3  29
BRANCH   6  46
ATOM     46  N20 XNN d   1      -5.990  -5.269  21.325  0.00  0.00    -0.372 N 
ATOM     47  H   XNN d   1      -6.633  -4.556  21.669  0.00  0.00     0.161 HD
BRANCH  46  48
ATOM     48  C21 XNN d   1      -6.208  -6.677  21.755  0.00  0.00    -0.003 C 
ATOM     49  H   XNN d   1      -7.256  -6.673  22.054  0.00  0.00     0.064 H 
ATOM     50  H   XNN d   1      -5.372  -6.848  22.433  0.00  0.00     0.064 H 
BRANCH  48  51
ATOM     51  C22 XNN d   1      -6.135  -7.871  20.840  0.00  0.00    -0.039 A 
ATOM     52  C23 XNN d   1      -7.391  -8.473  20.184  0.00  0.00    -0.060 A 
ATOM     53  C24 XNN d   1      -6.709  -9.225  21.305  0.00  0.00    -0.060 A 
ATOM     54  H   XNN d   1      -7.764  -8.676  19.180  0.00  0.00     0.033 H 
ATOM     55  H   XNN d   1      -8.398  -8.155  19.915  0.00  0.00     0.033 H 
ATOM     56  H   XNN d   1      -6.982  -9.715  22.240  0.00  0.00     0.033 H 
ATOM     57  H   XNN d   1      -6.350 -10.234  21.507  0.00  0.00     0.033 H 
ATOM     58  H   XNN d   1      -5.179  -7.503  20.467  0.00  0.00     0.042 H 
ENDBRANCH  48  51
ENDBRANCH  46  48
ENDBRANCH   6  46
TORSDOF 8
