REMARK  17 active torsions:
REMARK  status: ('A' for Active; 'I' for Inactive)
REMARK    1  A    between atoms: C1_1  and  O3_9 
REMARK    2  A    between atoms: N1_2  and  C4_10 
REMARK    3  A    between atoms: C2_4  and  O2_6 
REMARK       I    between atoms: C5_13  and  N2_5 
REMARK    4  A    between atoms: N2_5  and  C6_16 
REMARK    5  A    between atoms: C3_7  and  C5_13 
REMARK    6  A    between atoms: C6_16  and  C7_19 
REMARK    7  A    between atoms: C11_27  and  N6_17 
REMARK    8  A    between atoms: N6_17  and  C13_30 
REMARK       I    between atoms: N7_20  and  C27_44 
REMARK    9  A    between atoms: C28_45  and  N7_20 
REMARK   10  A    between atoms: N8_22  and  C29_46 
REMARK       I    between atoms: C30_47  and  N8_22 
REMARK       I    between atoms: N9_24  and  C30_47 
REMARK   11  A    between atoms: C31_48  and  N9_24 
REMARK   12  A    between atoms: C40_57  and  N10_26 
REMARK   13  A    between atoms: C27_44  and  C12_29 
REMARK   14  A    between atoms: C13_30  and  C14_31 
REMARK   15  A    between atoms: C14_31  and  C15_32 
REMARK   16  A    between atoms: C14_31  and  C16_33 
REMARK   17  A    between atoms: C29_46  and  C28_45 
ROOT
ATOM      1  N1  UKA d   1      -4.329  -9.927  51.368  0.00  0.00    -0.294 N 
ATOM      2  N3  UKA d   1      -4.278  -8.013  52.455  0.00  0.00    -0.236 NA
ATOM      3  N4  UKA d   1      -5.990 -10.020  55.012  0.00  0.00    -0.204 NA
ATOM      4  N5  UKA d   1      -5.467 -11.213  53.094  0.00  0.00    -0.204 NA
ATOM      5  C8  UKA d   1      -3.944  -8.643  51.309  0.00  0.00     0.071 A 
ATOM      6  C9  UKA d   1      -4.882  -8.926  53.246  0.00  0.00     0.149 A 
ATOM      7  C10 UKA d   1      -4.908 -10.116  52.548  0.00  0.00     0.168 A 
ATOM      8  C11 UKA d   1      -5.455  -8.894  54.519  0.00  0.00     0.159 A 
ATOM      9  C12 UKA d   1      -5.996 -11.170  54.316  0.00  0.00     0.222 A 
ATOM     10  H   UKA d   1      -3.438  -8.178  50.463  0.00  0.00     0.144 H 
ENDROOT
BRANCH   9  11
ATOM     11  C27 UKA d   1      -6.665 -12.361  54.929  0.00  0.00     0.289 C 
ATOM     12  O5  UKA d   1      -6.525 -13.478  54.454  0.00  0.00    -0.264 OA
ATOM     13  N7  UKA d   1      -7.482 -12.049  55.949  0.00  0.00    -0.353 N 
ATOM     14  H   UKA d   1      -7.455 -11.088  56.291  0.00  0.00     0.162 HD
BRANCH  13  15
ATOM     15  C28 UKA d   1      -8.397 -12.959  56.604  0.00  0.00     0.010 C 
ATOM     16  H   UKA d   1      -8.592 -13.802  55.941  0.00  0.00     0.066 H 
ATOM     17  H   UKA d   1      -9.321 -12.427  56.832  0.00  0.00     0.066 H 
BRANCH  15  18
ATOM     18  C29 UKA d   1      -7.802 -13.478  57.891  0.00  0.00     0.011 C 
ATOM     19  H   UKA d   1      -8.453 -14.282  58.235  0.00  0.00     0.066 H 
ATOM     20  H   UKA d   1      -6.778 -13.774  57.665  0.00  0.00     0.066 H 
BRANCH  18  21
ATOM     21  N8  UKA d   1      -7.727 -12.511  58.973  0.00  0.00    -0.342 N 
ATOM     22  C30 UKA d   1      -8.747 -12.219  59.770  0.00  0.00     0.316 C 
ATOM     23  O6  UKA d   1      -9.825 -12.732  59.604  0.00  0.00    -0.247 OA
ATOM     24  N9  UKA d   1      -8.555 -11.337  60.743  0.00  0.00    -0.338 N 
ATOM     25  H   UKA d   1      -7.631 -10.914  60.830  0.00  0.00     0.164 HD
ATOM     26  H   UKA d   1      -6.841 -12.030  59.129  0.00  0.00     0.164 HD
BRANCH  24  27
ATOM     27  C31 UKA d   1      -9.587 -10.934  61.699  0.00  0.00     0.017 C 
ATOM     28  C32 UKA d   1     -10.527  -9.893  61.095  0.00  0.00    -0.031 C 
ATOM     29  C33 UKA d   1     -11.396  -9.191  62.135  0.00  0.00    -0.002 C 
ATOM     30  H   UKA d   1     -11.192 -10.411  60.404  0.00  0.00     0.038 H 
ATOM     31  H   UKA d   1      -9.912  -9.134  60.612  0.00  0.00     0.038 H 
ATOM     32  N10 UKA d   1     -10.518  -8.749  63.227  0.00  0.00    -0.366 N 
ATOM     33  H   UKA d   1     -11.905  -8.337  61.689  0.00  0.00     0.064 H 
ATOM     34  H   UKA d   1     -12.159  -9.872  62.514  0.00  0.00     0.064 H 
ATOM     35  C34 UKA d   1      -9.866  -9.830  63.960  0.00  0.00    -0.002 C 
ATOM     36  C35 UKA d   1      -8.883 -10.401  62.953  0.00  0.00    -0.031 C 
ATOM     37  H   UKA d   1     -10.574 -10.576  64.321  0.00  0.00     0.064 H 
ATOM     38  H   UKA d   1      -9.376  -9.481  64.869  0.00  0.00     0.064 H 
ATOM     39  H   UKA d   1      -8.205  -9.603  62.650  0.00  0.00     0.038 H 
ATOM     40  H   UKA d   1      -8.355 -11.230  63.425  0.00  0.00     0.038 H 
ATOM     41  H   UKA d   1     -10.210 -11.789  61.961  0.00  0.00     0.072 H 
BRANCH  32  42
ATOM     42  C40 UKA d   1     -10.274  -7.381  63.542  0.00  0.00     0.125 A 
ATOM     43  N11 UKA d   1      -9.295  -7.063  64.437  0.00  0.00    -0.244 NA
ATOM     44  C39 UKA d   1      -8.988  -5.801  64.772  0.00  0.00     0.004 A 
ATOM     45  C38 UKA d   1      -9.681  -4.734  64.194  0.00  0.00    -0.066 A 
ATOM     46  H   UKA d   1      -8.197  -5.607  65.496  0.00  0.00     0.114 H 
ATOM     47  C37 UKA d   1     -10.693  -5.003  63.275  0.00  0.00    -0.078 A 
ATOM     48  H   UKA d   1      -9.433  -3.706  64.458  0.00  0.00     0.085 H 
ATOM     49  C36 UKA d   1     -10.990  -6.331  62.949  0.00  0.00    -0.039 A 
ATOM     50  H   UKA d   1     -11.248  -4.186  62.814  0.00  0.00     0.083 H 
ATOM     51  H   UKA d   1     -11.781  -6.550  62.231  0.00  0.00     0.089 H 
ENDBRANCH  32  42
ENDBRANCH  24  27
ENDBRANCH  18  21
ENDBRANCH  15  18
ENDBRANCH  13  15
ENDBRANCH   9  11
BRANCH   8  52
ATOM     52  N6  UKA d   1      -5.428  -7.797  55.305  0.00  0.00    -0.372 N 
ATOM     53  H   UKA d   1      -5.225  -6.883  54.901  0.00  0.00     0.161 HD
BRANCH  52  54
ATOM     54  C13 UKA d   1      -5.689  -7.924  56.731  0.00  0.00     0.005 C 
ATOM     55  H   UKA d   1      -4.853  -7.481  57.272  0.00  0.00     0.065 H 
ATOM     56  H   UKA d   1      -5.809  -8.982  56.963  0.00  0.00     0.065 H 
BRANCH  54  57
ATOM     57  C14 UKA d   1      -6.963  -7.198  57.143  0.00  0.00     0.012 C 
ATOM     58  H   UKA d   1      -6.983  -6.219  56.664  0.00  0.00     0.057 H 
BRANCH  57  59
ATOM     59  C15 UKA d   1      -6.999  -6.930  58.601  0.00  0.00    -0.048 A 
ATOM     60  C17 UKA d   1      -7.676  -5.806  59.029  0.00  0.00    -0.076 A 
ATOM     61  C18 UKA d   1      -7.726  -5.492  60.370  0.00  0.00    -0.082 A 
ATOM     62  H   UKA d   1      -8.174  -5.163  58.303  0.00  0.00     0.084 H 
ATOM     63  C19 UKA d   1      -7.092  -6.289  61.310  0.00  0.00    -0.083 A 
ATOM     64  H   UKA d   1      -8.271  -4.606  60.695  0.00  0.00     0.083 H 
ATOM     65  C20 UKA d   1      -6.409  -7.417  60.901  0.00  0.00    -0.082 A 
ATOM     66  H   UKA d   1      -7.132  -6.027  62.367  0.00  0.00     0.083 H 
ATOM     67  C21 UKA d   1      -6.363  -7.738  59.541  0.00  0.00    -0.076 A 
ATOM     68  H   UKA d   1      -5.910  -8.052  61.633  0.00  0.00     0.083 H 
ATOM     69  H   UKA d   1      -5.825  -8.628  59.214  0.00  0.00     0.084 H 
ENDBRANCH  57  59
BRANCH  57  70
ATOM     70  C16 UKA d   1      -8.131  -7.959  56.681  0.00  0.00    -0.048 A 
ATOM     71  C22 UKA d   1      -8.673  -8.983  57.436  0.00  0.00    -0.076 A 
ATOM     72  C23 UKA d   1      -9.768  -9.685  56.947  0.00  0.00    -0.082 A 
ATOM     73  H   UKA d   1      -8.245  -9.237  58.406  0.00  0.00     0.084 H 
ATOM     74  C24 UKA d   1     -10.318  -9.356  55.717  0.00  0.00    -0.083 A 
ATOM     75  H   UKA d   1     -10.197 -10.498  57.533  0.00  0.00     0.083 H 
ATOM     76  C25 UKA d   1      -9.768  -8.318  54.958  0.00  0.00    -0.082 A 
ATOM     77  H   UKA d   1     -11.180  -9.907  55.341  0.00  0.00     0.083 H 
ATOM     78  C26 UKA d   1      -8.671  -7.624  55.444  0.00  0.00    -0.076 A 
ATOM     79  H   UKA d   1     -10.199  -8.057  53.991  0.00  0.00     0.083 H 
ATOM     80  H   UKA d   1      -8.232  -6.817  54.858  0.00  0.00     0.084 H 
ENDBRANCH  57  70
ENDBRANCH  54  57
ENDBRANCH  52  54
ENDBRANCH   8  52
BRANCH   1  81
ATOM     81  C4  UKA d   1      -4.161 -11.001  50.329  0.00  0.00     0.140 C 
ATOM     82  C1  UKA d   1      -5.403 -11.128  49.465  0.00  0.00     0.105 C 
ATOM     83  C2  UKA d   1      -5.108 -10.230  48.272  0.00  0.00     0.098 C 
ATOM     84  H   UKA d   1      -6.332 -10.829  49.950  0.00  0.00     0.093 H 
ATOM     85  C3  UKA d   1      -3.608 -10.308  48.118  0.00  0.00     0.144 C 
ATOM     86  H   UKA d   1      -5.494  -9.227  48.452  0.00  0.00     0.091 H 
ATOM     87  O1  UKA d   1      -3.103 -10.716  49.404  0.00  0.00    -0.346 OA
ATOM     88  H   UKA d   1      -3.294 -11.025  47.359  0.00  0.00     0.102 H 
ATOM     89  H   UKA d   1      -3.952 -11.906  50.900  0.00  0.00     0.123 H 
BRANCH  82  90
ATOM     90  O3  UKA d   1      -5.576 -12.503  49.107  0.00  0.00    -0.388 OA
ATOM     91  H   UKA d   1      -6.311 -12.583  48.495  0.00  0.00     0.210 HD
ENDBRANCH  82  90
BRANCH  83  92
ATOM     92  O2  UKA d   1      -5.735 -10.642  47.065  0.00  0.00    -0.390 OA
ATOM     93  H   UKA d   1      -6.687 -10.647  47.186  0.00  0.00     0.210 HD
ENDBRANCH  83  92
BRANCH  85  94
ATOM     94  C5  UKA d   1      -3.071  -8.983  47.659  0.00  0.00     0.249 C 
ATOM     95  N2  UKA d   1      -2.166  -8.962  46.660  0.00  0.00    -0.359 N 
ATOM     96  H   UKA d   1      -1.872  -9.847  46.246  0.00  0.00     0.162 HD
ATOM     97  O4  UKA d   1      -3.473  -7.970  48.199  0.00  0.00    -0.271 OA
BRANCH  95  98
ATOM     98  C6  UKA d   1      -1.590  -7.719  46.147  0.00  0.00    -0.008 C 
ATOM     99  H   UKA d   1      -0.742  -7.473  46.787  0.00  0.00     0.063 H 
ATOM    100  H   UKA d   1      -2.387  -6.976  46.145  0.00  0.00     0.063 H 
BRANCH  98 101
ATOM    101  C7  UKA d   1      -1.065  -7.806  44.733  0.00  0.00    -0.061 C 
ATOM    102  H   UKA d   1      -0.282  -8.562  44.684  0.00  0.00     0.029 H 
ATOM    103  H   UKA d   1      -1.879  -8.079  44.061  0.00  0.00     0.029 H 
ATOM    104  H   UKA d   1      -0.657  -6.839  44.438  0.00  0.00     0.029 H 
ENDBRANCH  98 101
ENDBRANCH  95  98
ENDBRANCH  85  94
ENDBRANCH   1  81
TORSDOF 17
