REMARK  5 active torsions:
REMARK  status: ('A' for Active; 'I' for Inactive)
REMARK    1  A    between atoms: C6_5  and  N6_14 
REMARK    2  A    between atoms: N6_14  and  C12_13 
REMARK    3  A    between atoms: N4_17  and  C2_18 
REMARK    4  A    between atoms: C3_20  and  C11_21 
REMARK    5  A    between atoms: C1_22  and  N7_23 
ROOT
ATOM      1  C4  QAR d   1      21.551  15.945  21.452  0.00  0.00     0.104 A 
ATOM      2  C5  QAR d   1      22.637  16.397  20.701  0.00  0.00     0.104 A 
ATOM      3  C6  QAR d   1      23.124  14.451  21.478  0.00  0.00     0.728 A 
ATOM      4  C7  QAR d   1      20.410  16.749  21.580  0.00  0.00    -0.053 A 
ATOM      5  C8  QAR d   1      20.361  18.001  20.960  0.00  0.00    -0.081 A 
ATOM      6  C10 QAR d   1      22.592  17.650  20.084  0.00  0.00    -0.052 A 
ATOM      7  N5  QAR d   1      23.579  15.457  20.738  0.00  0.00    -0.061 NA
ATOM      8  C9  QAR d   1      21.456  18.452  20.211  0.00  0.00    -0.081 A 
ATOM      9  N4  QAR d   1      21.891  14.740  21.913  0.00  0.00     0.031 N 
ATOM     10  H   QAR d   1      19.559  16.397  22.164  0.00  0.00     0.087 H 
ATOM     11  H   QAR d   1      19.473  18.625  21.059  0.00  0.00     0.083 H 
ATOM     12  H   QAR d   1      23.445  18.002  19.503  0.00  0.00     0.087 H 
ATOM     13  H   QAR d   1      21.421  19.428  19.728  0.00  0.00     0.083 H 
ENDROOT
BRANCH   9  14
ATOM     14  C2  QAR d   1      21.138  13.939  22.685  0.00  0.00     0.765 A 
ATOM     15  N3  QAR d   1      21.733  12.974  23.402  0.00  0.00    -0.045 NA
ATOM     16  C3  QAR d   1      21.008  12.155  24.179  0.00  0.00     0.160 A 
ATOM     17  N1  QAR d   1      19.680  12.281  24.259  0.00  0.00    -0.047 NA
ATOM     18  C1  QAR d   1      19.079  13.246  23.551  0.00  0.00     0.737 A 
ATOM     19  N2  QAR d   1      19.801  14.072  22.765  0.00  0.00     0.131 NA
BRANCH  16  20
ATOM     20  C11 QAR d   1      21.699  11.071  24.981  0.00  0.00    -0.018 C 
ATOM     21  H   QAR d   1      21.505  11.226  26.042  0.00  0.00     0.037 H 
ATOM     22  H   QAR d   1      21.315  10.097  24.679  0.00  0.00     0.037 H 
ATOM     23  H   QAR d   1      22.773  11.113  24.797  0.00  0.00     0.037 H 
ENDBRANCH  16  20
BRANCH  18  24
ATOM     24  N7  QAR d   1      17.764  13.365  23.638  0.00  0.00    -0.230 N 
ATOM     25  H   QAR d   1      17.281  14.089  23.106  0.00  0.00     0.174 HD
ATOM     26  H   QAR d   1      17.233  12.732  24.237  0.00  0.00     0.174 HD
ENDBRANCH  18  24
ENDBRANCH   9  14
BRANCH   3  27
ATOM     27  N6  QAR d   1      23.777  13.310  21.759  0.00  0.00    -0.172 N 
ATOM     28  H   QAR d   1      23.226  12.583  22.215  0.00  0.00     0.186 HD
BRANCH  27  29
ATOM     29  C12 QAR d   1      25.065  13.004  21.516  0.00  0.00     0.138 A 
ATOM     30  C13 QAR d   1      25.704  11.997  22.102  0.00  0.00    -0.020 A 
ATOM     31  C14 QAR d   1      26.930  12.011  21.591  0.00  0.00     0.025 A 
ATOM     32  H   QAR d   1      25.306  11.306  22.845  0.00  0.00     0.091 H 
ATOM     33  N8  QAR d   1      26.994  13.017  20.718  0.00  0.00    -0.186 NA
ATOM     34  H   QAR d   1      27.738  11.324  21.840  0.00  0.00     0.117 H 
ATOM     35  N9  QAR d   1      25.904  13.598  20.670  0.00  0.00    -0.262 N 
ATOM     36  H   QAR d   1      25.684  14.400  20.080  0.00  0.00     0.190 HD
ENDBRANCH  27  29
ENDBRANCH   3  27
TORSDOF 5
