REMARK  15 active torsions:
REMARK  status: ('A' for Active; 'I' for Inactive)
REMARK    1  A    between atoms: C5_3  and  N52_26 
REMARK    2  A    between atoms: C7_4  and  O50_25 
REMARK    3  A    between atoms: C9_5  and  C14_7 
REMARK    4  A    between atoms: C14_7  and  C17_8 
REMARK    5  A    between atoms: C20_10  and  C28_15 
REMARK    6  A    between atoms: C21_11  and  O26_14 
REMARK    7  A    between atoms: C28_15  and  C31_16 
REMARK    8  A    between atoms: N33_17  and  C40_22 
REMARK    9  A    between atoms: C40_22  and  C43_23 
REMARK   10  A    between atoms: C43_23  and  C46_24 
REMARK   11  A    between atoms: N52_26  and  C54_27 
REMARK   12  A    between atoms: C54_27  and  C57_28 
REMARK   13  A    between atoms: C60_30  and  C67_34 
REMARK   14  A    between atoms: C67_34  and  C69_35 
REMARK   15  A    between atoms: C67_34  and  C73_36 
ROOT
ATOM      1  S1  QBH d   1      28.778   5.215  14.300  0.00  0.00     0.147 S 
ATOM      2  C2  QBH d   1      29.593   3.623  14.107  0.00  0.00     0.058 C 
ATOM      3  C5  QBH d   1      30.970   3.833  13.407  0.00  0.00     0.139 C 
ATOM      4  C7  QBH d   1      31.925   4.785  14.198  0.00  0.00     0.068 C 
ATOM      5  C9  QBH d   1      31.368   6.209  14.517  0.00  0.00    -0.011 C 
ATOM      6  C11 QBH d   1      29.988   6.118  15.250  0.00  0.00     0.035 C 
ATOM      7  O77 QBH d   1      27.596   4.996  15.101  0.00  0.00    -0.228 OA
ATOM      8  O78 QBH d   1      28.637   5.846  13.000  0.00  0.00    -0.228 OA
ATOM      9  H1  QBH d   1      28.965   2.961  13.493  0.00  0.00     0.059 H 
ATOM     10  H2  QBH d   1      29.749   3.167  15.096  0.00  0.00     0.059 H 
ATOM     11  H3  QBH d   1      30.757   4.327  12.447  0.00  0.00     0.089 H 
ATOM     12  H4  QBH d   1      32.127   4.306  15.167  0.00  0.00     0.086 H 
ATOM     13  H5  QBH d   1      31.203   6.722  13.558  0.00  0.00     0.045 H 
ATOM     14  H6  QBH d   1      30.132   5.609  16.215  0.00  0.00     0.056 H 
ATOM     15  H7  QBH d   1      29.612   7.137  15.425  0.00  0.00     0.056 H 
ENDROOT
BRANCH   5  16
ATOM     16  C14 QBH d   1      32.394   7.070  15.342  0.00  0.00    -0.034 C 
ATOM     17  H8  QBH d   1      33.249   7.310  14.693  0.00  0.00     0.040 H 
ATOM     18  H9  QBH d   1      32.740   6.473  16.199  0.00  0.00     0.040 H 
BRANCH  16  19
ATOM     19  C17 QBH d   1      31.802   8.386  15.873  0.00  0.00    -0.057 A 
ATOM     20  C18 QBH d   1      31.516   8.525  17.255  0.00  0.00    -0.068 A 
ATOM     21  C20 QBH d   1      30.955   9.716  17.776  0.00  0.00    -0.022 A 
ATOM     22  H10 QBH d   1      31.732   7.702  17.927  0.00  0.00     0.085 H 
ATOM     23  C21 QBH d   1      30.677  10.783  16.874  0.00  0.00     0.072 A 
ATOM     24  C22 QBH d   1      30.971  10.657  15.496  0.00  0.00    -0.050 A 
ATOM     25  C24 QBH d   1      31.534   9.463  14.991  0.00  0.00    -0.074 A 
ATOM     26  H11 QBH d   1      30.763  11.481  14.823  0.00  0.00     0.087 H 
ATOM     27  H12 QBH d   1      31.760   9.371  13.935  0.00  0.00     0.084 H 
BRANCH  21  28
ATOM     28  C28 QBH d   1      30.665   9.819  19.291  0.00  0.00    -0.017 C 
ATOM     29  H14 QBH d   1      30.607  10.886  19.552  0.00  0.00     0.043 H 
ATOM     30  H15 QBH d   1      31.506   9.355  19.828  0.00  0.00     0.043 H 
BRANCH  28  31
ATOM     31  C31 QBH d   1      29.352   9.136  19.777  0.00  0.00     0.042 C 
ATOM     32  N33 QBH d   1      29.238   7.683  19.688  0.00  0.00    -0.321 N 
ATOM     33  C34 QBH d   1      28.180   7.268  18.940  0.00  0.00     0.363 C 
ATOM     34  O35 QBH d   1      27.525   8.332  18.457  0.00  0.00    -0.302 OA
ATOM     35  O39 QBH d   1      27.822   6.128  18.692  0.00  0.00    -0.238 OA
ATOM     36  C36 QBH d   1      28.052   9.535  19.042  0.00  0.00     0.050 C 
ATOM     37  H17 QBH d   1      28.271  10.274  18.257  0.00  0.00     0.078 H 
ATOM     38  H18 QBH d   1      27.329   9.959  19.754  0.00  0.00     0.078 H 
ATOM     39  H16 QBH d   1      29.259   9.422  20.835  0.00  0.00     0.076 H 
BRANCH  32  40
ATOM     40  C40 QBH d   1      30.162   6.726  20.319  0.00  0.00    -0.000 C 
ATOM     41  H19 QBH d   1      31.169   6.915  19.919  0.00  0.00     0.064 H 
ATOM     42  H20 QBH d   1      29.841   5.712  20.039  0.00  0.00     0.064 H 
BRANCH  40  43
ATOM     43  C43 QBH d   1      30.244   6.789  21.866  0.00  0.00    -0.053 C 
ATOM     44  H21 QBH d   1      29.235   6.678  22.289  0.00  0.00     0.034 H 
ATOM     45  H22 QBH d   1      30.664   7.759  22.169  0.00  0.00     0.034 H 
BRANCH  43  46
ATOM     46  C46 QBH d   1      31.153   5.646  22.396  0.00  0.00    -0.075 C 
ATOM     47  H23 QBH d   1      31.205   5.698  23.494  0.00  0.00     0.027 H 
ATOM     48  H24 QBH d   1      32.163   5.756  21.975  0.00  0.00     0.027 H 
ATOM     49  H25 QBH d   1      30.734   4.675  22.095  0.00  0.00     0.027 H 
ENDBRANCH  43  46
ENDBRANCH  40  43
ENDBRANCH  32  40
ENDBRANCH  28  31
ENDBRANCH  21  28
BRANCH  23  50
ATOM     50  O26 QBH d   1      30.106  11.977  17.310  0.00  0.00    -0.360 OA
ATOM     51  H13 QBH d   1      30.693  12.698  17.113  0.00  0.00     0.217 HD
ENDBRANCH  23  50
ENDBRANCH  16  19
ENDBRANCH   5  16
BRANCH   4  52
ATOM     52  O50 QBH d   1      33.164   4.865  13.474  0.00  0.00    -0.393 OA
ATOM     53  H26 QBH d   1      33.805   5.333  13.996  0.00  0.00     0.210 HD
ENDBRANCH   4  52
BRANCH   3  54
ATOM     54  N52 QBH d   1      31.649   2.544  13.087  0.00  0.00    -0.064 N 
ATOM     55  H27 QBH d   1      31.681   2.011  13.942  0.00  0.00     0.278 HD
ATOM     56  H28 QBH d   1      32.587   2.772  12.798  0.00  0.00     0.278 HD
BRANCH  54  57
ATOM     57  C54 QBH d   1      31.077   1.641  12.033  0.00  0.00     0.106 C 
ATOM     58  H29 QBH d   1      30.072   1.321  12.345  0.00  0.00     0.083 H 
ATOM     59  H30 QBH d   1      31.726   0.759  11.928  0.00  0.00     0.083 H 
BRANCH  57  60
ATOM     60  C57 QBH d   1      30.975   2.353  10.668  0.00  0.00    -0.032 A 
ATOM     61  C58 QBH d   1      32.141   2.740   9.965  0.00  0.00    -0.069 A 
ATOM     62  C60 QBH d   1      32.066   3.398   8.708  0.00  0.00    -0.054 A 
ATOM     63  H31 QBH d   1      33.113   2.530  10.396  0.00  0.00     0.085 H 
ATOM     64  C61 QBH d   1      30.789   3.668   8.163  0.00  0.00    -0.076 A 
ATOM     65  C63 QBH d   1      29.613   3.288   8.853  0.00  0.00    -0.082 A 
ATOM     66  H32 QBH d   1      30.710   4.171   7.206  0.00  0.00     0.084 H 
ATOM     67  C65 QBH d   1      29.704   2.630  10.105  0.00  0.00    -0.075 A 
ATOM     68  H33 QBH d   1      28.641   3.501   8.423  0.00  0.00     0.083 H 
ATOM     69  H34 QBH d   1      28.802   2.339  10.632  0.00  0.00     0.084 H 
BRANCH  62  70
ATOM     70  C67 QBH d   1      33.353   3.807   7.957  0.00  0.00    -0.036 C 
ATOM     71  H35 QBH d   1      33.034   4.102   6.947  0.00  0.00     0.046 H 
BRANCH  70  72
ATOM     72  C69 QBH d   1      33.986   5.062   8.614  0.00  0.00    -0.069 C 
ATOM     73  H36 QBH d   1      34.900   5.340   8.069  0.00  0.00     0.028 H 
ATOM     74  H37 QBH d   1      34.237   4.840   9.662  0.00  0.00     0.028 H 
ATOM     75  H38 QBH d   1      33.270   5.896   8.578  0.00  0.00     0.028 H 
ENDBRANCH  70  72
BRANCH  70  76
ATOM     76  C73 QBH d   1      34.404   2.681   7.757  0.00  0.00    -0.069 C 
ATOM     77  H39 QBH d   1      33.923   1.809   7.290  0.00  0.00     0.028 H 
ATOM     78  H40 QBH d   1      34.821   2.391   8.733  0.00  0.00     0.028 H 
ATOM     79  H41 QBH d   1      35.212   3.045   7.106  0.00  0.00     0.028 H 
ENDBRANCH  70  76
ENDBRANCH  62  70
ENDBRANCH  57  60
ENDBRANCH  54  57
ENDBRANCH   3  54
TORSDOF 15
