REMARK  9 active torsions:
REMARK  status: ('A' for Active; 'I' for Inactive)
REMARK    1  A    between atoms: NAN_16  and  C2_2 
REMARK    2  A    between atoms: C4_4  and  NAO_17 
REMARK    3  A    between atoms: OAP_18  and  CAA_7 
REMARK    4  A    between atoms: CAI_13  and  CAH_12 
REMARK    5  A    between atoms: CAH_12  and  OAP_18 
REMARK    6  A    between atoms: OAQ_19  and  CAI_13 
REMARK    7  A    between atoms: CAS_20  and  NAN_16 
REMARK    8  A    between atoms: NAO_17  and  CAW_22 
REMARK    9  A    between atoms: OAQ_19  and  CAT_21 
ROOT
ATOM      1  CAC E9Z d   1      -2.392  33.719  -3.256  0.00  0.00    -0.054 A 
ATOM      2  CAD E9Z d   1      -1.175  35.566  -4.197  0.00  0.00    -0.054 A 
ATOM      3  CAE E9Z d   1      -1.824  33.985  -2.000  0.00  0.00    -0.049 A 
ATOM      4  CAF E9Z d   1      -0.611  35.838  -2.945  0.00  0.00    -0.049 A 
ATOM      5  CAS E9Z d   1      -2.070  34.503  -4.376  0.00  0.00     0.049 A 
ATOM      6  CAT E9Z d   1      -0.935  35.058  -1.830  0.00  0.00     0.069 A 
ATOM      7  H   E9Z d   1      -3.093  32.892  -3.364  0.00  0.00     0.087 H 
ATOM      8  H   E9Z d   1      -0.913  36.193  -5.049  0.00  0.00     0.087 H 
ATOM      9  H   E9Z d   1      -2.076  33.352  -1.149  0.00  0.00     0.087 H 
ATOM     10  H   E9Z d   1       0.089  36.667  -2.838  0.00  0.00     0.087 H 
ENDROOT
BRANCH   5  11
ATOM     11  NAN E9Z d   1      -2.585  34.333  -5.625  0.00  0.00    -0.188 N 
ATOM     12  H   E9Z d   1      -2.608  35.187  -6.183  0.00  0.00     0.184 HD
BRANCH  11  13
ATOM     13  C2  E9Z d   1      -3.074  33.242  -6.269  0.00  0.00     0.728 A 
ATOM     14  N1  E9Z d   1      -2.969  33.157  -7.605  0.00  0.00    -0.073 NA
ATOM     15  C6  E9Z d   1      -3.435  32.126  -8.277  0.00  0.00     0.046 A 
ATOM     16  C5  E9Z d   1      -4.065  31.086  -7.621  0.00  0.00     0.098 A 
ATOM     17  H   E9Z d   1      -3.323  32.092  -9.361  0.00  0.00     0.118 H 
ATOM     18  C4  E9Z d   1      -4.199  31.173  -6.234  0.00  0.00     0.166 A 
ATOM     19 CL5  E9Z d   1      -4.662  29.749  -8.548  0.00  0.00    -0.079 Cl
ATOM     20  N3  E9Z d   1      -3.700  32.257  -5.619  0.00  0.00    -0.043 NA
BRANCH  18  21
ATOM     21  NAO E9Z d   1      -4.803  30.228  -5.475  0.00  0.00    -0.368 N 
ATOM     22  H   E9Z d   1      -4.820  29.259  -5.794  0.00  0.00     0.161 HD
BRANCH  21  23
ATOM     23  CAW E9Z d   1      -5.457  30.597  -4.150  0.00  0.00     0.011 A 
ATOM     24  CAJ E9Z d   1      -4.853  29.890  -2.903  0.00  0.00    -0.044 A 
ATOM     25  CAK E9Z d   1      -6.238  29.475  -3.462  0.00  0.00    -0.044 A 
ATOM     26  H   E9Z d   1      -3.917  29.427  -2.589  0.00  0.00     0.036 H 
ATOM     27  H   E9Z d   1      -4.391  30.149  -1.950  0.00  0.00     0.036 H 
ATOM     28  H   E9Z d   1      -7.246  29.299  -3.086  0.00  0.00     0.036 H 
ATOM     29  H   E9Z d   1      -6.760  28.560  -3.741  0.00  0.00     0.036 H 
ATOM     30  H   E9Z d   1      -5.679  31.628  -4.425  0.00  0.00     0.072 H 
ENDBRANCH  21  23
ENDBRANCH  18  21
ENDBRANCH  11  13
ENDBRANCH   5  11
BRANCH   6  31
ATOM     31  OAQ E9Z d   1      -0.363  35.314  -0.598  0.00  0.00    -0.349 OA
BRANCH  31  32
ATOM     32  CAI E9Z d   1      -0.603  36.634   0.021  0.00  0.00     0.046 C 
ATOM     33  H   E9Z d   1      -0.317  37.414  -0.684  0.00  0.00     0.078 H 
ATOM     34  H   E9Z d   1      -1.659  36.720   0.275  0.00  0.00     0.078 H 
BRANCH  32  35
ATOM     35  CAH E9Z d   1       0.252  36.789   1.329  0.00  0.00     0.039 C 
ATOM     36  H   E9Z d   1       0.804  37.723   1.228  0.00  0.00     0.077 H 
ATOM     37  H   E9Z d   1       0.860  35.888   1.410  0.00  0.00     0.077 H 
BRANCH  35  38
ATOM     38  OAP E9Z d   1      -0.519  36.890   2.590  0.00  0.00    -0.394 OA
BRANCH  38  39
ATOM     39  CAA E9Z d   1      -0.066  37.972   3.470  0.00  0.00     0.004 C 
ATOM     40  H   E9Z d   1       0.978  37.808   3.738  0.00  0.00     0.066 H 
ATOM     41  H   E9Z d   1      -0.163  38.925   2.951  0.00  0.00     0.066 H 
ATOM     42  H   E9Z d   1      -0.677  37.984   4.373  0.00  0.00     0.066 H 
ENDBRANCH  38  39
ENDBRANCH  35  38
ENDBRANCH  32  35
ENDBRANCH  31  32
ENDBRANCH   6  31
TORSDOF 9
