REMARK  8 active torsions:
REMARK  status: ('A' for Active; 'I' for Inactive)
REMARK    1  A    between atoms: C33_37  and  C_1 
REMARK    2  A    between atoms: N_3  and  C5_9 
REMARK    3  A    between atoms: C5_9  and  C6_10 
REMARK    4  A    between atoms: O21_25  and  C16_20 
REMARK    5  A    between atoms: C22_26  and  O21_25 
REMARK    6  A    between atoms: C23_27  and  C22_26 
REMARK    7  A    between atoms: C23_27  and  C24_28 
REMARK    8  A    between atoms: N32_36  and  C23_27 
REMARK       I    between atoms: N32_36  and  C33_37 
ROOT
ATOM      1  C23 MP7 d   1      13.655  34.842  23.744  0.00  0.00     0.059 C 
ATOM      2  H16 MP7 d   1      14.456  35.533  23.442  0.00  0.00     0.083 H 
ENDROOT
BRANCH   1   3
ATOM      3  C22 MP7 d   1      12.349  35.561  23.459  0.00  0.00     0.049 C 
ATOM      4  H14 MP7 d   1      11.500  34.878  23.611  0.00  0.00     0.078 H 
ATOM      5  H15 MP7 d   1      12.243  36.431  24.123  0.00  0.00     0.078 H 
BRANCH   3   6
ATOM      6  O21 MP7 d   1      12.401  35.989  22.085  0.00  0.00    -0.349 OA
BRANCH   6   7
ATOM      7  C16 MP7 d   1      11.420  36.765  21.531  0.00  0.00     0.071 A 
ATOM      8  C15 MP7 d   1      11.491  37.122  20.171  0.00  0.00    -0.023 A 
ATOM      9  C14 MP7 d   1      10.520  37.979  19.673  0.00  0.00     0.065 A 
ATOM     10  H9  MP7 d   1      12.279  36.739  19.533  0.00  0.00     0.091 H 
ATOM     11  C13 MP7 d   1       9.479  38.485  20.518  0.00  0.00     0.062 A 
ATOM     12  N20 MP7 d   1      10.301  38.483  18.452  0.00  0.00    -0.318 N 
ATOM     13  C18 MP7 d   1       9.419  38.088  21.870  0.00  0.00    -0.052 A 
ATOM     14  N19 MP7 d   1       8.663  39.249  19.767  0.00  0.00    -0.318 N 
ATOM     15  C17 MP7 d   1      10.401  37.269  22.397  0.00  0.00    -0.049 A 
ATOM     16  H11 MP7 d   1       8.602  38.425  22.497  0.00  0.00     0.087 H 
ATOM     17  H10 MP7 d   1      10.398  37.013  23.450  0.00  0.00     0.087 H 
ATOM     18  C30 MP7 d   1       9.235  39.232  18.528  0.00  0.00     0.257 A 
ATOM     19  H12 MP7 d   1       7.829  39.721  20.052  0.00  0.00     0.169 HD
ATOM     20  O31 MP7 d   1       8.762  39.848  17.485  0.00  0.00    -0.151 OA
ATOM     21  H13 MP7 d   1      10.852  38.316  17.634  0.00  0.00     0.169 HD
ENDBRANCH   6   7
ENDBRANCH   3   6
ENDBRANCH   1   3
BRANCH   1  22
ATOM     22  C24 MP7 d   1      13.903  34.544  25.218  0.00  0.00    -0.033 A 
ATOM     23  C25 MP7 d   1      13.781  35.549  26.184  0.00  0.00    -0.075 A 
ATOM     24  C26 MP7 d   1      14.038  35.311  27.527  0.00  0.00    -0.082 A 
ATOM     25  H17 MP7 d   1      13.477  36.542  25.874  0.00  0.00     0.084 H 
ATOM     26  C27 MP7 d   1      14.452  34.038  27.944  0.00  0.00    -0.083 A 
ATOM     27  H18 MP7 d   1      13.919  36.108  28.252  0.00  0.00     0.083 H 
ATOM     28  C28 MP7 d   1      14.606  33.029  27.017  0.00  0.00    -0.082 A 
ATOM     29  H19 MP7 d   1      14.650  33.847  28.992  0.00  0.00     0.083 H 
ATOM     30  C29 MP7 d   1      14.323  33.286  25.652  0.00  0.00    -0.075 A 
ATOM     31  H20 MP7 d   1      14.941  32.047  27.330  0.00  0.00     0.083 H 
ATOM     32  H21 MP7 d   1      14.435  32.487  24.928  0.00  0.00     0.084 H 
ENDBRANCH   1  22
BRANCH   1  33
ATOM     33  N32 MP7 d   1      13.789  33.661  22.896  0.00  0.00    -0.346 N 
ATOM     34  C33 MP7 d   1      14.986  33.302  22.422  0.00  0.00     0.257 C 
ATOM     35  O34 MP7 d   1      16.053  33.795  22.813  0.00  0.00    -0.267 OA
ATOM     36  H22 MP7 d   1      12.981  33.118  22.669  0.00  0.00     0.163 HD
BRANCH  34  37
ATOM     37  C   MP7 d   1      15.104  32.213  21.385  0.00  0.00     0.100 A 
ATOM     38  C1  MP7 d   1      16.327  31.823  20.831  0.00  0.00    -0.061 A 
ATOM     39  C2  MP7 d   1      16.410  30.795  19.868  0.00  0.00    -0.067 A 
ATOM     40  H1  MP7 d   1      17.239  32.325  21.151  0.00  0.00     0.085 H 
ATOM     41  C3  MP7 d   1      15.276  30.090  19.444  0.00  0.00    -0.017 A 
ATOM     42  H2  MP7 d   1      17.381  30.543  19.443  0.00  0.00     0.085 H 
ATOM     43  N   MP7 d   1      14.079  30.449  19.955  0.00  0.00    -0.320 N 
ATOM     44  H3  MP7 d   1      15.358  29.277  18.724  0.00  0.00     0.111 H 
ATOM     45  C4  MP7 d   1      13.916  31.482  20.902  0.00  0.00     0.263 A 
ATOM     46  O   MP7 d   1      12.787  31.707  21.369  0.00  0.00    -0.267 OA
BRANCH  43  47
ATOM     47  C5  MP7 d   1      12.839  29.790  19.599  0.00  0.00     0.026 C 
ATOM     48  H4  MP7 d   1      12.941  29.414  18.570  0.00  0.00     0.072 H 
ATOM     49  H5  MP7 d   1      12.035  30.540  19.637  0.00  0.00     0.072 H 
BRANCH  47  50
ATOM     50  C6  MP7 d   1      12.434  28.635  20.475  0.00  0.00    -0.037 A 
ATOM     51  C7  MP7 d   1      13.340  27.901  21.195  0.00  0.00    -0.072 A 
ATOM     52  C8  MP7 d   1      12.880  26.814  21.949  0.00  0.00    -0.042 A 
ATOM     53  H6  MP7 d   1      14.393  28.157  21.181  0.00  0.00     0.084 H 
ATOM     54  C9  MP7 d   1      11.520  26.469  21.906  0.00  0.00     0.154 A 
ATOM     55  H7  MP7 d   1      13.569  26.243  22.561  0.00  0.00     0.088 H 
ATOM     56  C10 MP7 d   1      10.625  27.225  21.158  0.00  0.00     0.155 A 
ATOM     57  F12 MP7 d   1      11.080  25.454  22.583  0.00  0.00    -0.203 F 
ATOM     58  F   MP7 d   1       9.350  26.870  21.099  0.00  0.00    -0.203 F 
ATOM     59  C11 MP7 d   1      11.108  28.301  20.430  0.00  0.00    -0.035 A 
ATOM     60  H8  MP7 d   1      10.428  28.884  19.819  0.00  0.00     0.089 H 
ENDBRANCH  47  50
ENDBRANCH  43  47
ENDBRANCH  34  37
ENDBRANCH   1  33
TORSDOF 8
