REMARK  8 active torsions:
REMARK  status: ('A' for Active; 'I' for Inactive)
REMARK    1  A    between atoms: O3A_8  and  PB_1 
REMARK    2  A    between atoms: PA_5  and  O3A_8 
REMARK    3  A    between atoms: PA_5  and  O5'_9 
REMARK    4  A    between atoms: O5'_9  and  C5'_10 
REMARK    5  A    between atoms: C5'_10  and  C4'_11 
REMARK    6  A    between atoms: C3'_13  and  O3'_14 
REMARK    7  A    between atoms: C2'_15  and  O2'_16 
REMARK    8  A    between atoms: C1'_17  and  N9_18 
ROOT
ATOM      1  C4' ADP d   1     -43.827  -8.640  61.229  0.00  0.00     0.089 C 
ATOM      2  O4' ADP d   1     -44.471  -8.977  60.009  0.00  0.00    -0.353 OA
ATOM      3  C3' ADP d   1     -42.660  -9.600  61.369  0.00  0.00     0.091 C 
ATOM      4  C2' ADP d   1     -43.098 -10.803  60.561  0.00  0.00     0.105 C 
ATOM      5  C1' ADP d   1     -44.034 -10.237  59.515  0.00  0.00     0.139 C 
ATOM      6  H   ADP d   1     -44.484  -8.748  62.092  0.00  0.00     0.090 H 
ATOM      7  H   ADP d   1     -41.714  -9.182  61.026  0.00  0.00     0.091 H 
ATOM      8  H   ADP d   1     -42.234 -11.337  60.166  0.00  0.00     0.093 H 
ATOM      9  H   ADP d   1     -44.893 -10.872  59.297  0.00  0.00     0.122 H 
ENDROOT
BRANCH   5  10
ATOM     10  N9  ADP d   1     -43.204 -10.041  58.304  0.00  0.00    -0.294 N 
ATOM     11  C8  ADP d   1     -42.376  -8.994  58.107  0.00  0.00     0.071 A 
ATOM     12  N7  ADP d   1     -41.722  -9.095  56.920  0.00  0.00    -0.236 NA
ATOM     13  H   ADP d   1     -42.248  -8.171  58.811  0.00  0.00     0.144 H 
ATOM     14  C5  ADP d   1     -42.139 -10.238  56.335  0.00  0.00     0.149 A 
ATOM     15  C6  ADP d   1     -41.848 -10.932  55.063  0.00  0.00     0.155 A 
ATOM     16  C4  ADP d   1     -43.110 -10.865  57.253  0.00  0.00     0.167 A 
ATOM     17  N6  ADP d   1     -40.956 -10.399  54.194  0.00  0.00    -0.382 N 
ATOM     18  N1  ADP d   1     -42.479 -12.108  54.827  0.00  0.00    -0.222 NA
ATOM     19  H   ADP d   1     -40.487  -9.521  54.418  0.00  0.00     0.157 HD
ATOM     20  H   ADP d   1     -40.753 -10.875  53.315  0.00  0.00     0.157 HD
ATOM     21  C2  ADP d   1     -43.350 -12.622  55.713  0.00  0.00     0.091 A 
ATOM     22  N3  ADP d   1     -43.679 -12.038  56.887  0.00  0.00    -0.222 NA
ATOM     23  H   ADP d   1     -43.822 -13.573  55.468  0.00  0.00     0.146 H 
ENDBRANCH   5  10
BRANCH   4  24
ATOM     24  O2' ADP d   1     -43.872 -11.701  61.355  0.00  0.00    -0.388 OA
ATOM     25  H   ADP d   1     -43.345 -12.005  62.098  0.00  0.00     0.210 HD
ENDBRANCH   4  24
BRANCH   1  26
ATOM     26  C5' ADP d   1     -43.426  -7.168  61.239  0.00  0.00     0.058 C 
ATOM     27  H   ADP d   1     -44.322  -6.572  61.064  0.00  0.00     0.079 H 
ATOM     28  H   ADP d   1     -42.965  -6.950  62.202  0.00  0.00     0.079 H 
BRANCH  26  29
ATOM     29  O5' ADP d   1     -42.483  -6.857  60.218  0.00  0.00    -0.287 OA
BRANCH  29  30
ATOM     30  PA  ADP d   1     -41.140  -6.011  60.547  0.00  0.00     0.418 P 
ATOM     31  O1A ADP d   1     -40.403  -5.642  59.278  0.00  0.00    -0.624 OA
ATOM     32  O2A ADP d   1     -40.347  -6.799  61.559  0.00  0.00    -0.624 OA
BRANCH  30  33
ATOM     33  O3A ADP d   1     -41.754  -4.652  61.182  0.00  0.00    -0.173 OA
BRANCH  33  34
ATOM     34  PB  ADP d   1     -41.018  -3.787  62.331  0.00  0.00     0.431 P 
ATOM     35  O1B ADP d   1     -42.049  -2.749  62.678  0.00  0.00    -0.616 OA
ATOM     36  O2B ADP d   1     -39.755  -3.205  61.720  0.00  0.00    -0.616 OA
ATOM     37  O3B ADP d   1     -40.757  -4.826  63.391  0.00  0.00    -0.616 OA
ENDBRANCH  33  34
ENDBRANCH  30  33
ENDBRANCH  29  30
ENDBRANCH  26  29
ENDBRANCH   1  26
BRANCH   3  38
ATOM     38  O3' ADP d   1     -42.463  -9.952  62.748  0.00  0.00    -0.390 OA
ATOM     39  H   ADP d   1     -42.279  -9.159  63.256  0.00  0.00     0.210 HD
ENDBRANCH   3  38
TORSDOF 8
