REMARK  4 active torsions:
REMARK  status: ('A' for Active; 'I' for Inactive)
REMARK    1  A    between atoms: C1_1  and  S3_3 
REMARK    2  A    between atoms: C2_2  and  C6_6 
REMARK    3  A    between atoms: S3_3  and  C7_7 
REMARK    4  A    between atoms: C7_7  and  C11_11 
ROOT
ATOM      1  C7  NXY d   1      32.753  57.112  79.296  0.00  0.00     0.005 C 
ATOM      2  H   NXY d   1      33.506  57.600  79.915  0.00  0.00     0.056 H 
ATOM      3  H   NXY d   1      32.084  56.500  79.901  0.00  0.00     0.056 H 
ENDROOT
BRANCH   1   4
ATOM      4  S3  NXY d   1      33.591  56.044  78.099  0.00  0.00    -0.124 SA
BRANCH   4   5
ATOM      5  C1  NXY d   1      34.048  54.664  79.075  0.00  0.00     0.025 A 
ATOM      6  C2  NXY d   1      34.523  53.364  78.593  0.00  0.00     0.098 A 
ATOM      7  S5  NXY d   1      34.973  52.296  79.973  0.00  0.00    -0.094 SA
ATOM      8  C8  NXY d   1      34.487  53.484  81.221  0.00  0.00    -0.043 A 
ATOM      9  C4  NXY d   1      34.132  54.427  80.369  0.00  0.00    -0.059 A 
ATOM     10  H   NXY d   1      34.485  53.443  82.310  0.00  0.00     0.095 H 
ATOM     11  H   NXY d   1      33.795  55.305  80.920  0.00  0.00     0.086 H 
BRANCH   6  12
ATOM     12  C6  NXY d   1      34.605  52.990  77.163  0.00  0.00     0.218 C 
ATOM     13  O9  NXY d   1      34.922  51.813  76.893  0.00  0.00    -0.643 OA
ATOM     14  O10 NXY d   1      34.358  53.838  76.281  0.00  0.00    -0.643 OA
ENDBRANCH   6  12
ENDBRANCH   4   5
ENDBRANCH   1   4
BRANCH   1  15
ATOM     15  C11 NXY d   1      31.930  58.184  78.592  0.00  0.00    -0.047 A 
ATOM     16  C12 NXY d   1      30.525  57.940  78.444  0.00  0.00    -0.053 A 
ATOM     17  C14 NXY d   1      29.778  59.027  77.909  0.00  0.00     0.056 A 
ATOM     18  H   NXY d   1      30.063  56.992  78.721  0.00  0.00     0.087 H 
ATOM     19  C16 NXY d   1      30.418  60.237  77.484  0.00  0.00     0.055 A 
ATOM     20 CL17 NXY d   1      28.058  58.989  77.895  0.00  0.00    -0.083 Cl
ATOM     21  C15 NXY d   1      31.818  60.472  77.581  0.00  0.00    -0.060 A 
ATOM     22 CL18 NXY d   1      29.378  61.482  76.862  0.00  0.00    -0.083 Cl
ATOM     23  C13 NXY d   1      32.572  59.409  78.167  0.00  0.00    -0.074 A 
ATOM     24  H   NXY d   1      32.281  61.395  77.234  0.00  0.00     0.086 H 
ATOM     25  H   NXY d   1      33.648  59.523  78.296  0.00  0.00     0.084 H 
ENDBRANCH   1  15
TORSDOF 4
