REMARK  4 active torsions:
REMARK  status: ('A' for Active; 'I' for Inactive)
REMARK    1  A    between atoms: C1_1  and  S3_3 
REMARK    2  A    between atoms: C2_2  and  C6_6 
REMARK    3  A    between atoms: S3_3  and  C7_7 
REMARK    4  A    between atoms: C7_7  and  C11_11 
ROOT
ATOM      1  C7  NXY d   1      32.723  57.081  79.136  0.00  0.00     0.005 C 
ATOM      2  H2  NXY d   1      33.503  57.546  79.757  0.00  0.00     0.056 H 
ATOM      3  H3  NXY d   1      32.082  56.447  79.766  0.00  0.00     0.056 H 
ENDROOT
BRANCH   1   4
ATOM      4  S3  NXY d   1      33.478  56.093  77.845  0.00  0.00    -0.124 SA
BRANCH   4   5
ATOM      5  C1  NXY d   1      34.007  54.718  78.758  0.00  0.00     0.025 A 
ATOM      6  C2  NXY d   1      34.510  53.432  78.250  0.00  0.00     0.098 A 
ATOM      7  S5  NXY d   1      34.907  52.320  79.658  0.00  0.00    -0.094 SA
ATOM      8  C8  NXY d   1      34.538  53.568  80.887  0.00  0.00    -0.043 A 
ATOM      9  C4  NXY d   1      34.136  54.503  80.052  0.00  0.00    -0.059 A 
ATOM     10  H4  NXY d   1      34.620  53.557  81.973  0.00  0.00     0.095 H 
ATOM     11  H1  NXY d   1      33.804  55.379  80.608  0.00  0.00     0.086 H 
BRANCH   6  12
ATOM     12  C6  NXY d   1      34.659  53.156  76.795  0.00  0.00     0.218 C 
ATOM     13  O9  NXY d   1      34.877  51.993  76.393  0.00  0.00    -0.643 OA
ATOM     14  O10 NXY d   1      34.570  54.121  76.012  0.00  0.00    -0.643 OA
ENDBRANCH   6  12
ENDBRANCH   4   5
ENDBRANCH   1   4
BRANCH   1  15
ATOM     15  C11 NXY d   1      31.891  58.152  78.467  0.00  0.00    -0.047 A 
ATOM     16  C12 NXY d   1      30.502  57.881  78.354  0.00  0.00    -0.053 A 
ATOM     17  C14 NXY d   1      29.740  58.937  77.823  0.00  0.00     0.056 A 
ATOM     18  H5  NXY d   1      30.064  56.936  78.653  0.00  0.00     0.087 H 
ATOM     19  C16 NXY d   1      30.356  60.166  77.392  0.00  0.00     0.055 A 
ATOM     20 CL17 NXY d   1      28.049  58.776  77.835  0.00  0.00    -0.083 Cl
ATOM     21  C15 NXY d   1      31.753  60.439  77.457  0.00  0.00    -0.060 A 
ATOM     22 CL18 NXY d   1      29.324  61.428  76.820  0.00  0.00    -0.083 Cl
ATOM     23  C13 NXY d   1      32.514  59.386  78.026  0.00  0.00    -0.074 A 
ATOM     24  H7  NXY d   1      32.193  61.365  77.105  0.00  0.00     0.086 H 
ATOM     25  H6  NXY d   1      33.586  59.506  78.134  0.00  0.00     0.084 H 
ENDBRANCH   1  15
TORSDOF 4
