REMARK  6 active torsions:
REMARK  status: ('A' for Active; 'I' for Inactive)
REMARK    1  A    between atoms: C1_1  and  S6_6 
REMARK    2  A    between atoms: C5_5  and  C16_16 
REMARK    3  A    between atoms: S6_6  and  C7_7 
REMARK    4  A    between atoms: C7_7  and  C8_8 
REMARK       I    between atoms: C16_16  and  N17_17 
REMARK    5  A    between atoms: N17_17  and  S19_19 
REMARK    6  A    between atoms: S19_19  and  C20_20 
ROOT
ATOM      1  C1  NX2 d   1      20.032  30.337  62.553  0.00  0.00     0.024 A 
ATOM      2  C2  NX2 d   1      19.092  29.712  63.273  0.00  0.00    -0.059 A 
ATOM      3  C3  NX2 d   1      19.485  30.029  64.642  0.00  0.00    -0.043 A 
ATOM      4  S4  NX2 d   1      21.015  30.945  64.610  0.00  0.00    -0.095 SA
ATOM      5  C5  NX2 d   1      21.110  31.038  62.892  0.00  0.00     0.090 A 
ATOM      6  H1  NX2 d   1      18.248  29.118  62.925  0.00  0.00     0.086 H 
ATOM      7  H2  NX2 d   1      18.933  29.751  65.539  0.00  0.00     0.095 H 
ENDROOT
BRANCH   1   8
ATOM      8  S6  NX2 d   1      19.701  30.228  60.760  0.00  0.00    -0.124 SA
BRANCH   8   9
ATOM      9  C7  NX2 d   1      18.167  29.310  60.811  0.00  0.00     0.005 C 
ATOM     10  H3  NX2 d   1      17.390  29.946  61.259  0.00  0.00     0.056 H 
ATOM     11  H4  NX2 d   1      18.312  28.415  61.434  0.00  0.00     0.056 H 
BRANCH   9  12
ATOM     12  C8  NX2 d   1      17.713  28.882  59.456  0.00  0.00    -0.047 A 
ATOM     13  C9  NX2 d   1      17.954  27.509  59.097  0.00  0.00    -0.053 A 
ATOM     14  C12 NX2 d   1      17.469  27.132  57.809  0.00  0.00     0.056 A 
ATOM     15  H5  NX2 d   1      18.465  26.815  59.755  0.00  0.00     0.087 H 
ATOM     16  C13 NX2 d   1      16.791  28.100  56.968  0.00  0.00     0.055 A 
ATOM     17 CL15 NX2 d   1      17.709  25.513  57.220  0.00  0.00    -0.083 Cl
ATOM     18  C10 NX2 d   1      16.578  29.470  57.322  0.00  0.00    -0.060 A 
ATOM     19 CL14 NX2 d   1      16.176  27.549  55.467  0.00  0.00    -0.083 Cl
ATOM     20  C11 NX2 d   1      17.047  29.847  58.615  0.00  0.00    -0.074 A 
ATOM     21  H6  NX2 d   1      16.094  30.173  56.654  0.00  0.00     0.086 H 
ATOM     22  H7  NX2 d   1      16.903  30.862  58.967  0.00  0.00     0.084 H 
ENDBRANCH   9  12
ENDBRANCH   8   9
ENDBRANCH   1   8
BRANCH   5  23
ATOM     23  C16 NX2 d   1      22.145  31.744  62.111  0.00  0.00     0.273 C 
ATOM     24  N17 NX2 d   1      23.055  32.475  62.777  0.00  0.00    -0.250 N 
ATOM     25  H8  NX2 d   1      22.940  32.617  63.760  0.00  0.00     0.181 HD
ATOM     26  O18 NX2 d   1      22.141  31.648  60.893  0.00  0.00    -0.266 OA
BRANCH  24  27
ATOM     27  S19 NX2 d   1      24.376  33.154  62.004  0.00  0.00     0.229 S 
ATOM     28  O21 NX2 d   1      23.962  33.631  60.694  0.00  0.00    -0.206 OA
ATOM     29  O22 NX2 d   1      24.937  34.112  62.936  0.00  0.00    -0.206 OA
BRANCH  27  30
ATOM     30  C20 NX2 d   1      25.637  31.893  61.760  0.00  0.00     0.033 C 
ATOM     31  H9  NX2 d   1      26.506  32.337  61.252  0.00  0.00     0.051 H 
ATOM     32  H10 NX2 d   1      25.228  31.080  61.143  0.00  0.00     0.051 H 
ATOM     33  H11 NX2 d   1      25.948  31.492  62.736  0.00  0.00     0.051 H 
ENDBRANCH  27  30
ENDBRANCH  24  27
ENDBRANCH   5  23
TORSDOF 6
