REMARK  7 active torsions:
REMARK  status: ('A' for Active; 'I' for Inactive)
REMARK    1  A    between atoms: C2_2  and  C6_6 
REMARK    2  A    between atoms: C3_3  and  S10_10 
REMARK       I    between atoms: C6_6  and  N7_7 
REMARK    3  A    between atoms: N7_7  and  S9_9 
REMARK    4  A    between atoms: S9_9  and  C22_22 
REMARK    5  A    between atoms: S10_10  and  C11_11 
REMARK    6  A    between atoms: C11_11  and  C12_12 
REMARK    7  A    between atoms: C26_26  and  N28_28 
ROOT
ATOM      1  S1  NX3 d   1      20.684  30.792  64.749  0.00  0.00    -0.095 SA
ATOM      2  C2  NX3 d   1      20.591  30.886  63.045  0.00  0.00     0.090 A 
ATOM      3  C3  NX3 d   1      19.549  30.174  62.606  0.00  0.00     0.024 A 
ATOM      4  C4  NX3 d   1      18.736  29.587  63.669  0.00  0.00    -0.059 A 
ATOM      5  C5  NX3 d   1      19.270  29.824  64.858  0.00  0.00    -0.043 A 
ATOM      6  H1  NX3 d   1      17.815  29.030  63.506  0.00  0.00     0.086 H 
ATOM      7  H2  NX3 d   1      18.860  29.449  65.795  0.00  0.00     0.095 H 
ENDROOT
BRANCH   2   8
ATOM      8  C6  NX3 d   1      21.550  31.673  62.229  0.00  0.00     0.273 C 
ATOM      9  N7  NX3 d   1      22.492  32.365  62.875  0.00  0.00    -0.245 N 
ATOM     10  H3  NX3 d   1      22.634  32.207  63.852  0.00  0.00     0.182 HD
ATOM     11  O8  NX3 d   1      21.422  31.672  61.012  0.00  0.00    -0.266 OA
BRANCH   9  12
ATOM     12  S9  NX3 d   1      23.413  33.460  62.102  0.00  0.00     0.265 S 
ATOM     13  O20 NX3 d   1      23.859  34.362  63.114  0.00  0.00    -0.200 OA
ATOM     14  O21 NX3 d   1      22.749  33.986  60.948  0.00  0.00    -0.200 OA
BRANCH  12  15
ATOM     15  C22 NX3 d   1      24.963  32.747  61.662  0.00  0.00     0.082 A 
ATOM     16  C23 NX3 d   1      25.175  31.995  60.441  0.00  0.00    -0.060 A 
ATOM     17  C24 NX3 d   1      26.477  31.437  60.138  0.00  0.00    -0.079 A 
ATOM     18  H9  NX3 d   1      24.353  31.849  59.749  0.00  0.00     0.085 H 
ATOM     19  C25 NX3 d   1      27.529  31.679  61.112  0.00  0.00    -0.058 A 
ATOM     20  H10 NX3 d   1      26.657  30.869  59.233  0.00  0.00     0.083 H 
ATOM     21  C26 NX3 d   1      27.320  32.438  62.339  0.00  0.00     0.027 A 
ATOM     22  H11 NX3 d   1      28.516  31.276  60.916  0.00  0.00     0.086 H 
ATOM     23  C27 NX3 d   1      26.021  32.981  62.626  0.00  0.00    -0.035 A 
ATOM     24  H12 NX3 d   1      25.838  33.547  63.532  0.00  0.00     0.089 H 
BRANCH  21  25
ATOM     25  N28 NX3 d   1      28.337  32.659  63.224  0.00  0.00    -0.399 N 
ATOM     26  H13 NX3 d   1      29.275  32.278  63.036  0.00  0.00     0.156 HD
ATOM     27  H14 NX3 d   1      28.166  33.207  64.079  0.00  0.00     0.156 HD
ENDBRANCH  21  25
ENDBRANCH  12  15
ENDBRANCH   9  12
ENDBRANCH   2   8
BRANCH   3  28
ATOM     28  S10 NX3 d   1      19.179  29.959  60.919  0.00  0.00    -0.124 SA
BRANCH  28  29
ATOM     29  C11 NX3 d   1      17.646  29.104  61.013  0.00  0.00     0.005 C 
ATOM     30  H4  NX3 d   1      16.883  29.770  61.442  0.00  0.00     0.056 H 
ATOM     31  H5  NX3 d   1      17.761  28.217  61.654  0.00  0.00     0.056 H 
BRANCH  29  32
ATOM     32  C12 NX3 d   1      17.216  28.673  59.638  0.00  0.00    -0.047 A 
ATOM     33  C13 NX3 d   1      16.616  29.629  58.720  0.00  0.00    -0.074 A 
ATOM     34  C14 NX3 d   1      16.194  29.240  57.417  0.00  0.00    -0.060 A 
ATOM     35  H6  NX3 d   1      16.488  30.658  59.034  0.00  0.00     0.084 H 
ATOM     36  C15 NX3 d   1      16.401  27.863  57.092  0.00  0.00     0.055 A 
ATOM     37  H7  NX3 d   1      15.747  29.939  56.720  0.00  0.00     0.086 H 
ATOM     38  C16 NX3 d   1      16.999  26.897  57.989  0.00  0.00     0.056 A 
ATOM     39 CL19 NX3 d   1      15.869  27.317  55.538  0.00  0.00    -0.083 Cl
ATOM     40  C17 NX3 d   1      17.420  27.288  59.287  0.00  0.00    -0.053 A 
ATOM     41 CL18 NX3 d   1      17.198  25.230  57.485  0.00  0.00    -0.083 Cl
ATOM     42  H8  NX3 d   1      17.870  26.584  59.977  0.00  0.00     0.087 H 
ENDBRANCH  29  32
ENDBRANCH  28  29
ENDBRANCH   3  28
TORSDOF 7
