REMARK  9 active torsions:
REMARK  status: ('A' for Active; 'I' for Inactive)
REMARK    1  A    between atoms: C1_1  and  S4_4 
REMARK       I    between atoms: C2_2  and  N3_3 
REMARK    2  A    between atoms: C2_2  and  C18_18 
REMARK    3  A    between atoms: N3_3  and  S15_15 
REMARK    4  A    between atoms: S4_4  and  C5_5 
REMARK    5  A    between atoms: C5_5  and  C6_6 
REMARK    6  A    between atoms: S15_15  and  C22_22 
REMARK    7  A    between atoms: C25_25  and  O28_28 
REMARK    8  A    between atoms: C26_26  and  C30_30 
REMARK    9  A    between atoms: O28_28  and  C29_29 
ROOT
ATOM      1  C2  NX4 d   1      21.984  31.499  61.736  0.00  0.00     0.273 C 
ATOM      2  N3  NX4 d   1      22.696  32.392  62.420  0.00  0.00    -0.245 N 
ATOM      3  O14 NX4 d   1      22.043  31.272  60.535  0.00  0.00    -0.266 OA
ATOM      4  H1  NX4 d   1      22.539  32.469  63.405  0.00  0.00     0.182 HD
ENDROOT
BRANCH   1   5
ATOM      5  C18 NX4 d   1      21.051  30.766  62.545  0.00  0.00     0.090 A 
ATOM      6  C1  NX4 d   1      19.992  29.967  62.000  0.00  0.00     0.024 A 
ATOM      7  C19 NX4 d   1      19.458  29.579  63.132  0.00  0.00    -0.059 A 
ATOM      8  C20 NX4 d   1      19.581  29.716  64.435  0.00  0.00    -0.043 A 
ATOM      9  H7  NX4 d   1      18.623  28.912  62.922  0.00  0.00     0.086 H 
ATOM     10  S21 NX4 d   1      21.007  30.764  64.307  0.00  0.00    -0.095 SA
ATOM     11  H8  NX4 d   1      19.015  29.328  65.281  0.00  0.00     0.095 H 
BRANCH   6  12
ATOM     12  S4  NX4 d   1      19.648  29.698  60.349  0.00  0.00    -0.124 SA
BRANCH  12  13
ATOM     13  C5  NX4 d   1      17.958  29.071  60.446  0.00  0.00     0.005 C 
ATOM     14  H2  NX4 d   1      17.283  29.878  60.766  0.00  0.00     0.056 H 
ATOM     15  H3  NX4 d   1      17.912  28.245  61.171  0.00  0.00     0.056 H 
BRANCH  13  16
ATOM     16  C6  NX4 d   1      17.540  28.572  59.083  0.00  0.00    -0.047 A 
ATOM     17  C7  NX4 d   1      16.885  29.498  58.209  0.00  0.00    -0.074 A 
ATOM     18  C8  NX4 d   1      16.444  29.099  56.910  0.00  0.00    -0.060 A 
ATOM     19  H4  NX4 d   1      16.721  30.518  58.538  0.00  0.00     0.084 H 
ATOM     20  C9  NX4 d   1      16.703  27.734  56.564  0.00  0.00     0.055 A 
ATOM     21  H5  NX4 d   1      15.947  29.783  56.232  0.00  0.00     0.086 H 
ATOM     22  C10 NX4 d   1      17.364  26.795  57.421  0.00  0.00     0.056 A 
ATOM     23 CL12 NX4 d   1      16.148  27.184  55.032  0.00  0.00    -0.083 Cl
ATOM     24  C11 NX4 d   1      17.803  27.188  58.712  0.00  0.00    -0.053 A 
ATOM     25 CL13 NX4 d   1      17.626  25.176  56.827  0.00  0.00    -0.083 Cl
ATOM     26  H6  NX4 d   1      18.304  26.499  59.382  0.00  0.00     0.087 H 
ENDBRANCH  13  16
ENDBRANCH  12  13
ENDBRANCH   6  12
ENDBRANCH   1   5
BRANCH   2  27
ATOM     27  S15 NX4 d   1      23.777  33.338  61.759  0.00  0.00     0.265 S 
ATOM     28  O16 NX4 d   1      24.077  34.281  62.796  0.00  0.00    -0.200 OA
ATOM     29  O17 NX4 d   1      23.239  33.831  60.512  0.00  0.00    -0.200 OA
BRANCH  27  30
ATOM     30  C22 NX4 d   1      25.285  32.545  61.507  0.00  0.00     0.081 A 
ATOM     31  C23 NX4 d   1      26.266  32.825  62.512  0.00  0.00    -0.058 A 
ATOM     32  C24 NX4 d   1      27.557  32.267  62.414  0.00  0.00    -0.048 A 
ATOM     33  H9  NX4 d   1      26.016  33.467  63.349  0.00  0.00     0.086 H 
ATOM     34  C25 NX4 d   1      27.806  31.417  61.264  0.00  0.00     0.085 A 
ATOM     35  H10 NX4 d   1      28.322  32.462  63.157  0.00  0.00     0.087 H 
ATOM     36  C26 NX4 d   1      26.780  31.142  60.249  0.00  0.00     0.075 A 
ATOM     37  C27 NX4 d   1      25.461  31.723  60.361  0.00  0.00    -0.041 A 
ATOM     38  H11 NX4 d   1      24.675  31.547  59.635  0.00  0.00     0.087 H 
BRANCH  34  39
ATOM     39  O28 NX4 d   1      29.086  30.841  61.117  0.00  0.00    -0.355 OA
BRANCH  39  40
ATOM     40  C29 NX4 d   1      30.168  31.340  61.948  0.00  0.00     0.010 C 
ATOM     41  H12 NX4 d   1      31.093  30.792  61.714  0.00  0.00     0.066 H 
ATOM     42  H13 NX4 d   1      29.913  31.194  63.008  0.00  0.00     0.066 H 
ATOM     43  H14 NX4 d   1      30.317  32.412  61.751  0.00  0.00     0.066 H 
ENDBRANCH  39  40
ENDBRANCH  34  39
BRANCH  36  44
ATOM     44  C30 NX4 d   1      27.044  30.273  59.080  0.00  0.00     0.212 C 
ATOM     45  O31 NX4 d   1      28.228  30.174  58.694  0.00  0.00    -0.644 OA
ATOM     46  O32 NX4 d   1      26.093  29.679  58.520  0.00  0.00    -0.644 OA
ENDBRANCH  36  44
ENDBRANCH  27  30
ENDBRANCH   2  27
TORSDOF 9
