REMARK  4 active torsions:
REMARK  status: ('A' for Active; 'I' for Inactive)
REMARK    1  A    between atoms: C1_1  and  S2_2 
REMARK    2  A    between atoms: S2_2  and  C3_3 
REMARK    3  A    between atoms: C3_3  and  C4_4 
REMARK    4  A    between atoms: C16_16  and  C17_17 
ROOT
ATOM      1  S2  NX5 d   1      19.391  29.685  60.455  0.00  0.00    -0.124 SA
ENDROOT
BRANCH   1   2
ATOM      2  C1  NX5 d   1      19.746  30.056  62.154  0.00  0.00     0.017 A 
ATOM      3  C12 NX5 d   1      18.916  29.559  63.229  0.00  0.00    -0.066 A 
ATOM      4  C13 NX5 d   1      19.323  29.868  64.572  0.00  0.00    -0.082 A 
ATOM      5  H6  NX5 d   1      18.023  28.977  63.030  0.00  0.00     0.085 H 
ATOM      6  C14 NX5 d   1      20.514  30.652  64.822  0.00  0.00    -0.082 A 
ATOM      7  H7  NX5 d   1      18.732  29.510  65.407  0.00  0.00     0.083 H 
ATOM      8  C15 NX5 d   1      21.340  31.146  63.755  0.00  0.00    -0.065 A 
ATOM      9  H8  NX5 d   1      20.791  30.873  65.846  0.00  0.00     0.083 H 
ATOM     10  C16 NX5 d   1      20.919  30.829  62.415  0.00  0.00     0.057 A 
ATOM     11  H9  NX5 d   1      22.234  31.727  63.949  0.00  0.00     0.085 H 
BRANCH  10  12
ATOM     12  C17 NX5 d   1      21.720  31.292  61.311  0.00  0.00     0.210 C 
ATOM     13  O18 NX5 d   1      22.954  31.160  61.400  0.00  0.00    -0.644 OA
ATOM     14  O19 NX5 d   1      21.176  31.829  60.330  0.00  0.00    -0.644 OA
ENDBRANCH  10  12
ENDBRANCH   1   2
BRANCH   1  15
ATOM     15  C3  NX5 d   1      17.688  29.024  60.490  0.00  0.00     0.005 C 
ATOM     16  H1  NX5 d   1      16.987  29.827  60.763  0.00  0.00     0.056 H 
ATOM     17  H2  NX5 d   1      17.623  28.213  61.230  0.00  0.00     0.056 H 
BRANCH  15  18
ATOM     18  C4  NX5 d   1      17.336  28.489  59.123  0.00  0.00    -0.047 A 
ATOM     19  C5  NX5 d   1      17.708  27.133  58.783  0.00  0.00    -0.053 A 
ATOM     20  C8  NX5 d   1      17.354  26.716  57.477  0.00  0.00     0.056 A 
ATOM     21  H3  NX5 d   1      18.222  26.481  59.480  0.00  0.00     0.087 H 
ATOM     22  C9  NX5 d   1      16.659  27.607  56.586  0.00  0.00     0.055 A 
ATOM     23 CL11 NX5 d   1      17.711  25.109  56.936  0.00  0.00    -0.083 Cl
ATOM     24  C6  NX5 d   1      16.310  28.959  56.902  0.00  0.00    -0.060 A 
ATOM     25 CL10 NX5 d   1      16.157  26.996  55.069  0.00  0.00    -0.083 Cl
ATOM     26  C7  NX5 d   1      16.659  29.380  58.217  0.00  0.00    -0.074 A 
ATOM     27  H4  NX5 d   1      15.817  29.614  56.193  0.00  0.00     0.086 H 
ATOM     28  H5  NX5 d   1      16.412  30.385  58.540  0.00  0.00     0.084 H 
ENDBRANCH  15  18
ENDBRANCH   1  15
TORSDOF 4
