REMARK  8 active torsions:
REMARK  status: ('A' for Active; 'I' for Inactive)
REMARK    1  A    between atoms: C1_1  and  C7_7 
REMARK    2  A    between atoms: C4_4  and  C20_20 
REMARK    3  A    between atoms: C5_5  and  S10_10 
REMARK    4  A    between atoms: C8_8  and  C9_9 
REMARK    5  A    between atoms: C9_9  and  C23_23 
REMARK    6  A    between atoms: S10_10  and  C11_11 
REMARK    7  A    between atoms: C11_11  and  C12_12 
REMARK    8  A    between atoms: C23_23  and  O24_24 
ROOT
ATOM      1  C1  NXV d   1      19.336  29.961  64.270  0.00  0.00     0.019 A 
ATOM      2  C2  NXV d   1      20.467  30.776  64.473  0.00  0.00    -0.064 A 
ATOM      3  C3  NXV d   1      21.271  31.238  63.402  0.00  0.00    -0.064 A 
ATOM      4  C4  NXV d   1      20.960  30.809  62.110  0.00  0.00     0.057 A 
ATOM      5  C5  NXV d   1      19.833  29.967  61.906  0.00  0.00     0.019 A 
ATOM      6  C6  NXV d   1      19.034  29.504  62.987  0.00  0.00    -0.048 A 
ATOM      7  H1  NXV d   1      20.732  31.060  65.485  0.00  0.00     0.085 H 
ATOM      8  H2  NXV d   1      22.105  31.907  63.581  0.00  0.00     0.085 H 
ATOM      9  H3  NXV d   1      18.214  28.816  62.819  0.00  0.00     0.087 H 
ENDROOT
BRANCH   5  10
ATOM     10  S10 NXV d   1      19.470  29.410  60.292  0.00  0.00    -0.124 SA
BRANCH  10  11
ATOM     11  C11 NXV d   1      17.808  28.840  60.377  0.00  0.00     0.005 C 
ATOM     12  H6  NXV d   1      17.141  29.663  60.675  0.00  0.00     0.056 H 
ATOM     13  H7  NXV d   1      17.727  28.020  61.106  0.00  0.00     0.056 H 
BRANCH  11  14
ATOM     14  C12 NXV d   1      17.450  28.361  59.038  0.00  0.00    -0.047 A 
ATOM     15  C13 NXV d   1      16.823  29.236  58.163  0.00  0.00    -0.074 A 
ATOM     16  C14 NXV d   1      16.471  28.828  56.886  0.00  0.00    -0.060 A 
ATOM     17  H8  NXV d   1      16.606  30.249  58.481  0.00  0.00     0.084 H 
ATOM     18  C15 NXV d   1      16.707  27.517  56.526  0.00  0.00     0.055 A 
ATOM     19  H9  NXV d   1      16.021  29.523  56.186  0.00  0.00     0.086 H 
ATOM     20  C16 NXV d   1      17.359  26.630  57.438  0.00  0.00     0.056 A 
ATOM     21 CL19 NXV d   1      16.167  26.914  54.983  0.00  0.00    -0.083 Cl
ATOM     22  C17 NXV d   1      17.734  27.038  58.712  0.00  0.00    -0.053 A 
ATOM     23 CL18 NXV d   1      17.647  25.009  56.956  0.00  0.00    -0.083 Cl
ATOM     24  H10 NXV d   1      18.219  26.366  59.411  0.00  0.00     0.087 H 
ENDBRANCH  11  14
ENDBRANCH  10  11
ENDBRANCH   5  10
BRANCH   4  25
ATOM     25  C20 NXV d   1      21.717  31.290  60.971  0.00  0.00     0.210 C 
ATOM     26  O21 NXV d   1      21.139  32.083  60.253  0.00  0.00    -0.644 OA
ATOM     27  O22 NXV d   1      22.932  30.895  60.719  0.00  0.00    -0.644 OA
ENDBRANCH   4  25
BRANCH   1  28
ATOM     28  C7  NXV d   1      18.563  29.516  65.387  0.00  0.00    -0.067 C 
ATOM     29  C8  NXV d   1      17.925  29.151  66.311  0.00  0.00    -0.099 C 
BRANCH  29  30
ATOM     30  C9  NXV d   1      17.190  28.685  67.477  0.00  0.00     0.011 C 
ATOM     31  H4  NXV d   1      16.595  27.800  67.206  0.00  0.00     0.055 H 
ATOM     32  H5  NXV d   1      16.521  29.483  67.832  0.00  0.00     0.055 H 
BRANCH  30  33
ATOM     33  C23 NXV d   1      18.155  28.324  68.562  0.00  0.00     0.026 C 
ATOM     34  H11 NXV d   1      19.141  28.116  68.121  0.00  0.00     0.075 H 
ATOM     35  H12 NXV d   1      17.794  27.430  69.091  0.00  0.00     0.075 H 
BRANCH  33  36
ATOM     36  O24 NXV d   1      18.266  29.423  69.493  0.00  0.00    -0.400 OA
ATOM     37  H13 NXV d   1      18.879  29.193  70.181  0.00  0.00     0.209 HD
ENDBRANCH  33  36
ENDBRANCH  30  33
ENDBRANCH  29  30
ENDBRANCH   1  28
TORSDOF 8
