REMARK  6 active torsions:
REMARK  status: ('A' for Active; 'I' for Inactive)
REMARK    1  A    between atoms: C6_8  and  C11_6 
REMARK    2  A    between atoms: N3_20  and  C4_9 
REMARK    3  A    between atoms: C15_10  and  N16_18 
REMARK    4  A    between atoms: C8_11  and  N9_19 
REMARK    5  A    between atoms: C2_13  and  C1_12 
REMARK    6  A    between atoms: C2_13  and  N3_20 
ROOT
ATOM      1  C5  3Q0 d   1     -44.424  18.512  12.003  0.00  0.00    -0.009 A 
ATOM      2  C6  3Q0 d   1     -44.155  17.214  11.623  0.00  0.00     0.089 A 
ATOM      3  C4  3Q0 d   1     -45.648  19.032  11.626  0.00  0.00     0.144 A 
ATOM      4  C8  3Q0 d   1     -46.194  17.056  10.605  0.00  0.00     0.722 A 
ATOM      5  N7  3Q0 d   1     -45.028  16.485  10.923  0.00  0.00    -0.062 NA
ATOM      6  N10 3Q0 d   1     -46.535  18.310  10.930  0.00  0.00    -0.046 NA
ATOM      7  H4  3Q0 d   1     -43.709  19.097  12.571  0.00  0.00     0.093 H 
ENDROOT
BRANCH   2   8
ATOM      8  C11 3Q0 d   1     -42.945  16.496  11.960  0.00  0.00    -0.004 A 
ATOM      9  C12 3Q0 d   1     -41.822  17.128  12.446  0.00  0.00    -0.070 A 
ATOM     10  C13 3Q0 d   1     -40.649  16.472  12.740  0.00  0.00    -0.066 A 
ATOM     11  H2  3Q0 d   1     -41.865  18.199  12.605  0.00  0.00     0.084 H 
ATOM     12  C14 3Q0 d   1     -40.631  15.097  12.543  0.00  0.00     0.039 A 
ATOM     13  H1  3Q0 d   1     -39.779  17.003  13.108  0.00  0.00     0.085 H 
ATOM     14  C19 3Q0 d   1     -41.772  14.479  12.074  0.00  0.00     0.091 A 
ATOM     15  C15 3Q0 d   1     -39.676  14.050  12.709  0.00  0.00     0.128 A 
ATOM     16  C20 3Q0 d   1     -42.940  15.132  11.767  0.00  0.00    -0.040 A 
ATOM     17  N18 3Q0 d   1     -41.457  13.152  11.984  0.00  0.00    -0.172 NA
ATOM     18  H3  3Q0 d   1     -43.810  14.604  11.394  0.00  0.00     0.088 H 
ATOM     19  N17 3Q0 d   1     -40.196  12.866  12.359  0.00  0.00    -0.262 N 
ATOM     20  H10 3Q0 d   1     -39.735  11.945  12.373  0.00  0.00     0.191 HD
BRANCH  15  21
ATOM     21  N16 3Q0 d   1     -38.409  14.259  13.166  0.00  0.00    -0.384 N 
ATOM     22  H11 3Q0 d   1     -38.100  15.211  13.411  0.00  0.00     0.157 HD
ATOM     23  H12 3Q0 d   1     -37.760  13.465  13.267  0.00  0.00     0.157 HD
ENDBRANCH  15  21
ENDBRANCH   2   8
BRANCH   3  24
ATOM     24  N3  3Q0 d   1     -45.988  20.346  11.978  0.00  0.00    -0.375 N 
ATOM     25  H15 3Q0 d   1     -46.895  20.795  11.785  0.00  0.00     0.161 HD
BRANCH  24  26
ATOM     26  C2  3Q0 d   1     -44.870  20.979  12.656  0.00  0.00    -0.009 C 
ATOM     27  H8  3Q0 d   1     -43.933  20.490  12.352  0.00  0.00     0.063 H 
ATOM     28  H9  3Q0 d   1     -44.833  22.044  12.384  0.00  0.00     0.063 H 
BRANCH  26  29
ATOM     29  C1  3Q0 d   1     -45.044  20.847  14.149  0.00  0.00    -0.061 C 
ATOM     30  H5  3Q0 d   1     -44.197  21.327  14.661  0.00  0.00     0.029 H 
ATOM     31  H6  3Q0 d   1     -45.081  19.782  14.421  0.00  0.00     0.029 H 
ATOM     32  H7  3Q0 d   1     -45.981  21.336  14.454  0.00  0.00     0.029 H 
ENDBRANCH  26  29
ENDBRANCH  24  26
ENDBRANCH   3  24
BRANCH   4  33
ATOM     33  N9  3Q0 d   1     -47.098  16.283   9.874  0.00  0.00    -0.231 N 
ATOM     34  H13 3Q0 d   1     -46.856  15.316   9.614  0.00  0.00     0.174 HD
ATOM     35  H14 3Q0 d   1     -48.007  16.679   9.595  0.00  0.00     0.174 HD
ENDBRANCH   4  33
TORSDOF 6
