REMARK  4 active torsions:
REMARK  status: ('A' for Active; 'I' for Inactive)
REMARK    1  A    between atoms: C11_8  and  C7_6 
REMARK    2  A    between atoms: N18_20  and  C13_9 
REMARK    3  A    between atoms: C2_10  and  N1_21 
REMARK    4  A    between atoms: C15_11  and  N16_22 
ROOT
ATOM      1  C12 3Q1 d   1     -44.608  18.526  12.185  0.00  0.00    -0.014 A 
ATOM      2  C11 3Q1 d   1     -44.333  17.260  11.723  0.00  0.00     0.089 A 
ATOM      3  C13 3Q1 d   1     -45.821  19.077  11.831  0.00  0.00     0.127 A 
ATOM      4  C15 3Q1 d   1     -46.350  17.183  10.666  0.00  0.00     0.722 A 
ATOM      5  N17 3Q1 d   1     -45.198  16.580  10.968  0.00  0.00    -0.062 NA
ATOM      6  N14 3Q1 d   1     -46.697  18.410  11.072  0.00  0.00    -0.051 NA
ATOM      7  H4  3Q1 d   1     -43.900  19.068  12.802  0.00  0.00     0.092 H 
ENDROOT
BRANCH   2   8
ATOM      8  C7  3Q1 d   1     -43.131  16.523  12.035  0.00  0.00    -0.004 A 
ATOM      9  C8  3Q1 d   1     -42.013  17.126  12.562  0.00  0.00    -0.070 A 
ATOM     10  C9  3Q1 d   1     -40.852  16.442  12.855  0.00  0.00    -0.066 A 
ATOM     11  H2  3Q1 d   1     -42.046  18.192  12.757  0.00  0.00     0.084 H 
ATOM     12  C10 3Q1 d   1     -40.849  15.081  12.604  0.00  0.00     0.039 A 
ATOM     13  H1  3Q1 d   1     -39.983  16.946  13.262  0.00  0.00     0.085 H 
ATOM     14  C5  3Q1 d   1     -41.980  14.492  12.088  0.00  0.00     0.091 A 
ATOM     15  C2  3Q1 d   1     -39.913  14.019  12.748  0.00  0.00     0.128 A 
ATOM     16  C6  3Q1 d   1     -43.136  15.168  11.788  0.00  0.00    -0.040 A 
ATOM     17  N4  3Q1 d   1     -41.672  13.167  11.954  0.00  0.00    -0.172 NA
ATOM     18  H3  3Q1 d   1     -44.004  14.664  11.380  0.00  0.00     0.088 H 
ATOM     19  N3  3Q1 d   1     -40.428  12.853  12.347  0.00  0.00    -0.262 N 
ATOM     20  H13 3Q1 d   1     -39.975  11.928  12.341  0.00  0.00     0.191 HD
BRANCH  15  21
ATOM     21  N1  3Q1 d   1     -38.664  14.209  13.234  0.00  0.00    -0.384 N 
ATOM     22  H14 3Q1 d   1     -38.360  15.151  13.518  0.00  0.00     0.157 HD
ATOM     23  H15 3Q1 d   1     -38.018  13.411  13.320  0.00  0.00     0.157 HD
ENDBRANCH  15  21
ENDBRANCH   2   8
BRANCH   3  24
ATOM     24  N18 3Q1 d   1     -46.143  20.361  12.302  0.00  0.00    -0.263 NA
ATOM     25  C19 3Q1 d   1     -44.959  21.023  12.825  0.00  0.00     0.005 C 
ATOM     26  C20 3Q1 d   1     -44.829  22.451  12.354  0.00  0.00     0.031 C 
ATOM     27  H5  3Q1 d   1     -45.011  21.019  13.924  0.00  0.00     0.059 H 
ATOM     28  H6  3Q1 d   1     -44.070  20.463  12.498  0.00  0.00     0.059 H 
ATOM     29  O21 3Q1 d   1     -46.125  23.014  12.278  0.00  0.00    -0.389 OA
ATOM     30  H9  3Q1 d   1     -44.355  22.474  11.362  0.00  0.00     0.076 H 
ATOM     31  H10 3Q1 d   1     -44.216  23.023  13.066  0.00  0.00     0.076 H 
ATOM     32  C22 3Q1 d   1     -46.703  22.445  11.110  0.00  0.00     0.031 C 
ATOM     33  C23 3Q1 d   1     -47.090  21.021  11.415  0.00  0.00     0.005 C 
ATOM     34  H11 3Q1 d   1     -47.596  23.019  10.820  0.00  0.00     0.076 H 
ATOM     35  H12 3Q1 d   1     -45.973  22.463  10.288  0.00  0.00     0.076 H 
ATOM     36  H7  3Q1 d   1     -47.138  20.459  10.471  0.00  0.00     0.059 H 
ATOM     37  H8  3Q1 d   1     -48.080  21.020  11.894  0.00  0.00     0.059 H 
ENDBRANCH   3  24
BRANCH   4  38
ATOM     38  N16 3Q1 d   1     -47.248  16.462   9.877  0.00  0.00    -0.231 N 
ATOM     39  H16 3Q1 d   1     -47.003  15.516   9.552  0.00  0.00     0.174 HD
ATOM     40  H17 3Q1 d   1     -48.155  16.876   9.620  0.00  0.00     0.174 HD
ENDBRANCH   4  38
TORSDOF 4
