REMARK  5 active torsions:
REMARK  status: ('A' for Active; 'I' for Inactive)
REMARK    1  A    between atoms: C8_8  and  C6_6 
REMARK    2  A    between atoms: N21_21  and  C9_9 
REMARK    3  A    between atoms: C10_10  and  N22_22 
REMARK    4  A    between atoms: C11_11  and  N23_23 
REMARK    5  A    between atoms: C15_15  and  C16_16 
ROOT
ATOM      1  C4  3Q2 d   1     -44.354  18.477  11.895  0.00  0.00    -0.009 A 
ATOM      2  C8  3Q2 d   1     -44.188  17.133  11.677  0.00  0.00     0.089 A 
ATOM      3  C9  3Q2 d   1     -45.524  19.070  11.471  0.00  0.00     0.147 A 
ATOM      4  C11 3Q2 d   1     -46.258  17.072  10.673  0.00  0.00     0.722 A 
ATOM      5  N17 3Q2 d   1     -45.144  16.421  11.068  0.00  0.00    -0.062 NA
ATOM      6  N18 3Q2 d   1     -46.479  18.374  10.845  0.00  0.00    -0.045 NA
ATOM      7  H4  3Q2 d   1     -43.584  19.059  12.389  0.00  0.00     0.093 H 
ENDROOT
BRANCH   3   8
ATOM      8  N21 3Q2 d   1     -45.691  20.468  11.654  0.00  0.00    -0.357 N 
ATOM      9  C12 3Q2 d   1     -47.061  20.929  11.730  0.00  0.00     0.017 C 
ATOM     10  C13 3Q2 d   1     -46.977  22.392  11.348  0.00  0.00     0.034 C 
ATOM     11  H5  3Q2 d   1     -47.699  20.377  11.024  0.00  0.00     0.067 H 
ATOM     12  H6  3Q2 d   1     -47.456  20.813  12.750  0.00  0.00     0.067 H 
ATOM     13  O24 3Q2 d   1     -46.078  23.073  12.225  0.00  0.00    -0.388 OA
ATOM     14  H7  3Q2 d   1     -47.976  22.847  11.425  0.00  0.00     0.076 H 
ATOM     15  H8  3Q2 d   1     -46.613  22.479  10.314  0.00  0.00     0.076 H 
ATOM     16  C14 3Q2 d   1     -44.744  22.551  12.117  0.00  0.00     0.038 C 
ATOM     17  C15 3Q2 d   1     -44.748  21.109  12.573  0.00  0.00     0.030 C 
ATOM     18  H9  3Q2 d   1     -44.408  22.607  11.071  0.00  0.00     0.077 H 
ATOM     19  H10 3Q2 d   1     -44.065  23.138  12.752  0.00  0.00     0.077 H 
ATOM     20  H11 3Q2 d   1     -43.749  20.657  12.483  0.00  0.00     0.075 H 
BRANCH  17  21
ATOM     21  C16 3Q2 d   1     -45.204  21.040  14.005  0.00  0.00    -0.055 C 
ATOM     22  H12 3Q2 d   1     -45.208  19.992  14.338  0.00  0.00     0.030 H 
ATOM     23  H13 3Q2 d   1     -46.220  21.454  14.087  0.00  0.00     0.030 H 
ATOM     24  H14 3Q2 d   1     -44.518  21.623  14.637  0.00  0.00     0.030 H 
ENDBRANCH  17  21
ENDBRANCH   3   8
BRANCH   2  25
ATOM     25  C6  3Q2 d   1     -42.972  16.435  12.080  0.00  0.00    -0.004 A 
ATOM     26  C2  3Q2 d   1     -41.875  17.093  12.612  0.00  0.00    -0.070 A 
ATOM     27  C1  3Q2 d   1     -40.685  16.455  12.935  0.00  0.00    -0.066 A 
ATOM     28  H2  3Q2 d   1     -41.950  18.160  12.785  0.00  0.00     0.084 H 
ATOM     29  C5  3Q2 d   1     -40.615  15.077  12.719  0.00  0.00     0.039 A 
ATOM     30  H1  3Q2 d   1     -39.843  17.005  13.339  0.00  0.00     0.085 H 
ATOM     31  C7  3Q2 d   1     -41.737  14.443  12.214  0.00  0.00     0.091 A 
ATOM     32  C10 3Q2 d   1     -39.652  14.024  12.886  0.00  0.00     0.128 A 
ATOM     33  C3  3Q2 d   1     -42.910  15.075  11.878  0.00  0.00    -0.040 A 
ATOM     34  N20 3Q2 d   1     -41.404  13.119  12.098  0.00  0.00    -0.172 NA
ATOM     35  H3  3Q2 d   1     -43.751  14.525  11.471  0.00  0.00     0.088 H 
ATOM     36  N19 3Q2 d   1     -40.152  12.840  12.500  0.00  0.00    -0.262 N 
ATOM     37  H15 3Q2 d   1     -39.682  11.924  12.510  0.00  0.00     0.191 HD
BRANCH  32  38
ATOM     38  N22 3Q2 d   1     -38.384  14.187  13.382  0.00  0.00    -0.384 N 
ATOM     39  H16 3Q2 d   1     -38.057  15.123  13.662  0.00  0.00     0.157 HD
ATOM     40  H17 3Q2 d   1     -37.759  13.374  13.475  0.00  0.00     0.157 HD
ENDBRANCH  32  38
ENDBRANCH   2  25
BRANCH   4  41
ATOM     41  N23 3Q2 d   1     -47.281  16.382  10.028  0.00  0.00    -0.231 N 
ATOM     42  H18 3Q2 d   1     -47.191  15.371   9.855  0.00  0.00     0.174 HD
ATOM     43  H19 3Q2 d   1     -48.128  16.883   9.724  0.00  0.00     0.174 HD
ENDBRANCH   4  41
TORSDOF 5
