REMARK  6 active torsions:
REMARK  status: ('A' for Active; 'I' for Inactive)
REMARK    1  A    between atoms: C14_14  and  C11_11 
REMARK    2  A    between atoms: N30_30  and  C13_13 
REMARK    3  A    between atoms: N27_27  and  C15_15 
REMARK    4  A    between atoms: C16_16  and  N28_28 
REMARK    5  A    between atoms: C17_17  and  N29_29 
REMARK    6  A    between atoms: C22_22  and  C18_18 
REMARK       I    between atoms: C18_18  and  N30_30 
ROOT
ATOM      1  C19 3Q3 d   1     -44.846  21.160  12.785  0.00  0.00     0.016 C 
ATOM      2  C20 3Q3 d   1     -46.982  21.028  11.666  0.00  0.00     0.029 C 
ATOM      3  C21 3Q3 d   1     -44.655  22.554  12.217  0.00  0.00     0.035 C 
ATOM      4  C22 3Q3 d   1     -46.748  22.430  11.122  0.00  0.00     0.130 C 
ATOM      5  N27 3Q3 d   1     -45.622  20.530  11.746  0.00  0.00    -0.360 N 
ATOM      6  O32 3Q3 d   1     -45.931  23.179  12.030  0.00  0.00    -0.373 OA
ATOM      7  H10 3Q3 d   1     -45.396  21.186  13.737  0.00  0.00     0.067 H 
ATOM      8  H11 3Q3 d   1     -43.882  20.650  12.932  0.00  0.00     0.067 H 
ATOM      9  H12 3Q3 d   1     -47.593  20.425  10.978  0.00  0.00     0.069 H 
ATOM     10  H13 3Q3 d   1     -47.461  21.054  12.656  0.00  0.00     0.069 H 
ATOM     11  H14 3Q3 d   1     -44.136  22.487  11.250  0.00  0.00     0.076 H 
ATOM     12  H15 3Q3 d   1     -44.053  23.154  12.915  0.00  0.00     0.076 H 
ATOM     13  H16 3Q3 d   1     -46.282  22.372  10.128  0.00  0.00     0.101 H 
ENDROOT
BRANCH   5  14
ATOM     14  C15 3Q3 d   1     -45.434  19.138  11.573  0.00  0.00     0.147 A 
ATOM     15  C9  3Q3 d   1     -44.255  18.557  11.989  0.00  0.00    -0.009 A 
ATOM     16  C14 3Q3 d   1     -44.098  17.208  11.762  0.00  0.00     0.089 A 
ATOM     17  H9  3Q3 d   1     -43.481  19.140  12.476  0.00  0.00     0.093 H 
ATOM     18  N23 3Q3 d   1     -45.039  16.483  11.152  0.00  0.00    -0.062 NA
ATOM     19  C17 3Q3 d   1     -46.152  17.123  10.769  0.00  0.00     0.722 A 
ATOM     20  N24 3Q3 d   1     -46.380  18.427  10.952  0.00  0.00    -0.045 NA
BRANCH  16  21
ATOM     21  C11 3Q3 d   1     -42.903  16.471  12.135  0.00  0.00    -0.004 A 
ATOM     22  C5  3Q3 d   1     -41.816  17.099  12.706  0.00  0.00    -0.070 A 
ATOM     23  C4  3Q3 d   1     -40.646  16.443  13.032  0.00  0.00    -0.066 A 
ATOM     24  H5  3Q3 d   1     -41.884  18.162  12.909  0.00  0.00     0.084 H 
ATOM     25  C10 3Q3 d   1     -40.595  15.082  12.769  0.00  0.00     0.039 A 
ATOM     26  H4  3Q3 d   1     -39.806  16.967  13.473  0.00  0.00     0.085 H 
ATOM     27  C12 3Q3 d   1     -41.695  14.470  12.210  0.00  0.00     0.091 A 
ATOM     28  C16 3Q3 d   1     -39.633  14.045  12.931  0.00  0.00     0.128 A 
ATOM     29  C8  3Q3 d   1     -42.860  15.118  11.870  0.00  0.00    -0.040 A 
ATOM     30  N26 3Q3 d   1     -41.344  13.156  12.067  0.00  0.00    -0.172 NA
ATOM     31  H8  3Q3 d   1     -43.696  14.595  11.420  0.00  0.00     0.088 H 
ATOM     32  N25 3Q3 d   1     -40.102  12.873  12.490  0.00  0.00    -0.262 N 
ATOM     33  H17 3Q3 d   1     -39.621  11.962  12.478  0.00  0.00     0.191 HD
BRANCH  28  34
ATOM     34  N28 3Q3 d   1     -38.394  14.251  13.461  0.00  0.00    -0.384 N 
ATOM     35  H18 3Q3 d   1     -38.118  15.192  13.776  0.00  0.00     0.157 HD
ATOM     36  H19 3Q3 d   1     -37.733  13.465  13.547  0.00  0.00     0.157 HD
ENDBRANCH  28  34
ENDBRANCH  16  21
BRANCH  19  37
ATOM     37  N29 3Q3 d   1     -47.156  16.390  10.126  0.00  0.00    -0.231 N 
ATOM     38  H20 3Q3 d   1     -47.031  15.381   9.960  0.00  0.00     0.174 HD
ATOM     39  H21 3Q3 d   1     -48.020  16.859   9.819  0.00  0.00     0.174 HD
ENDBRANCH  19  37
ENDBRANCH   5  14
BRANCH   4  40
ATOM     40  C18 3Q3 d   1     -48.039  23.191  11.065  0.00  0.00     0.252 C 
ATOM     41  N30 3Q3 d   1     -48.590  23.139   9.806  0.00  0.00    -0.325 N 
ATOM     42  H22 3Q3 d   1     -48.093  22.694   9.061  0.00  0.00     0.169 HD
ATOM     43  O31 3Q3 d   1     -48.512  23.779  12.028  0.00  0.00    -0.270 OA
BRANCH  41  44
ATOM     44  C13 3Q3 d   1     -49.846  23.708   9.566  0.00  0.00     0.034 A 
ATOM     45  C6  3Q3 d   1     -50.703  23.103   8.679  0.00  0.00    -0.057 A 
ATOM     46  C2  3Q3 d   1     -51.938  23.658   8.439  0.00  0.00    -0.081 A 
ATOM     47  H6  3Q3 d   1     -50.407  22.192   8.171  0.00  0.00     0.086 H 
ATOM     48  C1  3Q3 d   1     -52.313  24.814   9.086  0.00  0.00    -0.083 A 
ATOM     49  H2  3Q3 d   1     -52.617  23.185   7.739  0.00  0.00     0.083 H 
ATOM     50  C3  3Q3 d   1     -51.451  25.418   9.973  0.00  0.00    -0.081 A 
ATOM     51  H1  3Q3 d   1     -53.288  25.249   8.897  0.00  0.00     0.083 H 
ATOM     52  C7  3Q3 d   1     -50.216  24.864  10.212  0.00  0.00    -0.057 A 
ATOM     53  H3  3Q3 d   1     -51.745  26.329  10.482  0.00  0.00     0.083 H 
ATOM     54  H7  3Q3 d   1     -49.534  25.338  10.909  0.00  0.00     0.086 H 
ENDBRANCH  41  44
ENDBRANCH   4  40
TORSDOF 6
