REMARK  7 active torsions:
REMARK  status: ('A' for Active; 'I' for Inactive)
REMARK    1  A    between atoms: C14_14  and  C11_11 
REMARK    2  A    between atoms: N32_32  and  C13_13 
REMARK    3  A    between atoms: N29_29  and  C15_15 
REMARK    4  A    between atoms: C16_16  and  N30_30 
REMARK    5  A    between atoms: C17_17  and  N31_31 
REMARK    6  A    between atoms: C22_22  and  C18_18 
REMARK       I    between atoms: C18_18  and  N32_32 
REMARK    7  A    between atoms: C23_23  and  C24_24 
ROOT
ATOM      1  C19 3Q4 d   1     -46.351  23.249  12.395  0.00  0.00    -0.050 C 
ATOM      2  C20 3Q4 d   1     -44.982  22.612  12.635  0.00  0.00    -0.045 C 
ATOM      3  C21 3Q4 d   1     -47.321  21.052  11.832  0.00  0.00     0.008 C 
ATOM      4  C22 3Q4 d   1     -47.151  22.481  11.336  0.00  0.00     0.039 C 
ATOM      5  C23 3Q4 d   1     -45.093  21.129  12.998  0.00  0.00     0.010 C 
ATOM      6  N29 3Q4 d   1     -45.962  20.517  11.976  0.00  0.00    -0.360 N 
ATOM      7  H10 3Q4 d   1     -46.208  24.285  12.053  0.00  0.00     0.034 H 
ATOM      8  H11 3Q4 d   1     -46.916  23.249  13.339  0.00  0.00     0.034 H 
ATOM      9  H12 3Q4 d   1     -44.483  23.143  13.460  0.00  0.00     0.036 H 
ATOM     10  H13 3Q4 d   1     -44.380  22.709  11.719  0.00  0.00     0.036 H 
ATOM     11  H14 3Q4 d   1     -47.892  20.458  11.103  0.00  0.00     0.065 H 
ATOM     12  H15 3Q4 d   1     -47.842  21.042  12.801  0.00  0.00     0.065 H 
ATOM     13  H16 3Q4 d   1     -46.645  22.504  10.359  0.00  0.00     0.057 H 
ATOM     14  H17 3Q4 d   1     -44.099  20.662  12.933  0.00  0.00     0.072 H 
ENDROOT
BRANCH   6  15
ATOM     15  C15 3Q4 d   1     -45.750  19.117  11.686  0.00  0.00     0.147 A 
ATOM     16  C9  3Q4 d   1     -44.549  18.519  12.056  0.00  0.00    -0.009 A 
ATOM     17  C14 3Q4 d   1     -44.332  17.186  11.752  0.00  0.00     0.089 A 
ATOM     18  H9  3Q4 d   1     -43.791  19.092  12.577  0.00  0.00     0.093 H 
ATOM     19  N25 3Q4 d   1     -45.277  16.485  11.105  0.00  0.00    -0.062 NA
ATOM     20  C17 3Q4 d   1     -46.421  17.112  10.765  0.00  0.00     0.722 A 
ATOM     21  N26 3Q4 d   1     -46.681  18.402  11.039  0.00  0.00    -0.045 NA
BRANCH  17  22
ATOM     22  C11 3Q4 d   1     -43.101  16.452  12.141  0.00  0.00    -0.004 A 
ATOM     23  C5  3Q4 d   1     -42.000  17.091  12.704  0.00  0.00    -0.070 A 
ATOM     24  C4  3Q4 d   1     -40.802  16.482  13.044  0.00  0.00    -0.066 A 
ATOM     25  H5  3Q4 d   1     -42.087  18.155  12.893  0.00  0.00     0.084 H 
ATOM     26  C10 3Q4 d   1     -40.719  15.108  12.798  0.00  0.00     0.039 A 
ATOM     27  H4  3Q4 d   1     -39.978  17.038  13.475  0.00  0.00     0.085 H 
ATOM     28  C12 3Q4 d   1     -41.826  14.476  12.257  0.00  0.00     0.091 A 
ATOM     29  C16 3Q4 d   1     -39.737  14.081  12.955  0.00  0.00     0.128 A 
ATOM     30  C8  3Q4 d   1     -43.019  15.087  11.911  0.00  0.00    -0.040 A 
ATOM     31  N28 3Q4 d   1     -41.459  13.168  12.120  0.00  0.00    -0.172 NA
ATOM     32  H8  3Q4 d   1     -43.844  14.529  11.484  0.00  0.00     0.088 H 
ATOM     33  N27 3Q4 d   1     -40.211  12.899  12.527  0.00  0.00    -0.262 N 
ATOM     34  H21 3Q4 d   1     -39.725  11.991  12.514  0.00  0.00     0.191 HD
BRANCH  29  35
ATOM     35  N30 3Q4 d   1     -38.479  14.272  13.466  0.00  0.00    -0.384 N 
ATOM     36  H22 3Q4 d   1     -38.185  15.210  13.775  0.00  0.00     0.157 HD
ATOM     37  H23 3Q4 d   1     -37.828  13.478  13.541  0.00  0.00     0.157 HD
ENDBRANCH  29  35
ENDBRANCH  17  22
BRANCH  20  38
ATOM     38  N31 3Q4 d   1     -47.417  16.390  10.088  0.00  0.00    -0.231 N 
ATOM     39  H24 3Q4 d   1     -47.266  15.398   9.855  0.00  0.00     0.174 HD
ATOM     40  H25 3Q4 d   1     -48.299  16.852   9.824  0.00  0.00     0.174 HD
ENDBRANCH  20  38
ENDBRANCH   6  15
BRANCH   5  41
ATOM     41  C24 3Q4 d   1     -45.576  20.980  14.418  0.00  0.00    -0.057 C 
ATOM     42  H18 3Q4 d   1     -45.652  19.912  14.669  0.00  0.00     0.030 H 
ATOM     43  H19 3Q4 d   1     -46.564  21.452  14.521  0.00  0.00     0.030 H 
ATOM     44  H20 3Q4 d   1     -44.864  21.467  15.101  0.00  0.00     0.030 H 
ENDBRANCH   5  41
BRANCH   4  45
ATOM     45  C18 3Q4 d   1     -48.525  23.118  11.257  0.00  0.00     0.228 C 
ATOM     46  N32 3Q4 d   1     -49.026  23.296   9.989  0.00  0.00    -0.327 N 
ATOM     47  H26 3Q4 d   1     -48.442  23.066   9.210  0.00  0.00     0.169 HD
ATOM     48  O33 3Q4 d   1     -49.133  23.409  12.265  0.00  0.00    -0.273 OA
BRANCH  46  49
ATOM     49  C13 3Q4 d   1     -50.316  23.784   9.734  0.00  0.00     0.034 A 
ATOM     50  C6  3Q4 d   1     -50.979  23.336   8.611  0.00  0.00    -0.057 A 
ATOM     51  C2  3Q4 d   1     -52.249  23.800   8.329  0.00  0.00    -0.081 A 
ATOM     52  H6  3Q4 d   1     -50.504  22.620   7.950  0.00  0.00     0.086 H 
ATOM     53  C1  3Q4 d   1     -52.855  24.713   9.169  0.00  0.00    -0.083 A 
ATOM     54  H2  3Q4 d   1     -52.771  23.447   7.447  0.00  0.00     0.083 H 
ATOM     55  C3  3Q4 d   1     -52.182  25.164  10.288  0.00  0.00    -0.081 A 
ATOM     56  H1  3Q4 d   1     -53.854  25.074   8.952  0.00  0.00     0.083 H 
ATOM     57  C7  3Q4 d   1     -50.913  24.703  10.574  0.00  0.00    -0.057 A 
ATOM     58  H3  3Q4 d   1     -52.654  25.885  10.946  0.00  0.00     0.083 H 
ATOM     59  H7  3Q4 d   1     -50.388  25.060  11.453  0.00  0.00     0.086 H 
ENDBRANCH  46  49
ENDBRANCH   4  45
TORSDOF 7
