REMARK  11 active torsions:
REMARK  status: ('A' for Active; 'I' for Inactive)
REMARK    1  A    between atoms: C8_8  and  C6_6 
REMARK    2  A    between atoms: N27_27  and  C9_9 
REMARK    3  A    between atoms: C10_10  and  N28_28 
REMARK    4  A    between atoms: C11_11  and  N29_29 
REMARK       I    between atoms: C12_12  and  N30_30 
REMARK    5  A    between atoms: O32_32  and  C12_12 
REMARK    6  A    between atoms: N30_30  and  C16_16 
REMARK    7  A    between atoms: C17_17  and  C18_18 
REMARK    8  A    between atoms: C22_22  and  C19_19 
REMARK    9  A    between atoms: C22_22  and  C20_20 
REMARK   10  A    between atoms: C22_22  and  C21_21 
REMARK   11  A    between atoms: C22_22  and  O32_32 
ROOT
ATOM      1  C13 3Q5 d   1     -46.840  22.472  13.147  0.00  0.00    -0.043 C 
ATOM      2  C14 3Q5 d   1     -45.619  21.722  13.672  0.00  0.00    -0.044 C 
ATOM      3  C15 3Q5 d   1     -47.021  20.930  11.252  0.00  0.00     0.016 C 
ATOM      4  C16 3Q5 d   1     -47.783  21.526  12.421  0.00  0.00     0.030 C 
ATOM      5  C17 3Q5 d   1     -44.912  20.999  12.549  0.00  0.00     0.010 C 
ATOM      6  N27 3Q5 d   1     -45.987  20.210  11.974  0.00  0.00    -0.359 N 
ATOM      7  H5  3Q5 d   1     -46.510  23.257  12.450  0.00  0.00     0.036 H 
ATOM      8  H6  3Q5 d   1     -47.372  22.933  13.993  0.00  0.00     0.036 H 
ATOM      9  H7  3Q5 d   1     -45.942  20.989  14.426  0.00  0.00     0.036 H 
ATOM     10  H8  3Q5 d   1     -44.925  22.440  14.133  0.00  0.00     0.036 H 
ATOM     11  H9  3Q5 d   1     -46.598  21.708  10.600  0.00  0.00     0.067 H 
ATOM     12  H10 3Q5 d   1     -47.650  20.253  10.655  0.00  0.00     0.067 H 
ATOM     13  H11 3Q5 d   1     -48.058  20.708  13.103  0.00  0.00     0.075 H 
ATOM     14  H12 3Q5 d   1     -44.097  20.360  12.921  0.00  0.00     0.072 H 
ENDROOT
BRANCH   6  15
ATOM     15  C9  3Q5 d   1     -45.663  18.897  11.551  0.00  0.00     0.147 A 
ATOM     16  C4  3Q5 d   1     -44.442  18.353  11.907  0.00  0.00    -0.009 A 
ATOM     17  C8  3Q5 d   1     -44.176  17.056  11.522  0.00  0.00     0.089 A 
ATOM     18  H4  3Q5 d   1     -43.717  18.928  12.471  0.00  0.00     0.093 H 
ATOM     19  N23 3Q5 d   1     -45.078  16.341  10.832  0.00  0.00    -0.062 NA
ATOM     20  C11 3Q5 d   1     -46.244  16.938  10.533  0.00  0.00     0.722 A 
ATOM     21  N24 3Q5 d   1     -46.575  18.187  10.875  0.00  0.00    -0.045 NA
BRANCH  17  22
ATOM     22  C6  3Q5 d   1     -42.936  16.371  11.888  0.00  0.00    -0.004 A 
ATOM     23  C2  3Q5 d   1     -41.859  17.057  12.421  0.00  0.00    -0.070 A 
ATOM     24  C1  3Q5 d   1     -40.666  16.455  12.775  0.00  0.00    -0.066 A 
ATOM     25  H2  3Q5 d   1     -41.956  18.126  12.569  0.00  0.00     0.084 H 
ATOM     26  C5  3Q5 d   1     -40.573  15.082  12.577  0.00  0.00     0.039 A 
ATOM     27  H1  3Q5 d   1     -39.842  17.026  13.187  0.00  0.00     0.085 H 
ATOM     28  C7  3Q5 d   1     -41.655  14.407  12.049  0.00  0.00     0.091 A 
ATOM     29  C10 3Q5 d   1     -39.573  14.088  12.778  0.00  0.00     0.128 A 
ATOM     30  C3  3Q5 d   1     -42.846  15.007  11.694  0.00  0.00    -0.040 A 
ATOM     31  N26 3Q5 d   1     -41.267  13.095  11.968  0.00  0.00    -0.172 NA
ATOM     32  H3  3Q5 d   1     -43.670  14.435  11.283  0.00  0.00     0.088 H 
ATOM     33  N25 3Q5 d   1     -40.008  12.880  12.397  0.00  0.00    -0.262 N 
ATOM     34  H25 3Q5 d   1     -39.495  11.987  12.425  0.00  0.00     0.191 HD
BRANCH  29  35
ATOM     35  N28 3Q5 d   1     -38.339  14.372  13.287  0.00  0.00    -0.384 N 
ATOM     36  H26 3Q5 d   1     -38.101  15.339  13.551  0.00  0.00     0.157 HD
ATOM     37  H27 3Q5 d   1     -37.646  13.620  13.407  0.00  0.00     0.157 HD
ENDBRANCH  29  35
ENDBRANCH  17  22
BRANCH  20  38
ATOM     38  N29 3Q5 d   1     -47.206  16.217   9.818  0.00  0.00    -0.231 N 
ATOM     39  H28 3Q5 d   1     -47.011  15.249   9.525  0.00  0.00     0.174 HD
ATOM     40  H29 3Q5 d   1     -48.109  16.654   9.584  0.00  0.00     0.174 HD
ENDBRANCH  20  38
ENDBRANCH   6  15
BRANCH   5  41
ATOM     41  C18 3Q5 d   1     -44.372  22.000  11.560  0.00  0.00    -0.057 C 
ATOM     42  H13 3Q5 d   1     -43.858  21.469  10.745  0.00  0.00     0.030 H 
ATOM     43  H14 3Q5 d   1     -43.661  22.669  12.067  0.00  0.00     0.030 H 
ATOM     44  H15 3Q5 d   1     -45.202  22.592  11.147  0.00  0.00     0.030 H 
ENDBRANCH   5  41
BRANCH   4  45
ATOM     45  N30 3Q5 d   1     -49.002  22.204  12.042  0.00  0.00    -0.331 N 
ATOM     46  C12 3Q5 d   1     -50.242  21.638  12.242  0.00  0.00     0.361 C 
ATOM     47  O31 3Q5 d   1     -50.477  20.574  12.793  0.00  0.00    -0.238 OA
ATOM     48  H30 3Q5 d   1     -48.944  23.110  11.623  0.00  0.00     0.165 HD
BRANCH  46  49
ATOM     49  O32 3Q5 d   1     -51.189  22.451  11.700  0.00  0.00    -0.294 OA
BRANCH  49  50
ATOM     50  C22 3Q5 d   1     -52.549  22.089  11.922  0.00  0.00     0.061 C 
BRANCH  50  51
ATOM     51  C19 3Q5 d   1     -52.806  21.881  13.401  0.00  0.00    -0.048 C 
ATOM     52  H16 3Q5 d   1     -53.859  21.602  13.555  0.00  0.00     0.031 H 
ATOM     53  H17 3Q5 d   1     -52.590  22.812  13.945  0.00  0.00     0.031 H 
ATOM     54  H18 3Q5 d   1     -52.156  21.077  13.777  0.00  0.00     0.031 H 
ENDBRANCH  50  51
BRANCH  50  55
ATOM     55  C20 3Q5 d   1     -53.391  23.246  11.428  0.00  0.00    -0.048 C 
ATOM     56  H19 3Q5 d   1     -53.208  23.401  10.354  0.00  0.00     0.031 H 
ATOM     57  H20 3Q5 d   1     -53.122  24.158  11.981  0.00  0.00     0.031 H 
ATOM     58  H21 3Q5 d   1     -54.455  23.020  11.589  0.00  0.00     0.031 H 
ENDBRANCH  50  55
BRANCH  50  59
ATOM     59  C21 3Q5 d   1     -52.895  20.859  11.114  0.00  0.00    -0.048 C 
ATOM     60  H22 3Q5 d   1     -52.290  20.009  11.463  0.00  0.00     0.031 H 
ATOM     61  H23 3Q5 d   1     -52.684  21.047  10.051  0.00  0.00     0.031 H 
ATOM     62  H24 3Q5 d   1     -53.962  20.625  11.241  0.00  0.00     0.031 H 
ENDBRANCH  50  59
ENDBRANCH  49  50
ENDBRANCH  46  49
ENDBRANCH   4  45
TORSDOF 11
