REMARK  11 active torsions:
REMARK  status: ('A' for Active; 'I' for Inactive)
REMARK    1  A    between atoms: C8_8  and  C6_6 
REMARK    2  A    between atoms: N27_27  and  C9_9 
REMARK    3  A    between atoms: C10_10  and  N28_28 
REMARK    4  A    between atoms: C11_11  and  N29_29 
REMARK       I    between atoms: C12_12  and  N30_30 
REMARK    5  A    between atoms: O32_32  and  C12_12 
REMARK    6  A    between atoms: C16_16  and  C18_18 
REMARK    7  A    between atoms: N30_30  and  C17_17 
REMARK    8  A    between atoms: C22_22  and  C19_19 
REMARK    9  A    between atoms: C22_22  and  C20_20 
REMARK   10  A    between atoms: C22_22  and  C21_21 
REMARK   11  A    between atoms: C22_22  and  O32_32 
ROOT
ATOM      1  C13 3Q6 d   1     -47.046  22.569  13.040  0.00  0.00    -0.040 C 
ATOM      2  C14 3Q6 d   1     -45.171  21.282  11.955  0.00  0.00    -0.000 C 
ATOM      3  C15 3Q6 d   1     -47.462  21.002  11.099  0.00  0.00     0.015 C 
ATOM      4  C16 3Q6 d   1     -45.651  21.965  13.229  0.00  0.00    -0.040 C 
ATOM      5  C17 3Q6 d   1     -48.039  21.627  12.357  0.00  0.00     0.030 C 
ATOM      6  N27 3Q6 d   1     -46.302  20.402  11.727  0.00  0.00    -0.363 N 
ATOM      7  H5  3Q6 d   1     -46.951  23.477  12.426  0.00  0.00     0.036 H 
ATOM      8  H6  3Q6 d   1     -47.446  22.836  14.030  0.00  0.00     0.036 H 
ATOM      9  H7  3Q6 d   1     -44.238  20.721  12.114  0.00  0.00     0.064 H 
ATOM     10  H8  3Q6 d   1     -45.033  21.997  11.131  0.00  0.00     0.064 H 
ATOM     11  H9  3Q6 d   1     -47.191  21.752  10.341  0.00  0.00     0.067 H 
ATOM     12  H10 3Q6 d   1     -48.134  20.255  10.652  0.00  0.00     0.067 H 
ATOM     13  H11 3Q6 d   1     -44.950  22.772  13.488  0.00  0.00     0.042 H 
ATOM     14  H12 3Q6 d   1     -48.256  20.808  13.058  0.00  0.00     0.075 H 
ENDROOT
BRANCH   6  15
ATOM     15  C9  3Q6 d   1     -46.020  19.050  11.444  0.00  0.00     0.147 A 
ATOM     16  C4  3Q6 d   1     -44.807  18.542  11.873  0.00  0.00    -0.009 A 
ATOM     17  C8  3Q6 d   1     -44.584  17.207  11.627  0.00  0.00     0.089 A 
ATOM     18  H4  3Q6 d   1     -44.073  19.162  12.375  0.00  0.00     0.093 H 
ATOM     19  N23 3Q6 d   1     -45.495  16.444  11.000  0.00  0.00    -0.062 NA
ATOM     20  C11 3Q6 d   1     -46.650  17.015  10.629  0.00  0.00     0.722 A 
ATOM     21  N24 3Q6 d   1     -46.952  18.301  10.842  0.00  0.00    -0.045 NA
BRANCH  17  22
ATOM     22  C6  3Q6 d   1     -43.376  16.511  12.036  0.00  0.00    -0.004 A 
ATOM     23  C2  3Q6 d   1     -42.282  17.141  12.600  0.00  0.00    -0.070 A 
ATOM     24  C1  3Q6 d   1     -41.124  16.469  12.948  0.00  0.00    -0.066 A 
ATOM     25  H2  3Q6 d   1     -42.334  18.209  12.777  0.00  0.00     0.084 H 
ATOM     26  C5  3Q6 d   1     -41.083  15.098  12.724  0.00  0.00     0.039 A 
ATOM     27  H1  3Q6 d   1     -40.279  16.993  13.380  0.00  0.00     0.085 H 
ATOM     28  C7  3Q6 d   1     -42.190  14.487  12.179  0.00  0.00     0.091 A 
ATOM     29  C10 3Q6 d   1     -40.142  14.033  12.906  0.00  0.00     0.128 A 
ATOM     30  C3  3Q6 d   1     -43.340  15.152  11.822  0.00  0.00    -0.040 A 
ATOM     31  N26 3Q6 d   1     -41.877  13.157  12.067  0.00  0.00    -0.172 NA
ATOM     32  H3  3Q6 d   1     -44.184  14.627  11.389  0.00  0.00     0.088 H 
ATOM     33  N25 3Q6 d   1     -40.641  12.862  12.498  0.00  0.00    -0.262 N 
ATOM     34  H25 3Q6 d   1     -40.181  11.941  12.511  0.00  0.00     0.191 HD
BRANCH  29  35
ATOM     35  N28 3Q6 d   1     -38.897  14.194  13.427  0.00  0.00    -0.384 N 
ATOM     36  H26 3Q6 d   1     -38.579  15.128  13.721  0.00  0.00     0.157 HD
ATOM     37  H27 3Q6 d   1     -38.272  13.382  13.528  0.00  0.00     0.157 HD
ENDBRANCH  29  35
ENDBRANCH  17  22
BRANCH  20  38
ATOM     38  N29 3Q6 d   1     -47.611  16.226   9.984  0.00  0.00    -0.231 N 
ATOM     39  H28 3Q6 d   1     -47.421  15.231   9.800  0.00  0.00     0.174 HD
ATOM     40  H29 3Q6 d   1     -48.508  16.641   9.694  0.00  0.00     0.174 HD
ENDBRANCH  20  38
ENDBRANCH   6  15
BRANCH   4  41
ATOM     41  C18 3Q6 d   1     -45.672  20.948  14.345  0.00  0.00    -0.071 C 
ATOM     42  H13 3Q6 d   1     -46.017  21.428  15.272  0.00  0.00     0.028 H 
ATOM     43  H14 3Q6 d   1     -44.659  20.547  14.495  0.00  0.00     0.028 H 
ATOM     44  H15 3Q6 d   1     -46.355  20.128  14.081  0.00  0.00     0.028 H 
ENDBRANCH   4  41
BRANCH   5  45
ATOM     45  N30 3Q6 d   1     -49.269  22.313  12.096  0.00  0.00    -0.331 N 
ATOM     46  C12 3Q6 d   1     -50.474  21.703  12.333  0.00  0.00     0.361 C 
ATOM     47  O31 3Q6 d   1     -50.660  20.644  12.915  0.00  0.00    -0.238 OA
ATOM     48  H30 3Q6 d   1     -49.249  23.246  11.737  0.00  0.00     0.165 HD
BRANCH  46  49
ATOM     49  O32 3Q6 d   1     -51.427  22.497  11.789  0.00  0.00    -0.294 OA
BRANCH  49  50
ATOM     50  C22 3Q6 d   1     -52.807  22.166  11.991  0.00  0.00     0.061 C 
BRANCH  50  51
ATOM     51  C19 3Q6 d   1     -53.151  22.124  13.473  0.00  0.00    -0.048 C 
ATOM     52  H16 3Q6 d   1     -54.214  21.868  13.596  0.00  0.00     0.031 H 
ATOM     53  H17 3Q6 d   1     -52.957  23.109  13.923  0.00  0.00     0.031 H 
ATOM     54  H18 3Q6 d   1     -52.531  21.364  13.972  0.00  0.00     0.031 H 
ENDBRANCH  50  51
BRANCH  50  55
ATOM     55  C20 3Q6 d   1     -53.561  23.292  11.317  0.00  0.00    -0.048 C 
ATOM     56  H19 3Q6 d   1     -53.306  23.315  10.247  0.00  0.00     0.031 H 
ATOM     57  H20 3Q6 d   1     -53.282  24.250  11.781  0.00  0.00     0.031 H 
ATOM     58  H21 3Q6 d   1     -54.643  23.130  11.433  0.00  0.00     0.031 H 
ENDBRANCH  50  55
BRANCH  50  59
ATOM     59  C21 3Q6 d   1     -53.192  20.878  11.295  0.00  0.00    -0.048 C 
ATOM     60  H22 3Q6 d   1     -52.660  20.036  11.762  0.00  0.00     0.031 H 
ATOM     61  H23 3Q6 d   1     -52.919  20.940  10.231  0.00  0.00     0.031 H 
ATOM     62  H24 3Q6 d   1     -54.277  20.722  11.386  0.00  0.00     0.031 H 
ENDBRANCH  50  59
ENDBRANCH  49  50
ENDBRANCH  46  49
ENDBRANCH   5  45
TORSDOF 11
