REMARK  7 active torsions:
REMARK  status: ('A' for Active; 'I' for Inactive)
REMARK    1  A    between atoms: C13_18  and  N1_2 
REMARK    2  A    between atoms: C18_22  and  O2_5 
REMARK    3  A    between atoms: C7_10  and  C4_7 
REMARK    4  A    between atoms: C8_11  and  C7_10 
REMARK    5  A    between atoms: C14_19  and  C13_18 
REMARK    6  A    between atoms: C13_18  and  C24_24 
REMARK    7  A    between atoms: C15_20  and  C14_19 
ROOT
ATOM      1  N1  QEL d   1      86.103   6.601 -31.882  0.00  0.00    -0.401 N 
ATOM      2  C8  QEL d   1      84.553   4.265 -31.271  0.00  0.00    -0.048 C 
ATOM      3  C9  QEL d   1      84.134   5.132 -32.344  0.00  0.00    -0.047 C 
ATOM      4  C10 QEL d   1      85.252   5.961 -32.912  0.00  0.00    -0.009 C 
ATOM      5  C11 QEL d   1      86.474   5.780 -30.763  0.00  0.00    -0.009 C 
ATOM      6  C12 QEL d   1      85.356   4.957 -30.241  0.00  0.00    -0.047 C 
ATOM      7  H   QEL d   1      85.115   3.476 -31.770  0.00  0.00     0.040 H 
ATOM      8  H   QEL d   1      83.388   5.817 -31.941  0.00  0.00     0.035 H 
ATOM      9  H   QEL d   1      83.752   4.501 -33.147  0.00  0.00     0.035 H 
ATOM     10  H   QEL d   1      85.889   5.294 -33.492  0.00  0.00     0.063 H 
ATOM     11  H   QEL d   1      84.799   6.758 -33.501  0.00  0.00     0.063 H 
ATOM     12  H   QEL d   1      86.796   6.444 -29.961  0.00  0.00     0.063 H 
ATOM     13  H   QEL d   1      87.255   5.098 -31.100  0.00  0.00     0.063 H 
ATOM     14  H   QEL d   1      85.801   4.182 -29.617  0.00  0.00     0.035 H 
ATOM     15  H   QEL d   1      84.681   5.637 -29.722  0.00  0.00     0.035 H 
ENDROOT
BRANCH   1  16
ATOM     16  C13 QEL d   1      87.092   7.484 -32.522  0.00  0.00     0.066 C 
ATOM     17  H   QEL d   1      88.046   7.056 -32.212  0.00  0.00     0.084 H 
BRANCH  16  18
ATOM     18  C14 QEL d   1      86.941   8.908 -32.093  0.00  0.00     0.181 C 
ATOM     19  O1  QEL d   1      85.825   9.430 -32.013  0.00  0.00    -0.290 OA
BRANCH  18  20
ATOM     20  C15 QEL d   1      88.256   9.661 -31.872  0.00  0.00     0.012 A 
ATOM     21  C16 QEL d   1      89.103   9.378 -30.867  0.00  0.00    -0.067 A 
ATOM     22  C2  QEL d   1      90.322  10.102 -30.746  0.00  0.00    -0.050 A 
ATOM     23  H   QEL d   1      88.857   8.597 -30.148  0.00  0.00     0.085 H 
ATOM     24  C18 QEL d   1      90.637  11.092 -31.686  0.00  0.00     0.065 A 
ATOM     25  H   QEL d   1      91.007   9.887 -29.926  0.00  0.00     0.087 H 
ATOM     26  C3  QEL d   1      89.810  11.352 -32.685  0.00  0.00    -0.050 A 
ATOM     27  C19 QEL d   1      88.594  10.619 -32.798  0.00  0.00    -0.067 A 
ATOM     28  H   QEL d   1      90.057  12.121 -33.416  0.00  0.00     0.087 H 
ATOM     29  H   QEL d   1      87.921  10.821 -33.632  0.00  0.00     0.085 H 
BRANCH  24  30
ATOM     30  O2  QEL d   1      91.837  11.835 -31.620  0.00  0.00    -0.361 OA
ATOM     31  H   QEL d   1      91.872  12.312 -30.787  0.00  0.00     0.217 HD
ENDBRANCH  24  30
ENDBRANCH  18  20
ENDBRANCH  16  18
BRANCH  16  32
ATOM     32  C24 QEL d   1      86.983   7.524 -33.987  0.00  0.00    -0.051 C 
ATOM     33  H   QEL d   1      86.011   7.931 -34.267  0.00  0.00     0.030 H 
ATOM     34  H   QEL d   1      87.774   8.156 -34.392  0.00  0.00     0.030 H 
ATOM     35  H   QEL d   1      87.083   6.514 -34.385  0.00  0.00     0.030 H 
ENDBRANCH  16  32
ENDBRANCH   1  16
BRANCH   2  36
ATOM     36  C7  QEL d   1      83.298   3.768 -30.437  0.00  0.00    -0.037 C 
ATOM     37  H   QEL d   1      83.718   3.218 -29.595  0.00  0.00     0.040 H 
ATOM     38  H   QEL d   1      82.716   4.668 -30.238  0.00  0.00     0.040 H 
BRANCH  36  39
ATOM     39  C4  QEL d   1      82.337   2.819 -31.080  0.00  0.00    -0.058 A 
ATOM     40  C5  QEL d   1      81.049   3.253 -31.378  0.00  0.00    -0.077 A 
ATOM     41  C6  QEL d   1      80.120   2.364 -31.932  0.00  0.00    -0.082 A 
ATOM     42  H   QEL d   1      80.763   4.286 -31.180  0.00  0.00     0.084 H 
ATOM     43  C1  QEL d   1      80.499   1.022 -32.188  0.00  0.00    -0.083 A 
ATOM     44  H   QEL d   1      79.110   2.702 -32.165  0.00  0.00     0.083 H 
ATOM     45  C01 QEL d   1      81.784   0.586 -31.885  0.00  0.00    -0.082 A 
ATOM     46  H   QEL d   1      79.780   0.329 -32.624  0.00  0.00     0.083 H 
ATOM     47  C02 QEL d   1      82.708   1.476 -31.320  0.00  0.00    -0.077 A 
ATOM     48  H   QEL d   1      82.072  -0.446 -32.086  0.00  0.00     0.083 H 
ATOM     49  H   QEL d   1      83.711   1.133 -31.066  0.00  0.00     0.084 H 
ENDBRANCH  36  39
ENDBRANCH   2  36
TORSDOF 7
