REMARK  9 active torsions:
REMARK  status: ('A' for Active; 'I' for Inactive)
REMARK    1  A    between atoms: C13_17  and  N_2 
REMARK    2  A    between atoms: C20_24  and  O_3 
REMARK    3  A    between atoms: C15_19  and  O01_5 
REMARK    4  A    between atoms: C07_11  and  C02_6 
REMARK    5  A    between atoms: C08_12  and  C07_11 
REMARK    6  A    between atoms: C14_18  and  C13_17 
REMARK    7  A    between atoms: C15_19  and  C14_18 
REMARK    8  A    between atoms: C14_18  and  C17_21 
REMARK    9  A    between atoms: C16_20  and  C15_19 
ROOT
ATOM      1  N   QEM d   1      85.718   6.409 -32.303  0.00  0.00     0.088 N 
ATOM      2  C08 QEM d   1      84.068   4.206 -31.401  0.00  0.00    -0.047 C 
ATOM      3  C09 QEM d   1      84.988   4.883 -30.524  0.00  0.00    -0.036 C 
ATOM      4  C10 QEM d   1      86.139   5.577 -31.197  0.00  0.00     0.114 C 
ATOM      5  C11 QEM d   1      84.996   5.614 -33.255  0.00  0.00     0.114 C 
ATOM      6  C12 QEM d   1      83.801   4.954 -32.646  0.00  0.00    -0.036 C 
ATOM      7  H   QEM d   1      84.490   3.251 -31.713  0.00  0.00     0.040 H 
ATOM      8  H   QEM d   1      85.422   4.117 -29.881  0.00  0.00     0.036 H 
ATOM      9  H   QEM d   1      84.415   5.658 -30.015  0.00  0.00     0.036 H 
ATOM     10  H   QEM d   1      86.621   6.219 -30.459  0.00  0.00     0.079 H 
ATOM     11  H   QEM d   1      86.809   4.812 -31.589  0.00  0.00     0.079 H 
ATOM     12  H   QEM d   1      85.664   4.835 -33.623  0.00  0.00     0.079 H 
ATOM     13  H   QEM d   1      84.651   6.270 -34.054  0.00  0.00     0.079 H 
ATOM     14  H   QEM d   1      83.099   5.748 -32.392  0.00  0.00     0.036 H 
ATOM     15  H   QEM d   1      83.435   4.231 -33.375  0.00  0.00     0.036 H 
ENDROOT
BRANCH   1  16
ATOM     16  C13 QEM d   1      86.360   7.313 -33.251  0.00  0.00     0.119 C 
ATOM     17  H   QEM d   1      85.561   7.836 -33.778  0.00  0.00     0.080 H 
ATOM     18  H   QEM d   1      87.004   6.701 -33.882  0.00  0.00     0.080 H 
BRANCH  16  19
ATOM     19  C14 QEM d   1      87.237   8.371 -32.629  0.00  0.00    -0.003 C 
ATOM     20  H   QEM d   1      87.637   8.027 -31.675  0.00  0.00     0.046 H 
BRANCH  19  21
ATOM     21  C15 QEM d   1      88.405   8.643 -33.517  0.00  0.00     0.065 C 
ATOM     22  H   QEM d   1      88.928   7.687 -33.542  0.00  0.00     0.091 H 
BRANCH  21  23
ATOM     23  O01 QEM d   1      87.965   9.093 -34.765  0.00  0.00    -0.390 OA
ATOM     24  H   QEM d   1      87.459   9.901 -34.652  0.00  0.00     0.210 HD
ENDBRANCH  21  23
BRANCH  21  25
ATOM     25  C16 QEM d   1      89.376   9.709 -33.030  0.00  0.00    -0.029 A 
ATOM     26  C   QEM d   1      90.309   9.461 -32.014  0.00  0.00    -0.072 A 
ATOM     27  C21 QEM d   1      91.176  10.459 -31.621  0.00  0.00    -0.050 A 
ATOM     28  H   QEM d   1      90.349   8.482 -31.536  0.00  0.00     0.084 H 
ATOM     29  C20 QEM d   1      91.163  11.719 -32.219  0.00  0.00     0.065 A 
ATOM     30  H   QEM d   1      91.890  10.258 -30.822  0.00  0.00     0.087 H 
ATOM     31  C19 QEM d   1      90.248  11.963 -33.221  0.00  0.00    -0.050 A 
ATOM     32  C18 QEM d   1      89.361  10.950 -33.623  0.00  0.00    -0.072 A 
ATOM     33  H   QEM d   1      90.213  12.941 -33.701  0.00  0.00     0.087 H 
ATOM     34  H   QEM d   1      88.647  11.152 -34.421  0.00  0.00     0.084 H 
BRANCH  29  35
ATOM     35  O   QEM d   1      92.074  12.747 -31.808  0.00  0.00    -0.361 OA
ATOM     36  H   QEM d   1      92.637  12.412 -31.106  0.00  0.00     0.217 HD
ENDBRANCH  29  35
ENDBRANCH  21  25
ENDBRANCH  19  21
BRANCH  19  37
ATOM     37  C17 QEM d   1      86.392   9.632 -32.345  0.00  0.00    -0.069 C 
ATOM     38  H   QEM d   1      85.975  10.006 -33.280  0.00  0.00     0.028 H 
ATOM     39  H   QEM d   1      85.583   9.379 -31.660  0.00  0.00     0.028 H 
ATOM     40  H   QEM d   1      87.024  10.398 -31.895  0.00  0.00     0.028 H 
ENDBRANCH  19  37
ENDBRANCH  16  19
ENDBRANCH   1  16
BRANCH   2  41
ATOM     41  C07 QEM d   1      82.744   4.056 -30.585  0.00  0.00    -0.038 C 
ATOM     42  H   QEM d   1      83.002   3.852 -29.546  0.00  0.00     0.040 H 
ATOM     43  H   QEM d   1      82.173   4.979 -30.685  0.00  0.00     0.040 H 
BRANCH  41  44
ATOM     44  C02 QEM d   1      81.893   2.909 -31.100  0.00  0.00    -0.058 A 
ATOM     45  C01 QEM d   1      80.504   3.105 -31.331  0.00  0.00    -0.077 A 
ATOM     46  C06 QEM d   1      79.715   2.039 -31.815  0.00  0.00    -0.082 A 
ATOM     47  H   QEM d   1      80.049   4.076 -31.135  0.00  0.00     0.084 H 
ATOM     48  C05 QEM d   1      80.304   0.810 -32.049  0.00  0.00    -0.083 A 
ATOM     49  H   QEM d   1      78.651   2.183 -32.003  0.00  0.00     0.083 H 
ATOM     50  C04 QEM d   1      81.689   0.611 -31.806  0.00  0.00    -0.082 A 
ATOM     51  H   QEM d   1      79.699  -0.015 -32.424  0.00  0.00     0.083 H 
ATOM     52  C03 QEM d   1      82.478   1.677 -31.333  0.00  0.00    -0.077 A 
ATOM     53  H   QEM d   1      82.140  -0.365 -31.985  0.00  0.00     0.083 H 
ATOM     54  H   QEM d   1      83.543   1.532 -31.151  0.00  0.00     0.084 H 
ENDBRANCH  41  44
ENDBRANCH   2  41
TORSDOF 9
