REMARK  23 active torsions:
REMARK  status: ('A' for Active; 'I' for Inactive)
REMARK    1  A    between atoms: N_1  and  CA_2 
REMARK    2  A    between atoms: CA_2  and  C_3 
REMARK    3  A    between atoms: CA_2  and  CB_5 
REMARK       I    between atoms: C_3  and  N_7 
REMARK    4  A    between atoms: CB_5  and  OG_6 
REMARK    5  A    between atoms: N_7  and  CA_8 
REMARK    6  A    between atoms: CA_8  and  C_9 
REMARK    7  A    between atoms: CA_8  and  CB_11 
REMARK       I    between atoms: C_9  and  N_14 
REMARK    8  A    between atoms: CB_11  and  OG1_12 
REMARK    9  A    between atoms: CB_11  and  CG2_13 
REMARK   10  A    between atoms: N_14  and  CA_15 
REMARK   11  A    between atoms: CA_21  and  CB_24 
REMARK   12  A    between atoms: CB_24  and  CG_25 
REMARK   13  A    between atoms: CZ_30  and  OH_31 
REMARK   14  A    between atoms: CA_33  and  CB_36 
REMARK   15  A    between atoms: CB_36  and  CG_37 
REMARK   16  A    between atoms: CA_44  and  CB_47 
REMARK   17  A    between atoms: CB_47  and  CG1_48 
REMARK   18  A    between atoms: CB_47  and  CG2_49 
REMARK   19  A    between atoms: CG1_48  and  CD1_50 
REMARK   20  A    between atoms: CA_52  and  CB_55 
REMARK   21  A    between atoms: CB_55  and  CG_56 
REMARK   22  A    between atoms: CG_56  and  SD_57 
REMARK   23  A    between atoms: SD_57  and  CE_58 
ROOT
ATOM      1  CA  CYS d   1      13.482 -11.105 -40.205  0.00  0.00     0.098 C 
ATOM      2  C   CYS d   1      14.215 -12.147 -41.008  0.00  0.00     0.241 C 
ATOM      3  O   CYS d   1      13.742 -13.268 -41.129  0.00  0.00    -0.271 OA
ATOM      4  CB  CYS d   1      13.061 -11.574 -38.822  0.00  0.00     0.011 C 
ATOM      5  SG  CYS d   1      14.417 -12.009 -37.779  0.00  0.00    -0.088 SA
ATOM      6  H16 CYS d   1      14.121 -10.216 -40.105  0.00  0.00     0.088 H 
ATOM      7  H17 CYS d   1      12.414 -12.456 -38.936  0.00  0.00     0.053 H 
ATOM      8  H18 CYS d   1      12.496 -10.764 -38.337  0.00  0.00     0.053 H 
ATOM      9  N   TYR d   1      15.358 -11.755 -41.591  0.00  0.00    -0.346 N 
ATOM     10  CA  TYR d   1      16.155 -12.602 -42.471  0.00  0.00     0.093 C 
ATOM     11  C   TYR d   1      17.034 -13.665 -41.865  0.00  0.00     0.241 C 
ATOM     12  O   TYR d   1      17.123 -14.757 -42.422  0.00  0.00    -0.271 OA
ATOM     13  H19 TYR d   1      15.683 -10.826 -41.411  0.00  0.00     0.163 HD
ATOM     14  H20 TYR d   1      15.450 -13.125 -43.134  0.00  0.00     0.088 H 
ATOM     15  N   PHE d   1      17.701 -13.342 -40.751  0.00  0.00    -0.346 N 
ATOM     16  CA  PHE d   1      18.633 -14.237 -40.080  0.00  0.00     0.093 C 
ATOM     17  C   PHE d   1      18.112 -14.720 -38.758  0.00  0.00     0.241 C 
ATOM     18  O   PHE d   1      17.488 -15.768 -38.740  0.00  0.00    -0.271 OA
ATOM     19  H28 PHE d   1      17.551 -12.435 -40.357  0.00  0.00     0.163 HD
ATOM     20  H29 PHE d   1      18.779 -15.130 -40.706  0.00  0.00     0.088 H 
ATOM     21  N   ILE d   1      18.366 -13.999 -37.667  0.00  0.00    -0.346 N 
ATOM     22  CA  ILE d   1      17.878 -14.371 -36.341  0.00  0.00     0.092 C 
ATOM     23  C   ILE d   1      16.960 -13.322 -35.760  0.00  0.00     0.241 C 
ATOM     24  O   ILE d   1      16.230 -13.631 -34.840  0.00  0.00    -0.271 OA
ATOM     25  H37 ILE d   1      18.914 -13.168 -37.760  0.00  0.00     0.163 HD
ATOM     26  H38 ILE d   1      17.261 -15.269 -36.490  0.00  0.00     0.088 H 
ATOM     27  N   MET d   1      16.956 -12.099 -36.284  0.00  0.00    -0.347 N 
ATOM     28  CA  MET d   1      16.035 -11.081 -35.807  0.00  0.00     0.081 C 
ATOM     29  C   MET d   1      15.062 -10.725 -36.922  0.00  0.00     0.208 C 
ATOM     30  O   MET d   1      14.731  -9.575 -37.188  0.00  0.00    -0.283 OA
ATOM     31  H48 MET d   1      17.597 -11.877 -37.018  0.00  0.00     0.163 HD
ATOM     32  H49 MET d   1      15.435 -11.538 -35.006  0.00  0.00     0.086 H 
ENDROOT
BRANCH   1  33
ATOM     33  N   CYS d   1      12.264 -10.776 -40.921  0.00  0.00    -0.345 N 
ATOM     34  C   THR d   1      12.049  -9.636 -41.577  0.00  0.00     0.243 C 
ATOM     35  O   THR d   1      12.849  -8.721 -41.622  0.00  0.00    -0.271 OA
ATOM     36  H15 CYS d   1      11.530 -11.456 -40.922  0.00  0.00     0.163 HD
BRANCH  34  37
ATOM     37  CA  THR d   1      10.718  -9.491 -42.278  0.00  0.00     0.113 C 
ATOM     38  H9  THR d   1      10.799  -8.630 -42.958  0.00  0.00     0.091 H 
BRANCH  37  39
ATOM     39  N   THR d   1      10.312 -10.642 -43.086  0.00  0.00    -0.344 N 
ATOM     40  C   SER d   1      11.039 -11.160 -44.083  0.00  0.00     0.251 C 
ATOM     41  O   SER d   1      12.126 -10.708 -44.401  0.00  0.00    -0.271 OA
ATOM     42  H8  THR d   1       9.432 -11.070 -42.879  0.00  0.00     0.163 HD
BRANCH  40  43
ATOM     43  CA  SER d   1      10.459 -12.348 -44.816  0.00  0.00     0.195 C 
ATOM     44  H4  SER d   1       9.596 -12.703 -44.234  0.00  0.00     0.102 H 
BRANCH  43  45
ATOM     45  N   SER d   1       9.989 -12.032 -46.155  0.00  0.00    -0.064 N 
ATOM     46  H1  SER d   1       9.617 -12.864 -46.585  0.00  0.00     0.275 HD
ATOM     47  H2  SER d   1      10.757 -11.683 -46.707  0.00  0.00     0.275 HD
ATOM     48  H3  SER d   1       9.268 -11.330 -46.101  0.00  0.00     0.275 HD
ENDBRANCH  43  45
BRANCH  43  49
ATOM     49  CB  SER d   1      11.473 -13.479 -44.902  0.00  0.00     0.051 C 
ATOM     50  H5  SER d   1      12.471 -13.068 -45.116  0.00  0.00     0.077 H 
ATOM     51  H6  SER d   1      11.185 -14.176 -45.702  0.00  0.00     0.077 H 
BRANCH  49  52
ATOM     52  OG  SER d   1      11.492 -14.165 -43.648  0.00  0.00    -0.398 OA
ATOM     53  H7  SER d   1      12.122 -14.875 -43.686  0.00  0.00     0.209 HD
ENDBRANCH  49  52
ENDBRANCH  43  49
ENDBRANCH  40  43
ENDBRANCH  37  39
BRANCH  37  54
ATOM     54  CB  THR d   1       9.640  -9.186 -41.242  0.00  0.00     0.060 C 
ATOM     55  H10 THR d   1      10.028  -8.426 -40.548  0.00  0.00     0.086 H 
BRANCH  54  56
ATOM     56  OG1 THR d   1       9.301 -10.359 -40.489  0.00  0.00    -0.393 OA
ATOM     57  H11 THR d   1       8.630 -10.142 -39.853  0.00  0.00     0.210 HD
ENDBRANCH  54  56
BRANCH  54  58
ATOM     58  CG2 THR d   1       8.400  -8.632 -41.930  0.00  0.00    -0.050 C 
ATOM     59  H12 THR d   1       7.629  -8.415 -41.176  0.00  0.00     0.031 H 
ATOM     60  H13 THR d   1       8.015  -9.374 -42.645  0.00  0.00     0.031 H 
ATOM     61  H14 THR d   1       8.660  -7.707 -42.465  0.00  0.00     0.031 H 
ENDBRANCH  54  58
ENDBRANCH  37  54
ENDBRANCH  34  37
ENDBRANCH   1  33
BRANCH  10  62
ATOM     62  CB  TYR d   1      17.017 -11.657 -43.311  0.00  0.00    -0.014 C 
ATOM     63  H21 TYR d   1      17.790 -11.224 -42.659  0.00  0.00     0.043 H 
ATOM     64  H22 TYR d   1      16.372 -10.854 -43.698  0.00  0.00     0.043 H 
BRANCH  62  65
ATOM     65  CG  TYR d   1      17.705 -12.322 -44.486  0.00  0.00    -0.056 A 
ATOM     66  CD1 TYR d   1      16.984 -12.972 -45.482  0.00  0.00    -0.074 A 
ATOM     67  CE1 TYR d   1      17.659 -13.566 -46.555  0.00  0.00    -0.051 A 
ATOM     68  H23 TYR d   1      15.902 -13.018 -45.428  0.00  0.00     0.084 H 
ATOM     69  CZ  TYR d   1      19.060 -13.506 -46.626  0.00  0.00     0.065 A 
ATOM     70  H25 TYR d   1      17.099 -14.073 -47.332  0.00  0.00     0.087 H 
ATOM     71  CE2 TYR d   1      19.771 -12.852 -45.624  0.00  0.00    -0.051 A 
ATOM     72  CD2 TYR d   1      19.090 -12.267 -44.566  0.00  0.00    -0.074 A 
ATOM     73  H26 TYR d   1      20.853 -12.800 -45.670  0.00  0.00     0.087 H 
ATOM     74  H24 TYR d   1      19.649 -11.758 -43.789  0.00  0.00     0.084 H 
BRANCH  69  75
ATOM     75  OH  TYR d   1      19.744 -14.061 -47.674  0.00  0.00    -0.361 OA
ATOM     76  H27 TYR d   1      19.129 -14.469 -48.272  0.00  0.00     0.217 HD
ENDBRANCH  69  75
ENDBRANCH  62  65
ENDBRANCH  10  62
BRANCH  28  77
ATOM     77  CB  MET d   1      16.758  -9.908 -35.164  0.00  0.00    -0.031 C 
ATOM     78  H50 MET d   1      16.035  -9.113 -34.931  0.00  0.00     0.037 H 
ATOM     79  H51 MET d   1      17.519  -9.520 -35.857  0.00  0.00     0.037 H 
BRANCH  77  80
ATOM     80  CG  MET d   1      17.431 -10.379 -33.879  0.00  0.00    -0.021 C 
ATOM     81  H52 MET d   1      18.194 -11.136 -34.113  0.00  0.00     0.049 H 
ATOM     82  H53 MET d   1      16.680 -10.813 -33.202  0.00  0.00     0.049 H 
BRANCH  80  83
ATOM     83  SD  MET d   1      18.190  -8.979 -33.114  0.00  0.00    -0.173 SA
BRANCH  83  84
ATOM     84  CE  MET d   1      19.335  -9.523 -31.881  0.00  0.00    -0.035 C 
ATOM     85  H54 MET d   1      19.806  -8.649 -31.407  0.00  0.00     0.041 H 
ATOM     86  H55 MET d   1      20.110 -10.147 -32.350  0.00  0.00     0.041 H 
ATOM     87  H56 MET d   1      18.802 -10.111 -31.119  0.00  0.00     0.041 H 
ENDBRANCH  83  84
ENDBRANCH  80  83
ENDBRANCH  77  80
ENDBRANCH  28  77
BRANCH  16  88
ATOM     88  CB  PHE d   1      19.956 -13.468 -40.035  0.00  0.00    -0.014 C 
ATOM     89  H30 PHE d   1      19.768 -12.492 -39.564  0.00  0.00     0.043 H 
ATOM     90  H31 PHE d   1      20.299 -13.317 -41.069  0.00  0.00     0.043 H 
BRANCH  88  91
ATOM     91  CG  PHE d   1      21.065 -14.154 -39.268  0.00  0.00    -0.056 A 
ATOM     92  CD1 PHE d   1      21.404 -15.478 -39.544  0.00  0.00    -0.077 A 
ATOM     93  CE1 PHE d   1      22.438 -16.095 -38.831  0.00  0.00    -0.082 A 
ATOM     94  H32 PHE d   1      20.868 -16.028 -40.309  0.00  0.00     0.084 H 
ATOM     95  CZ  PHE d   1      23.128 -15.399 -37.840  0.00  0.00    -0.083 A 
ATOM     96  H34 PHE d   1      22.704 -17.122 -39.051  0.00  0.00     0.083 H 
ATOM     97  CE2 PHE d   1      22.786 -14.072 -37.564  0.00  0.00    -0.082 A 
ATOM     98  H36 PHE d   1      23.924 -15.883 -37.287  0.00  0.00     0.083 H 
ATOM     99  CD2 PHE d   1      21.754 -13.451 -38.274  0.00  0.00    -0.077 A 
ATOM    100  H35 PHE d   1      23.322 -13.523 -36.798  0.00  0.00     0.083 H 
ATOM    101  H33 PHE d   1      21.488 -12.424 -38.054  0.00  0.00     0.084 H 
ENDBRANCH  88  91
ENDBRANCH  16  88
BRANCH  22 102
ATOM    102  CB  ILE d   1      18.980 -14.782 -35.369  0.00  0.00    -0.030 C 
ATOM    103  H39 ILE d   1      18.488 -15.131 -34.449  0.00  0.00     0.043 H 
BRANCH 102 104
ATOM    104  CG1 ILE d   1      19.902 -13.635 -34.957  0.00  0.00    -0.063 C 
ATOM    105  H40 ILE d   1      19.309 -12.858 -34.453  0.00  0.00     0.033 H 
ATOM    106  H41 ILE d   1      20.374 -13.211 -35.855  0.00  0.00     0.033 H 
BRANCH 104 107
ATOM    107  CD1 ILE d   1      20.981 -14.129 -34.013  0.00  0.00    -0.076 C 
ATOM    108  H45 ILE d   1      21.633 -13.289 -33.729  0.00  0.00     0.027 H 
ATOM    109  H46 ILE d   1      21.579 -14.904 -34.514  0.00  0.00     0.027 H 
ATOM    110  H47 ILE d   1      20.514 -14.552 -33.111  0.00  0.00     0.027 H 
ENDBRANCH 104 107
ENDBRANCH 102 104
BRANCH 102 111
ATOM    111  CG2 ILE d   1      19.739 -15.962 -35.953  0.00  0.00    -0.071 C 
ATOM    112  H42 ILE d   1      19.028 -16.754 -36.231  0.00  0.00     0.028 H 
ATOM    113  H43 ILE d   1      20.446 -16.350 -35.205  0.00  0.00     0.028 H 
ATOM    114  H44 ILE d   1      20.292 -15.636 -36.846  0.00  0.00     0.028 H 
ENDBRANCH 102 111
ENDBRANCH  22 102
TORSDOF 23
