REMARK  15 active torsions:
REMARK  status: ('A' for Active; 'I' for Inactive)
REMARK    1  A    between atoms: C2_2  and  C9_9 
REMARK    2  A    between atoms: C9_9  and  C10_10 
REMARK    3  A    between atoms: C10_10  and  C11_11 
REMARK    4  A    between atoms: C10_10  and  N33_33 
REMARK    5  A    between atoms: C11_11  and  C12_12 
REMARK    6  A    between atoms: C11_11  and  O32_32 
REMARK    7  A    between atoms: C12_12  and  N13_13 
REMARK    8  A    between atoms: N13_13  and  C14_14 
REMARK    9  A    between atoms: C18_18  and  C29_29 
REMARK   10  A    between atoms: C21_21  and  C24_24 
REMARK   11  A    between atoms: C24_24  and  C25_25 
REMARK   12  A    between atoms: C25_25  and  C26_26 
REMARK   13  A    between atoms: C25_25  and  C27_27 
REMARK   14  A    between atoms: C25_25  and  C28_28 
REMARK       I    between atoms: N33_33  and  C34_34 
REMARK   15  A    between atoms: C34_34  and  C35_35 
ROOT
ATOM      1  C14 C6A d   1      -0.765  16.259  -8.273  0.00  0.00     0.132 C 
ATOM      2  C15 C6A d   1      -0.396  17.630  -8.804  0.00  0.00     0.006 A 
ATOM      3  C16 C6A d   1       0.170  18.692  -7.921  0.00  0.00     0.077 A 
ATOM      4  O17 C6A d   1       0.356  18.357  -6.609  0.00  0.00    -0.345 OA
ATOM      5  C18 C6A d   1      -0.339  17.289  -5.991  0.00  0.00     0.051 C 
ATOM      6  C19 C6A d   1      -0.185  16.058  -6.870  0.00  0.00    -0.009 C 
ATOM      7  C20 C6A d   1      -0.587  17.956 -10.127  0.00  0.00    -0.066 A 
ATOM      8  C21 C6A d   1      -0.294  19.209 -10.628  0.00  0.00    -0.057 A 
ATOM      9  C22 C6A d   1       0.286  20.202  -9.814  0.00  0.00    -0.074 A 
ATOM     10  C23 C6A d   1       0.523  19.982  -8.436  0.00  0.00    -0.050 A 
ATOM     11  H12 C6A d   1      -1.863  16.213  -8.221  0.00  0.00     0.092 H 
ATOM     12  H13 C6A d   1       0.147  17.069  -5.029  0.00  0.00     0.084 H 
ATOM     13  H14 C6A d   1       0.886  15.823  -6.962  0.00  0.00     0.040 H 
ATOM     14  H15 C6A d   1      -0.706  15.216  -6.391  0.00  0.00     0.040 H 
ATOM     15  H16 C6A d   1      -0.981  17.203 -10.800  0.00  0.00     0.085 H 
ATOM     16  H17 C6A d   1       0.557  21.156 -10.253  0.00  0.00     0.084 H 
ATOM     17  H18 C6A d   1       0.950  20.751  -7.802  0.00  0.00     0.087 H 
ENDROOT
BRANCH   1  18
ATOM     18  N13 C6A d   1      -0.304  15.137  -9.064  0.00  0.00    -0.064 N 
ATOM     19  H10 C6A d   1      -0.473  14.301  -8.527  0.00  0.00     0.278 HD
ATOM     20  H11 C6A d   1      -0.859  15.114  -9.905  0.00  0.00     0.278 HD
BRANCH  18  21
ATOM     21  C12 C6A d   1       1.111  15.118  -9.472  0.00  0.00     0.108 C 
ATOM     22  H8  C6A d   1       1.437  16.138  -9.725  0.00  0.00     0.079 H 
ATOM     23  H9  C6A d   1       1.728  14.729  -8.649  0.00  0.00     0.079 H 
BRANCH  21  24
ATOM     24  C11 C6A d   1       1.255  14.223 -10.682  0.00  0.00     0.078 C 
ATOM     25  H7  C6A d   1       1.068  13.191 -10.349  0.00  0.00     0.088 H 
BRANCH  24  26
ATOM     26  C10 C6A d   1       2.643  14.273 -11.296  0.00  0.00     0.042 C 
ATOM     27  H6  C6A d   1       2.885  15.317 -11.543  0.00  0.00     0.077 H 
BRANCH  26  28
ATOM     28  C9  C6A d   1       2.760  13.449 -12.589  0.00  0.00    -0.020 C 
ATOM     29  H4  C6A d   1       2.499  12.399 -12.389  0.00  0.00     0.043 H 
ATOM     30  H5  C6A d   1       2.082  13.855 -13.354  0.00  0.00     0.043 H 
BRANCH  28  31
ATOM     31  C2  C6A d   1       4.211  13.542 -13.075  0.00  0.00    -0.050 A 
ATOM     32  C1  C6A d   1       4.797  14.773 -13.393  0.00  0.00    -0.039 A 
ATOM     33  C6  C6A d   1       6.148  14.768 -13.762  0.00  0.00     0.119 A 
ATOM     34  H1  C6A d   1       4.227  15.694 -13.355  0.00  0.00     0.089 H 
ATOM     35  C5  C6A d   1       6.901  13.613 -13.882  0.00  0.00    -0.009 A 
ATOM     36  F7  C6A d   1       6.764  15.901 -14.060  0.00  0.00    -0.206 F 
ATOM     37  C4  C6A d   1       6.307  12.413 -13.578  0.00  0.00     0.119 A 
ATOM     38  H3  C6A d   1       7.934  13.655 -14.208  0.00  0.00     0.092 H 
ATOM     39  C3  C6A d   1       4.971  12.371 -13.178  0.00  0.00    -0.039 A 
ATOM     40  F8  C6A d   1       7.032  11.294 -13.674  0.00  0.00    -0.206 F 
ATOM     41  H2  C6A d   1       4.514  11.416 -12.943  0.00  0.00     0.089 H 
ENDBRANCH  28  31
ENDBRANCH  26  28
BRANCH  26  42
ATOM     42  N33 C6A d   1       3.544  13.811 -10.272  0.00  0.00    -0.354 N 
ATOM     43  C34 C6A d   1       4.330  14.687  -9.647  0.00  0.00     0.214 C 
ATOM     44  O36 C6A d   1       4.235  15.901  -9.877  0.00  0.00    -0.274 OA
ATOM     45  H36 C6A d   1       3.579  12.841 -10.032  0.00  0.00     0.162 HD
BRANCH  43  46
ATOM     46  C35 C6A d   1       5.351  14.089  -8.702  0.00  0.00    -0.003 C 
ATOM     47  H37 C6A d   1       5.942  14.895  -8.243  0.00  0.00     0.040 H 
ATOM     48  H38 C6A d   1       6.019  13.417  -9.261  0.00  0.00     0.040 H 
ATOM     49  H39 C6A d   1       4.834  13.520  -7.915  0.00  0.00     0.040 H 
ENDBRANCH  43  46
ENDBRANCH  26  42
ENDBRANCH  24  26
BRANCH  24  50
ATOM     50  O32 C6A d   1       0.309  14.541 -11.692  0.00  0.00    -0.392 OA
ATOM     51  H35 C6A d   1       0.431  13.959 -12.433  0.00  0.00     0.210 HD
ENDBRANCH  24  50
ENDBRANCH  21  24
ENDBRANCH  18  21
ENDBRANCH   1  18
BRANCH   5  52
ATOM     52  C29 C6A d   1      -1.777  17.696  -5.680  0.00  0.00    -0.028 A 
ATOM     53  C30 C6A d   1      -1.837  18.960  -4.833  0.00  0.00    -0.059 A 
ATOM     54  C31 C6A d   1      -1.986  17.595  -4.166  0.00  0.00    -0.059 A 
ATOM     55  H31 C6A d   1      -2.705  19.631  -4.909  0.00  0.00     0.033 H 
ATOM     56  H32 C6A d   1      -0.926  19.555  -4.669  0.00  0.00     0.033 H 
ATOM     57  H33 C6A d   1      -1.183  17.205  -3.524  0.00  0.00     0.033 H 
ATOM     58  H34 C6A d   1      -2.961  17.282  -3.764  0.00  0.00     0.033 H 
ATOM     59  H30 C6A d   1      -2.520  17.428  -6.446  0.00  0.00     0.043 H 
ENDBRANCH   5  52
BRANCH   8  60
ATOM     60  C24 C6A d   1      -0.578  19.368 -12.128  0.00  0.00    -0.035 C 
ATOM     61  H19 C6A d   1      -0.702  18.363 -12.557  0.00  0.00     0.041 H 
ATOM     62  H20 C6A d   1       0.294  19.857 -12.587  0.00  0.00     0.041 H 
BRANCH  60  63
ATOM     63  C25 C6A d   1      -1.821  20.189 -12.486  0.00  0.00    -0.048 C 
BRANCH  63  64
ATOM     64  C26 C6A d   1      -1.761  20.523 -13.996  0.00  0.00    -0.069 C 
ATOM     65  H21 C6A d   1      -2.646  21.114 -14.276  0.00  0.00     0.028 H 
ATOM     66  H22 C6A d   1      -1.744  19.590 -14.578  0.00  0.00     0.028 H 
ATOM     67  H23 C6A d   1      -0.851  21.103 -14.207  0.00  0.00     0.028 H 
ENDBRANCH  63  64
BRANCH  63  68
ATOM     68  C27 C6A d   1      -1.891  21.507 -11.726  0.00  0.00    -0.069 C 
ATOM     69  H24 C6A d   1      -1.935  21.305 -10.646  0.00  0.00     0.028 H 
ATOM     70  H25 C6A d   1      -2.791  22.060 -12.033  0.00  0.00     0.028 H 
ATOM     71  H26 C6A d   1      -0.997  22.108 -11.951  0.00  0.00     0.028 H 
ENDBRANCH  63  68
BRANCH  63  72
ATOM     72  C28 C6A d   1      -3.059  19.354 -12.128  0.00  0.00    -0.069 C 
ATOM     73  H27 C6A d   1      -3.025  18.397 -12.669  0.00  0.00     0.028 H 
ATOM     74  H28 C6A d   1      -3.968  19.904 -12.414  0.00  0.00     0.028 H 
ATOM     75  H29 C6A d   1      -3.071  19.163 -11.045  0.00  0.00     0.028 H 
ENDBRANCH  63  72
ENDBRANCH  60  63
ENDBRANCH   8  60
TORSDOF 15
