REMARK  7 active torsions:
REMARK  status: ('A' for Active; 'I' for Inactive)
REMARK    1  A    between atoms: C03_3  and  O20_20 
REMARK    2  A    between atoms: C06_6  and  C07_7 
REMARK    3  A    between atoms: C07_7  and  C08_8 
REMARK    4  A    between atoms: C10_10  and  C16_16 
REMARK    5  A    between atoms: C11_11  and  O14_14 
REMARK    6  A    between atoms: C12_12  and  O15_15 
REMARK    7  A    between atoms: O20_20  and  C21_21 
ROOT
ATOM      1  C07 P1Y d   1       3.075   3.669  32.300  0.00  0.00     0.016 C 
ATOM      2  H4  P1Y d   1       2.111   3.739  32.825  0.00  0.00     0.051 H 
ATOM      3  H5  P1Y d   1       3.218   2.643  31.930  0.00  0.00     0.051 H 
ENDROOT
BRANCH   1   4
ATOM      4  C06 P1Y d   1       4.175   3.984  33.274  0.00  0.00    -0.050 A 
ATOM      5  C01 P1Y d   1       3.853   4.363  34.579  0.00  0.00    -0.057 A 
ATOM      6  C02 P1Y d   1       4.893   4.625  35.453  0.00  0.00     0.044 A 
ATOM      7  H1  P1Y d   1       2.820   4.449  34.897  0.00  0.00     0.086 H 
ATOM      8  C03 P1Y d   1       6.231   4.541  35.071  0.00  0.00     0.085 A 
ATOM      9 BR19 P1Y d   1       4.499   5.098  37.249  0.00  0.00    -0.048 Br
ATOM     10  C04 P1Y d   1       6.547   4.188  33.756  0.00  0.00    -0.049 A 
ATOM     11  C05 P1Y d   1       5.517   3.894  32.869  0.00  0.00    -0.074 A 
ATOM     12  H2  P1Y d   1       7.580   4.144  33.432  0.00  0.00     0.087 H 
ATOM     13  H3  P1Y d   1       5.752   3.592  31.855  0.00  0.00     0.084 H 
BRANCH   8  14
ATOM     14  O20 P1Y d   1       7.164   4.856  36.025  0.00  0.00    -0.355 OA
BRANCH  14  15
ATOM     15  C21 P1Y d   1       8.540   4.706  35.681  0.00  0.00     0.010 C 
ATOM     16  H8  P1Y d   1       9.166   4.994  36.539  0.00  0.00     0.066 H 
ATOM     17  H9  P1Y d   1       8.776   5.352  34.822  0.00  0.00     0.066 H 
ATOM     18  H10 P1Y d   1       8.740   3.657  35.417  0.00  0.00     0.066 H 
ENDBRANCH  14  15
ENDBRANCH   8  14
ENDBRANCH   1   4
BRANCH   1  19
ATOM     19  C08 P1Y d   1       3.048   4.603  31.124  0.00  0.00     0.134 A 
ATOM     20  N09 P1Y d   1       3.319   4.060  29.929  0.00  0.00    -0.223 NA
ATOM     21  C10 P1Y d   1       3.292   4.919  28.876  0.00  0.00     0.172 A 
ATOM     22  C11 P1Y d   1       2.993   6.255  28.999  0.00  0.00     0.155 A 
ATOM     23  C12 P1Y d   1       2.742   6.672  30.285  0.00  0.00     0.200 A 
ATOM     24  N13 P1Y d   1       2.756   5.881  31.380  0.00  0.00    -0.207 NA
BRANCH  21  25
ATOM     25  C16 P1Y d   1       3.579   4.302  27.565  0.00  0.00     0.232 C 
ATOM     26  O17 P1Y d   1       3.871   2.998  27.715  0.00  0.00    -0.643 OA
ATOM     27  O18 P1Y d   1       3.533   4.846  26.477  0.00  0.00    -0.643 OA
ENDBRANCH  21  25
BRANCH  22  28
ATOM     28  O14 P1Y d   1       2.985   7.130  27.958  0.00  0.00    -0.355 OA
ATOM     29  H6  P1Y d   1       3.178   6.664  27.153  0.00  0.00     0.218 HD
ENDBRANCH  22  28
BRANCH  23  30
ATOM     30  O15 P1Y d   1       2.437   7.961  30.534  0.00  0.00    -0.343 OA
ATOM     31  H7  P1Y d   1       3.077   8.327  31.133  0.00  0.00     0.219 HD
ENDBRANCH  23  30
ENDBRANCH   1  19
TORSDOF 7
