REMARK  2 active torsions:
REMARK  status: ('A' for Active; 'I' for Inactive)
REMARK    1  A    between atoms: C01_1  and  S14_14 
REMARK    2  A    between atoms: S14_14  and  C15_15 
ROOT
ATOM      1  C01 QID d   1     -11.125 -10.527  -9.837  0.00  0.00     0.065 A 
ATOM      2  C02 QID d   1     -12.351 -10.862 -10.331  0.00  0.00    -0.059 A 
ATOM      3  C03 QID d   1     -13.251  -9.845 -10.707  0.00  0.00    -0.055 A 
ATOM      4  C04 QID d   1     -12.860  -8.481 -10.552  0.00  0.00     0.052 A 
ATOM      5  C05 QID d   1     -11.586  -8.153 -10.030  0.00  0.00     0.063 A 
ATOM      6  C06 QID d   1     -10.715  -9.122  -9.655  0.00  0.00    -0.044 A 
ATOM      7  C07 QID d   1     -11.188  -6.701  -9.876  0.00  0.00     0.290 A 
ATOM      8  N08 QID d   1     -13.805  -7.429 -10.944  0.00  0.00    -0.306 N 
ATOM      9  N09 QID d   1     -12.110  -5.694 -10.269  0.00  0.00    -0.096 N 
ATOM     10  O10 QID d   1     -10.077  -6.388  -9.472  0.00  0.00    -0.265 OA
ATOM     11  C11 QID d   1     -13.428  -6.035 -10.791  0.00  0.00     0.356 A 
ATOM     12  O12 QID d   1     -14.193  -5.149 -11.101  0.00  0.00    -0.244 OA
ATOM     13  O13 QID d   1     -11.782  -4.455 -10.110  0.00  0.00    -0.073 OA
ATOM     14  H   QID d   1     -12.633 -11.910 -10.434  0.00  0.00     0.085 H 
ATOM     15  H   QID d   1     -14.232 -10.096 -11.111  0.00  0.00     0.087 H 
ATOM     16  H   QID d   1      -9.742  -8.871  -9.232  0.00  0.00     0.087 H 
ATOM     17  H   QID d   1     -14.720  -7.675 -11.321  0.00  0.00     0.171 HD
ENDROOT
BRANCH   1  18
ATOM     18  S14 QID d   1     -10.032 -11.793  -9.328  0.00  0.00     0.206 S 
ATOM     19  O16 QID d   1      -9.427 -11.446  -8.065  0.00  0.00    -0.217 OA
ATOM     20  O17 QID d   1     -10.768 -13.009  -9.071  0.00  0.00    -0.217 OA
BRANCH  18  21
ATOM     21  C15 QID d   1      -8.835 -11.970 -10.600  0.00  0.00     0.064 A 
ATOM     22  C18 QID d   1      -7.573 -11.491 -10.384  0.00  0.00    -0.062 A 
ATOM     23  C19 QID d   1      -6.587 -11.631 -11.381  0.00  0.00    -0.082 A 
ATOM     24  H   QID d   1      -7.330 -11.001  -9.441  0.00  0.00     0.085 H 
ATOM     25  C20 QID d   1      -6.909 -12.289 -12.612  0.00  0.00    -0.083 A 
ATOM     26  H   QID d   1      -5.583 -11.240 -11.216  0.00  0.00     0.083 H 
ATOM     27  C21 QID d   1      -8.209 -12.795 -12.832  0.00  0.00    -0.082 A 
ATOM     28  H   QID d   1      -6.146 -12.400 -13.383  0.00  0.00     0.083 H 
ATOM     29  C22 QID d   1      -9.170 -12.662 -11.865  0.00  0.00    -0.062 A 
ATOM     30  H   QID d   1      -8.448 -13.292 -13.772  0.00  0.00     0.083 H 
ATOM     31  H   QID d   1     -10.171 -13.062 -12.025  0.00  0.00     0.085 H 
ENDBRANCH  18  21
ENDBRANCH   1  18
TORSDOF 2
