REMARK  6 active torsions:
REMARK  status: ('A' for Active; 'I' for Inactive)
REMARK    1  A    between atoms: C08_8  and  C10_10 
REMARK    2  A    between atoms: C09_9  and  C11_11 
REMARK    3  A    between atoms: C11_11  and  C12_12 
REMARK    4  A    between atoms: C19_19  and  C23_23 
REMARK    5  A    between atoms: C20_20  and  O24_24 
REMARK    6  A    between atoms: C21_21  and  O25_25 
ROOT
ATOM      1  C01 P4Y d   1       2.200  74.947  37.996  0.00  0.00    -0.082 A 
ATOM      2  C02 P4Y d   1       2.823  76.099  37.512  0.00  0.00    -0.081 A 
ATOM      3  C03 P4Y d   1       2.831  76.404  36.148  0.00  0.00    -0.056 A 
ATOM      4  C04 P4Y d   1       2.183  75.504  35.296  0.00  0.00     0.043 A 
ATOM      5  C05 P4Y d   1       1.547  74.340  35.742  0.00  0.00    -0.001 A 
ATOM      6  C06 P4Y d   1       1.559  74.055  37.124  0.00  0.00    -0.070 A 
ATOM      7  N07 P4Y d   1       2.037  75.552  33.937  0.00  0.00    -0.354 N 
ATOM      8  C08 P4Y d   1       1.314  74.466  33.481  0.00  0.00     0.050 A 
ATOM      9  C09 P4Y d   1       0.987  73.660  34.605  0.00  0.00    -0.011 A 
ATOM     10  H   P4Y d   1       2.212  74.738  39.066  0.00  0.00     0.083 H 
ATOM     11  H   P4Y d   1       3.313  76.775  38.213  0.00  0.00     0.083 H 
ATOM     12  H   P4Y d   1       3.319  77.301  35.766  0.00  0.00     0.086 H 
ATOM     13  H   P4Y d   1       1.078  73.156  37.508  0.00  0.00     0.084 H 
ATOM     14  H   P4Y d   1       2.411  76.290  33.340  0.00  0.00     0.166 HD
ENDROOT
BRANCH   9  15
ATOM     15  C11 P4Y d   1       0.250  72.354  34.746  0.00  0.00     0.019 C 
ATOM     16  H   P4Y d   1       0.401  71.996  35.764  0.00  0.00     0.052 H 
ATOM     17  H   P4Y d   1       0.639  71.670  33.992  0.00  0.00     0.052 H 
BRANCH  15  18
ATOM     18  C12 P4Y d   1      -1.238  72.489  34.521  0.00  0.00     0.134 A 
ATOM     19  N18 P4Y d   1      -1.774  71.520  33.750  0.00  0.00    -0.223 NA
ATOM     20  C19 P4Y d   1      -3.095  71.579  33.505  0.00  0.00     0.172 A 
ATOM     21  C20 P4Y d   1      -3.901  72.576  34.021  0.00  0.00     0.155 A 
ATOM     22  C21 P4Y d   1      -3.263  73.524  34.801  0.00  0.00     0.200 A 
ATOM     23  N22 P4Y d   1      -1.938  73.510  35.080  0.00  0.00    -0.207 NA
BRANCH  20  24
ATOM     24  C23 P4Y d   1      -3.539  70.467  32.650  0.00  0.00     0.232 C 
ATOM     25  O26 P4Y d   1      -2.880  69.564  32.175  0.00  0.00    -0.643 OA
ATOM     26  O27 P4Y d   1      -4.834  70.523  32.416  0.00  0.00    -0.643 OA
ENDBRANCH  20  24
BRANCH  21  27
ATOM     27  O24 P4Y d   1      -5.229  72.657  33.794  0.00  0.00    -0.355 OA
ATOM     28  H   P4Y d   1      -5.503  71.924  33.238  0.00  0.00     0.218 HD
ENDBRANCH  21  27
BRANCH  22  29
ATOM     29  O25 P4Y d   1      -4.006  74.554  35.341  0.00  0.00    -0.343 OA
ATOM     30  H   P4Y d   1      -3.666  75.394  35.023  0.00  0.00     0.219 HD
ENDBRANCH  22  29
ENDBRANCH  15  18
ENDBRANCH   9  15
BRANCH   8  31
ATOM     31  C10 P4Y d   1       1.117  74.343  32.031  0.00  0.00    -0.009 A 
ATOM     32  C13 P4Y d   1       1.415  75.428  31.186  0.00  0.00    -0.071 A 
ATOM     33  C14 P4Y d   1       1.274  75.298  29.799  0.00  0.00    -0.082 A 
ATOM     34  H   P4Y d   1       1.756  76.371  31.612  0.00  0.00     0.084 H 
ATOM     35  C15 P4Y d   1       0.868  74.080  29.242  0.00  0.00    -0.083 A 
ATOM     36  H   P4Y d   1       1.481  76.149  29.150  0.00  0.00     0.083 H 
ATOM     37  C16 P4Y d   1       0.596  72.985  30.067  0.00  0.00    -0.082 A 
ATOM     38  H   P4Y d   1       0.764  73.985  28.161  0.00  0.00     0.083 H 
ATOM     39  C17 P4Y d   1       0.737  73.113  31.455  0.00  0.00    -0.071 A 
ATOM     40  H   P4Y d   1       0.276  72.037  29.633  0.00  0.00     0.083 H 
ATOM     41  H   P4Y d   1       0.551  72.252  32.097  0.00  0.00     0.084 H 
ENDBRANCH   8  31
TORSDOF 6
