REMARK  9 active torsions:
REMARK  status: ('A' for Active; 'I' for Inactive)
REMARK    1  A    between atoms: O1_1  and  N1_2 
REMARK       I    between atoms: N1_2  and  C1_3 
REMARK    2  A    between atoms: C1_3  and  C2_5 
REMARK    3  A    between atoms: C2_5  and  C3_6 
REMARK    4  A    between atoms: C3_6  and  C4_7 
REMARK    5  A    between atoms: C4_7  and  N2_8 
REMARK    6  A    between atoms: N2_8  and  C5_9 
REMARK    7  A    between atoms: N2_8  and  C9_13 
REMARK    8  A    between atoms: C5_9  and  C6_10 
REMARK    9  A    between atoms: C9_13  and  C13_18 
ROOT
ATOM      1  N2  QI1 d   1     -21.640  38.980  -6.395  0.00  0.00     0.096 N 
ENDROOT
BRANCH   1   2
ATOM      2  C4  QI1 d   1     -20.615  37.920  -6.495  0.00  0.00     0.115 C 
ATOM      3  H   QI1 d   1     -20.167  37.962  -7.488  0.00  0.00     0.079 H 
ATOM      4  H   QI1 d   1     -19.868  38.084  -5.718  0.00  0.00     0.079 H 
BRANCH   2   5
ATOM      5  C3  QI1 d   1     -21.234  36.525  -6.294  0.00  0.00    -0.032 C 
ATOM      6  H   QI1 d   1     -22.282  36.663  -6.026  0.00  0.00     0.036 H 
ATOM      7  H   QI1 d   1     -21.099  35.967  -7.220  0.00  0.00     0.036 H 
BRANCH   5   8
ATOM      8  C2  QI1 d   1     -20.565  35.725  -5.165  0.00  0.00     0.013 C 
ATOM      9  H   QI1 d   1     -20.379  36.400  -4.330  0.00  0.00     0.047 H 
ATOM     10  H   QI1 d   1     -21.229  34.908  -4.883  0.00  0.00     0.047 H 
BRANCH   8  11
ATOM     11  C1  QI1 d   1     -19.226  35.127  -5.610  0.00  0.00     0.240 C 
ATOM     12  N1  QI1 d   1     -19.145  33.803  -5.588  0.00  0.00    -0.237 N 
ATOM     13  H   QI1 d   1     -19.939  33.236  -5.289  0.00  0.00     0.197 HD
ATOM     14  O2  QI1 d   1     -18.294  35.848  -5.949  0.00  0.00    -0.271 OA
BRANCH  12  15
ATOM     15  O1  QI1 d   1     -17.976  33.218  -5.974  0.00  0.00    -0.287 OA
ATOM     16  H   QI1 d   1     -18.060  32.264  -5.908  0.00  0.00     0.244 HD
ENDBRANCH  12  15
ENDBRANCH   8  11
ENDBRANCH   5   8
ENDBRANCH   2   5
ENDBRANCH   1   2
BRANCH   1  17
ATOM     17  C5  QI1 d   1     -22.825  38.707  -7.243  0.00  0.00     0.137 C 
ATOM     18  H   QI1 d   1     -23.688  38.683  -6.577  0.00  0.00     0.087 H 
ATOM     19  H   QI1 d   1     -22.622  37.777  -7.774  0.00  0.00     0.087 H 
BRANCH  17  20
ATOM     20  C6  QI1 d   1     -23.123  39.771  -8.314  0.00  0.00    -0.030 A 
ATOM     21  C7  QI1 d   1     -22.712  39.560  -9.631  0.00  0.00    -0.074 A 
ATOM     22  C8  QI1 d   1     -23.014  40.502 -10.615  0.00  0.00    -0.061 A 
ATOM     23  H   QI1 d   1     -22.155  38.660  -9.891  0.00  0.00     0.084 H 
ATOM     24  C12 QI1 d   1     -23.727  41.655 -10.286  0.00  0.00     0.034 A 
ATOM     25  H   QI1 d   1     -22.692  40.337 -11.643  0.00  0.00     0.086 H 
ATOM     26  C11 QI1 d   1     -24.158  41.859  -8.974  0.00  0.00    -0.061 A 
ATOM     27 CL1  QI1 d   1     -24.084  42.821 -11.512  0.00  0.00    -0.084 Cl
ATOM     28  C10 QI1 d   1     -23.868  40.911  -7.990  0.00  0.00    -0.074 A 
ATOM     29  H   QI1 d   1     -24.720  42.757  -8.718  0.00  0.00     0.086 H 
ATOM     30  H   QI1 d   1     -24.222  41.059  -6.970  0.00  0.00     0.084 H 
ENDBRANCH  17  20
ENDBRANCH   1  17
BRANCH   1  31
ATOM     31  C9  QI1 d   1     -21.044  40.328  -6.509  0.00  0.00     0.137 C 
ATOM     32  H   QI1 d   1     -21.465  40.853  -7.366  0.00  0.00     0.087 H 
ATOM     33  H   QI1 d   1     -19.966  40.250  -6.654  0.00  0.00     0.087 H 
BRANCH  31  34
ATOM     34  C13 QI1 d   1     -21.348  41.095  -5.221  0.00  0.00    -0.030 A 
ATOM     35  C14 QI1 d   1     -22.207  42.194  -5.262  0.00  0.00    -0.074 A 
ATOM     36  C15 QI1 d   1     -22.505  42.893  -4.092  0.00  0.00    -0.061 A 
ATOM     37  H   QI1 d   1     -22.646  42.507  -6.210  0.00  0.00     0.084 H 
ATOM     38  C18 QI1 d   1     -21.956  42.488  -2.875  0.00  0.00     0.034 A 
ATOM     39  H   QI1 d   1     -23.168  43.757  -4.129  0.00  0.00     0.086 H 
ATOM     40  C17 QI1 d   1     -21.100  41.383  -2.832  0.00  0.00    -0.061 A 
ATOM     41 CL2  QI1 d   1     -22.333  43.360  -1.430  0.00  0.00    -0.084 Cl
ATOM     42  C16 QI1 d   1     -20.799  40.682  -4.003  0.00  0.00    -0.074 A 
ATOM     43  H   QI1 d   1     -20.666  41.068  -1.883  0.00  0.00     0.086 H 
ATOM     44  H   QI1 d   1     -20.138  39.816  -3.967  0.00  0.00     0.084 H 
ENDBRANCH  31  34
ENDBRANCH   1  31
TORSDOF 9
