REMARK  5 active torsions:
REMARK  status: ('A' for Active; 'I' for Inactive)
REMARK    1  A    between atoms: C2_4  and  C1_1 
REMARK       I    between atoms: C1_1  and  N2_8 
REMARK    2  A    between atoms: N1_2  and  S1_17 
REMARK    3  A    between atoms: O5_26  and  C4_6 
REMARK    4  A    between atoms: C5_9  and  O5_26 
REMARK    5  A    between atoms: S1_17  and  C11_18 
ROOT
ATOM      1  N1  QI3 d   1     -21.887  35.446  -5.776  0.00  0.00    -0.290 N 
ATOM      2  C2  QI3 d   1     -20.751  35.822  -5.004  0.00  0.00     0.106 C 
ATOM      3  C3  QI3 d   1     -21.043  35.480  -3.579  0.00  0.00    -0.011 C 
ATOM      4  C4  QI3 d   1     -22.494  35.306  -3.620  0.00  0.00     0.063 C 
ATOM      5  C17 QI3 d   1     -22.737  34.656  -4.931  0.00  0.00     0.031 C 
ATOM      6  H   QI3 d   1     -20.587  36.888  -5.163  0.00  0.00     0.089 H 
ATOM      7  H   QI3 d   1     -20.712  36.238  -2.869  0.00  0.00     0.040 H 
ATOM      8  H   QI3 d   1     -20.506  34.603  -3.219  0.00  0.00     0.040 H 
ATOM      9  H   QI3 d   1     -22.830  34.782  -2.725  0.00  0.00     0.086 H 
ATOM     10  H   QI3 d   1     -22.515  33.589  -4.948  0.00  0.00     0.069 H 
ATOM     11  H   QI3 d   1     -23.783  34.645  -5.236  0.00  0.00     0.069 H 
ENDROOT
BRANCH   1  12
ATOM     12  S1  QI3 d   1     -22.213  35.638  -7.352  0.00  0.00     0.261 S 
ATOM     13  O3  QI3 d   1     -20.924  35.664  -8.152  0.00  0.00    -0.200 OA
ATOM     14  O4  QI3 d   1     -23.103  34.522  -7.713  0.00  0.00    -0.200 OA
BRANCH  12  15
ATOM     15  C11 QI3 d   1     -23.141  37.168  -7.531  0.00  0.00     0.079 A 
ATOM     16  C12 QI3 d   1     -24.479  37.098  -7.344  0.00  0.00    -0.059 A 
ATOM     17  C13 QI3 d   1     -25.293  38.249  -7.435  0.00  0.00    -0.060 A 
ATOM     18  H   QI3 d   1     -24.938  36.135  -7.119  0.00  0.00     0.086 H 
ATOM     19  C16 QI3 d   1     -24.703  39.500  -7.719  0.00  0.00     0.034 A 
ATOM     20  H   QI3 d   1     -26.370  38.172  -7.287  0.00  0.00     0.086 H 
ATOM     21  C15 QI3 d   1     -23.347  39.592  -7.906  0.00  0.00    -0.060 A 
ATOM     22 CL2  QI3 d   1     -25.725  40.868  -7.816  0.00  0.00    -0.084 Cl
ATOM     23  C14 QI3 d   1     -22.543  38.425  -7.814  0.00  0.00    -0.059 A 
ATOM     24  H   QI3 d   1     -22.889  40.557  -8.124  0.00  0.00     0.086 H 
ATOM     25  H   QI3 d   1     -21.465  38.494  -7.961  0.00  0.00     0.086 H 
ENDBRANCH  12  15
ENDBRANCH   1  12
BRANCH   2  26
ATOM     26  C1  QI3 d   1     -19.513  35.151  -5.398  0.00  0.00     0.293 C 
ATOM     27  O1  QI3 d   1     -18.606  35.958  -5.412  0.00  0.00    -0.267 OA
ATOM     28  N2  QI3 d   1     -19.364  33.751  -5.724  0.00  0.00    -0.057 NA
ATOM     29  O2  QI3 d   1     -18.208  33.222  -6.071  0.00  0.00    -0.058 OA
ENDBRANCH   2  26
BRANCH   4  30
ATOM     30  O5  QI3 d   1     -23.144  36.515  -3.752  0.00  0.00    -0.344 OA
BRANCH  30  31
ATOM     31  C5  QI3 d   1     -22.546  37.672  -3.224  0.00  0.00     0.069 A 
ATOM     32  C6  QI3 d   1     -22.205  38.726  -4.091  0.00  0.00    -0.049 A 
ATOM     33  C7  QI3 d   1     -21.645  39.931  -3.549  0.00  0.00    -0.059 A 
ATOM     34  H   QI3 d   1     -22.365  38.628  -5.165  0.00  0.00     0.087 H 
ATOM     35  C10 QI3 d   1     -21.467  40.056  -2.145  0.00  0.00     0.034 A 
ATOM     36  H   QI3 d   1     -21.357  40.747  -4.212  0.00  0.00     0.086 H 
ATOM     37  C9  QI3 d   1     -21.825  39.009  -1.287  0.00  0.00    -0.059 A 
ATOM     38 CL1  QI3 d   1     -20.792  41.510  -1.449  0.00  0.00    -0.084 Cl
ATOM     39  C8  QI3 d   1     -22.385  37.805  -1.832  0.00  0.00    -0.049 A 
ATOM     40  H   QI3 d   1     -21.679  39.108  -0.211  0.00  0.00     0.086 H 
ATOM     41  H   QI3 d   1     -22.685  36.994  -1.168  0.00  0.00     0.087 H 
ENDBRANCH  30  31
ENDBRANCH   4  30
TORSDOF 5
