REMARK  5 active torsions:
REMARK  status: ('A' for Active; 'I' for Inactive)
REMARK    1  A    between atoms: N3_2  and  C4_3 
REMARK    2  A    between atoms: C3_29  and  C5_4 
REMARK    3  A    between atoms: C25_17  and  C26_16 
REMARK    4  A    between atoms: N5_18  and  C25_17 
REMARK    5  A    between atoms: N4_23  and  C14_24 
ROOT
ATOM      1  N3  QJ9 d   1     -15.584  -1.458  -4.953  0.00  0.00    -0.212 N 
ATOM      2  C13 QJ9 d   1     -14.690  -2.449  -4.281  0.00  0.00     0.031 C 
ATOM      3  C15 QJ9 d   1     -12.992  -1.950  -6.107  0.00  0.00    -0.043 C 
ATOM      4  C17 QJ9 d   1     -15.382  -1.150  -6.400  0.00  0.00     0.012 C 
ATOM      5  C14 QJ9 d   1     -13.212  -2.149  -4.587  0.00  0.00     0.038 C 
ATOM      6  C16 QJ9 d   1     -13.901  -0.859  -6.687  0.00  0.00    -0.048 C 
ATOM      7  H3  QJ9 d   1     -14.935  -3.459  -4.642  0.00  0.00     0.068 H 
ATOM      8  H4  QJ9 d   1     -14.850  -2.400  -3.194  0.00  0.00     0.068 H 
ATOM      9  H5  QJ9 d   1     -13.204  -2.898  -6.623  0.00  0.00     0.036 H 
ATOM     10  H6  QJ9 d   1     -11.943  -1.665  -6.279  0.00  0.00     0.036 H 
ATOM     11  H7  QJ9 d   1     -15.983  -0.269  -6.670  0.00  0.00     0.065 H 
ATOM     12  H8  QJ9 d   1     -15.705  -2.012  -7.002  0.00  0.00     0.065 H 
ATOM     13  H18 QJ9 d   1     -12.948  -1.206  -4.086  0.00  0.00     0.076 H 
ATOM     14  H19 QJ9 d   1     -13.751  -0.810  -7.776  0.00  0.00     0.035 H 
ATOM     15  H20 QJ9 d   1     -13.633   0.107  -6.236  0.00  0.00     0.035 H 
ENDROOT
BRANCH   1  16
ATOM     16  C4  QJ9 d   1     -16.603  -0.791  -4.235  0.00  0.00     0.725 A 
ATOM     17  N1  QJ9 d   1     -17.283   0.205  -4.838  0.00  0.00    -0.060 NA
ATOM     18  C3  QJ9 d   1     -18.259   0.877  -4.203  0.00  0.00     0.111 A 
ATOM     19  C2  QJ9 d   1     -18.573   0.528  -2.893  0.00  0.00    -0.034 A 
ATOM     20  C1  QJ9 d   1     -17.857  -0.504  -2.289  0.00  0.00     0.023 A 
ATOM     21  H22 QJ9 d   1     -19.357   1.047  -2.354  0.00  0.00     0.089 H 
ATOM     22  N2  QJ9 d   1     -16.900  -1.133  -2.962  0.00  0.00    -0.075 NA
ATOM     23  H21 QJ9 d   1     -18.081  -0.794  -1.269  0.00  0.00     0.115 H 
BRANCH  18  24
ATOM     24  C5  QJ9 d   1     -18.933   1.902  -4.870  0.00  0.00     0.106 A 
ATOM     25  C6  QJ9 d   1     -18.955   2.134  -6.185  0.00  0.00    -0.035 A 
ATOM     26  C8  QJ9 d   1     -19.709   3.206  -6.424  0.00  0.00     0.001 A 
ATOM     27  H1  QJ9 d   1     -18.440   1.542  -6.940  0.00  0.00     0.089 H 
ATOM     28  C7  QJ9 d   1     -20.181   3.683  -5.195  0.00  0.00     0.086 A 
ATOM     29  C9  QJ9 d   1     -20.055   3.858  -7.611  0.00  0.00    -0.070 A 
ATOM     30  C12 QJ9 d   1     -21.005   4.810  -5.152  0.00  0.00    -0.049 A 
ATOM     31  O1  QJ9 d   1     -19.687   2.855  -4.222  0.00  0.00    -0.308 OA
ATOM     32  C11 QJ9 d   1     -21.347   5.456  -6.342  0.00  0.00    -0.080 A 
ATOM     33  H25 QJ9 d   1     -21.376   5.180  -4.203  0.00  0.00     0.087 H 
ATOM     34  C10 QJ9 d   1     -20.875   4.984  -7.568  0.00  0.00    -0.082 A 
ATOM     35  H24 QJ9 d   1     -21.985   6.332  -6.313  0.00  0.00     0.083 H 
ATOM     36  H2  QJ9 d   1     -21.146   5.493  -8.486  0.00  0.00     0.083 H 
ATOM     37  H23 QJ9 d   1     -19.687   3.489  -8.562  0.00  0.00     0.084 H 
ENDBRANCH  18  24
ENDBRANCH   1  16
BRANCH   5  38
ATOM     38  N4  QJ9 d   1     -12.336  -3.216  -4.034  0.00  0.00    -0.291 N 
ATOM     39  C18 QJ9 d   1     -11.623  -3.082  -2.917  0.00  0.00     0.330 A 
ATOM     40  N5  QJ9 d   1     -10.944  -4.204  -2.695  0.00  0.00    -0.298 N 
ATOM     41  O2  QJ9 d   1     -11.597  -2.075  -2.208  0.00  0.00    -0.246 OA
ATOM     42  C20 QJ9 d   1     -11.226  -5.073  -3.666  0.00  0.00     0.066 A 
ATOM     43  C21 QJ9 d   1     -10.802  -6.377  -3.926  0.00  0.00    -0.055 A 
ATOM     44  C19 QJ9 d   1     -12.119  -4.441  -4.533  0.00  0.00     0.066 A 
ATOM     45  C22 QJ9 d   1     -11.275  -7.051  -5.052  0.00  0.00    -0.081 A 
ATOM     46  H9  QJ9 d   1     -10.106  -6.865  -3.254  0.00  0.00     0.087 H 
ATOM     47  C23 QJ9 d   1     -12.165  -6.419  -5.924  0.00  0.00    -0.081 A 
ATOM     48  H10 QJ9 d   1     -10.952  -8.066  -5.251  0.00  0.00     0.083 H 
ATOM     49  C24 QJ9 d   1     -12.588  -5.121  -5.660  0.00  0.00    -0.055 A 
ATOM     50  H17 QJ9 d   1     -12.525  -6.939  -6.804  0.00  0.00     0.083 H 
ATOM     51  H11 QJ9 d   1     -13.285  -4.634  -6.332  0.00  0.00     0.087 H 
BRANCH  40  52
ATOM     52  C25 QJ9 d   1     -10.043  -4.462  -1.550  0.00  0.00     0.001 C 
ATOM     53  H15 QJ9 d   1     -10.440  -3.950  -0.661  0.00  0.00     0.064 H 
ATOM     54  H16 QJ9 d   1     -10.006  -5.545  -1.363  0.00  0.00     0.064 H 
BRANCH  52  55
ATOM     55  C26 QJ9 d   1      -8.627  -3.957  -1.822  0.00  0.00    -0.061 C 
ATOM     56  H12 QJ9 d   1      -7.989  -4.167  -0.951  0.00  0.00     0.029 H 
ATOM     57  H13 QJ9 d   1      -8.653  -2.873  -2.005  0.00  0.00     0.029 H 
ATOM     58  H14 QJ9 d   1      -8.219  -4.468  -2.706  0.00  0.00     0.029 H 
ENDBRANCH  52  55
ENDBRANCH  40  52
ENDBRANCH   5  38
TORSDOF 5
