REMARK  6 active torsions:
REMARK  status: ('A' for Active; 'I' for Inactive)
REMARK    1  A    between atoms: C8_4  and  N10_12 
REMARK    2  A    between atoms: C12_10  and  C13_5 
REMARK       I    between atoms: N10_12  and  C12_10 
REMARK    3  A    between atoms: C11_18  and  C1_17 
REMARK    4  A    between atoms: N21_23  and  C16_22 
REMARK    5  A    between atoms: S22_24  and  N21_23 
REMARK    6  A    between atoms: S22_24  and  C25_27 
ROOT
ATOM      1  C15 QK0 d   1      24.719  13.392  21.137  0.00  0.00    -0.041 A 
ATOM      2  C17 QK0 d   1      27.031  12.805  21.440  0.00  0.00     0.152 A 
ATOM      3  C11 QK0 d   1      24.450  12.910  22.421  0.00  0.00    -0.006 A 
ATOM      4  C19 QK0 d   1      25.505  12.363  23.153  0.00  0.00     0.015 A 
ATOM      5  N18 QK0 d   1      26.738  12.332  22.666  0.00  0.00    -0.246 NA
ATOM      6 CL20 QK0 d   1      28.670  12.725  20.874  0.00  0.00    -0.060 Cl
ATOM      7  C16 QK0 d   1      26.026  13.357  20.636  0.00  0.00     0.084 A 
ATOM      8  H   QK0 d   1      23.912  13.795  20.526  0.00  0.00     0.088 H 
ATOM      9  H   QK0 d   1      25.312  11.953  24.144  0.00  0.00     0.116 H 
ENDROOT
BRANCH   3  10
ATOM     10  C1  QK0 d   1      23.144  12.911  22.924  0.00  0.00    -0.023 A 
ATOM     11  C6  QK0 d   1      22.200  13.861  22.539  0.00  0.00    -0.053 A 
ATOM     12  C5  QK0 d   1      20.898  13.794  23.043  0.00  0.00     0.038 A 
ATOM     13  H   QK0 d   1      22.477  14.655  21.846  0.00  0.00     0.087 H 
ATOM     14  C4  QK0 d   1      20.504  12.775  23.933  0.00  0.00     0.076 A 
ATOM     15  S9  QK0 d   1      19.541  14.762  22.801  0.00  0.00    -0.050 SA
ATOM     16  N7  QK0 d   1      19.214  12.850  24.329  0.00  0.00    -0.223 NA
ATOM     17  C3  QK0 d   1      21.456  11.832  24.297  0.00  0.00    -0.053 A 
ATOM     18  C8  QK0 d   1      18.513  13.873  23.825  0.00  0.00     0.174 A 
ATOM     19  C2  QK0 d   1      22.753  11.897  23.797  0.00  0.00    -0.070 A 
ATOM     20  H   QK0 d   1      21.184  11.030  24.983  0.00  0.00     0.087 H 
ATOM     21  H   QK0 d   1      23.478  11.139  24.094  0.00  0.00     0.084 H 
BRANCH  18  22
ATOM     22  N10 QK0 d   1      17.213  14.085  24.110  0.00  0.00    -0.306 N 
ATOM     23  C12 QK0 d   1      16.401  15.009  23.569  0.00  0.00     0.219 C 
ATOM     24  O14 QK0 d   1      16.724  15.847  22.724  0.00  0.00    -0.274 OA
ATOM     25  H   QK0 d   1      16.799  13.476  24.816  0.00  0.00     0.171 HD
BRANCH  23  26
ATOM     26  C13 QK0 d   1      14.960  14.973  24.096  0.00  0.00    -0.002 C 
ATOM     27  H   QK0 d   1      14.722  15.928  24.564  0.00  0.00     0.040 H 
ATOM     28  H   QK0 d   1      14.276  14.792  23.267  0.00  0.00     0.040 H 
ATOM     29  H   QK0 d   1      14.863  14.173  24.830  0.00  0.00     0.040 H 
ENDBRANCH  23  26
ENDBRANCH  18  22
ENDBRANCH   3  10
BRANCH   7  30
ATOM     30  N21 QK0 d   1      26.344  13.816  19.413  0.00  0.00    -0.277 N 
ATOM     31  H   QK0 d   1      27.231  13.507  19.016  0.00  0.00     0.179 HD
BRANCH  30  32
ATOM     32  S22 QK0 d   1      25.432  14.828  18.505  0.00  0.00     0.263 S 
ATOM     33  O23 QK0 d   1      24.103  14.205  18.175  0.00  0.00    -0.200 OA
ATOM     34  O24 QK0 d   1      26.176  15.137  17.239  0.00  0.00    -0.200 OA
BRANCH  32  35
ATOM     35  C25 QK0 d   1      25.185  16.314  19.377  0.00  0.00     0.080 A 
ATOM     36  C26 QK0 d   1      26.292  16.990  19.895  0.00  0.00    -0.057 A 
ATOM     37  C27 QK0 d   1      26.104  18.179  20.600  0.00  0.00    -0.044 A 
ATOM     38  H   QK0 d   1      27.296  16.591  19.749  0.00  0.00     0.086 H 
ATOM     39  C28 QK0 d   1      24.811  18.681  20.783  0.00  0.00     0.116 A 
ATOM     40  H   QK0 d   1      26.962  18.715  21.007  0.00  0.00     0.088 H 
ATOM     41  F31 QK0 d   1      24.635  19.829  21.466  0.00  0.00    -0.206 F 
ATOM     42  C29 QK0 d   1      23.702  18.004  20.265  0.00  0.00    -0.044 A 
ATOM     43  C30 QK0 d   1      23.890  16.814  19.557  0.00  0.00    -0.057 A 
ATOM     44  H   QK0 d   1      22.698  18.402  20.413  0.00  0.00     0.088 H 
ATOM     45  H   QK0 d   1      23.034  16.278  19.147  0.00  0.00     0.086 H 
ENDBRANCH  32  35
ENDBRANCH  30  32
ENDBRANCH   7  30
TORSDOF 6
