REMARK  4 active torsions:
REMARK  status: ('A' for Active; 'I' for Inactive)
REMARK    1  A    between atoms: C14_25  and  N3_2 
REMARK    2  A    between atoms: C6_5  and  C13_9 
REMARK    3  A    between atoms: C8_7  and  C7_6 
REMARK    4  A    between atoms: N2_32  and  C26_16 
ROOT
ATOM      1  C26 QK5 d   1      -9.939  -5.425  -1.786  0.00  0.00     0.080 C 
ATOM      2  C27 QK5 d   1      -8.751  -4.583  -1.570  0.00  0.00     0.079 C 
ATOM      3  N6  QK5 d   1      -7.828  -3.935  -1.409  0.00  0.00    -0.196 NA
ATOM      4  H11 QK5 d   1      -9.608  -6.436  -2.066  0.00  0.00     0.087 H 
ATOM      5  H12 QK5 d   1     -10.512  -5.473  -0.848  0.00  0.00     0.087 H 
ENDROOT
BRANCH   1   6
ATOM      6  N2  QK5 d   1     -10.821  -4.900  -2.856  0.00  0.00    -0.322 N 
ATOM      7  C6  QK5 d   1     -11.403  -3.695  -2.881  0.00  0.00     0.018 A 
ATOM      8  C7  QK5 d   1     -12.149  -3.599  -4.043  0.00  0.00    -0.016 A 
ATOM      9  C4  QK5 d   1     -12.007  -4.802  -4.726  0.00  0.00     0.019 A 
ATOM     10  C5  QK5 d   1     -12.504  -5.298  -5.934  0.00  0.00    -0.067 A 
ATOM     11  C3  QK5 d   1     -11.162  -5.596  -3.948  0.00  0.00     0.141 A 
ATOM     12  C1  QK5 d   1     -12.140  -6.577  -6.334  0.00  0.00    -0.065 A 
ATOM     13  H1  QK5 d   1     -13.162  -4.695  -6.548  0.00  0.00     0.085 H 
ATOM     14  C2  QK5 d   1     -11.297  -7.326  -5.514  0.00  0.00     0.004 A 
ATOM     15  H23 QK5 d   1     -12.505  -6.987  -7.269  0.00  0.00     0.085 H 
ATOM     16  N1  QK5 d   1     -10.837  -6.835  -4.369  0.00  0.00    -0.242 NA
ATOM     17  H24 QK5 d   1     -11.012  -8.327  -5.816  0.00  0.00     0.114 H 
BRANCH   7  18
ATOM     18  C13 QK5 d   1     -11.282  -2.593  -1.822  0.00  0.00    -0.037 C 
ATOM     19  H5  QK5 d   1     -11.878  -1.721  -2.130  0.00  0.00     0.035 H 
ATOM     20  H6  QK5 d   1     -10.227  -2.298  -1.719  0.00  0.00     0.035 H 
ATOM     21  H7  QK5 d   1     -11.654  -2.969  -0.857  0.00  0.00     0.035 H 
ENDBRANCH   7  18
BRANCH   8  22
ATOM     22  C8  QK5 d   1     -12.984  -2.376  -4.474  0.00  0.00    -0.010 C 
ATOM     23  C9  QK5 d   1     -14.470  -2.648  -4.195  0.00  0.00     0.019 C 
ATOM     24  N3  QK5 d   1     -15.323  -1.584  -4.788  0.00  0.00    -0.213 N 
ATOM     25  H17 QK5 d   1     -14.747  -3.618  -4.633  0.00  0.00     0.066 H 
ATOM     26  H18 QK5 d   1     -14.633  -2.677  -3.108  0.00  0.00     0.066 H 
ATOM     27  C10 QK5 d   1     -15.120  -1.198  -6.219  0.00  0.00     0.012 C 
ATOM     28  C11 QK5 d   1     -13.635  -0.904  -6.478  0.00  0.00    -0.049 C 
ATOM     29  H3  QK5 d   1     -15.713  -0.299  -6.442  0.00  0.00     0.065 H 
ATOM     30  H4  QK5 d   1     -15.447  -2.023  -6.869  0.00  0.00     0.065 H 
ATOM     31  C12 QK5 d   1     -12.747  -2.045  -5.967  0.00  0.00    -0.055 C 
ATOM     32  H19 QK5 d   1     -13.358   0.026  -5.960  0.00  0.00     0.035 H 
ATOM     33  H20 QK5 d   1     -13.476  -0.783  -7.560  0.00  0.00     0.035 H 
ATOM     34  H21 QK5 d   1     -12.957  -2.946  -6.563  0.00  0.00     0.034 H 
ATOM     35  H22 QK5 d   1     -11.694  -1.755  -6.099  0.00  0.00     0.034 H 
ATOM     36  H2  QK5 d   1     -12.669  -1.508  -3.875  0.00  0.00     0.050 H 
BRANCH  24  37
ATOM     37  C14 QK5 d   1     -16.318  -0.938  -4.028  0.00  0.00     0.725 A 
ATOM     38  N4  QK5 d   1     -17.040   0.033  -4.613  0.00  0.00    -0.062 NA
ATOM     39  C15 QK5 d   1     -18.007   0.690  -3.951  0.00  0.00     0.094 A 
ATOM     40  C18 QK5 d   1     -18.705   1.689  -4.620  0.00  0.00     0.036 A 
ATOM     41  C16 QK5 d   1     -18.269   0.359  -2.626  0.00  0.00    -0.036 A 
ATOM     42  C19 QK5 d   1     -19.569   2.604  -4.152  0.00  0.00    -0.053 A 
ATOM     43  S1  QK5 d   1     -18.525   1.928  -6.282  0.00  0.00    -0.087 SA
ATOM     44  C20 QK5 d   1     -20.078   3.456  -5.074  0.00  0.00    -0.018 A 
ATOM     45  H13 QK5 d   1     -19.843   2.658  -3.099  0.00  0.00     0.087 H 
ATOM     46  C21 QK5 d   1     -19.598   3.224  -6.383  0.00  0.00     0.016 A 
ATOM     47  C22 QK5 d   1     -20.992   4.499  -4.886  0.00  0.00    -0.072 A 
ATOM     48  C25 QK5 d   1     -20.016   4.013  -7.458  0.00  0.00    -0.066 A 
ATOM     49  C24 QK5 d   1     -20.930   5.044  -7.243  0.00  0.00    -0.082 A 
ATOM     50  H15 QK5 d   1     -19.632   3.825  -8.454  0.00  0.00     0.085 H 
ATOM     51  C23 QK5 d   1     -21.419   5.287  -5.958  0.00  0.00    -0.082 A 
ATOM     52  H10 QK5 d   1     -21.261   5.657  -8.074  0.00  0.00     0.083 H 
ATOM     53  H14 QK5 d   1     -22.131   6.088  -5.792  0.00  0.00     0.083 H 
ATOM     54  H9  QK5 d   1     -21.375   4.699  -3.892  0.00  0.00     0.084 H 
ATOM     55  C17 QK5 d   1     -17.505  -0.653  -2.042  0.00  0.00     0.023 A 
ATOM     56  H16 QK5 d   1     -19.042   0.871  -2.064  0.00  0.00     0.089 H 
ATOM     57  N5  QK5 d   1     -16.559  -1.270  -2.741  0.00  0.00    -0.075 NA
ATOM     58  H8  QK5 d   1     -17.685  -0.937  -1.012  0.00  0.00     0.115 H 
ENDBRANCH  24  37
ENDBRANCH   8  22
ENDBRANCH   1   6
TORSDOF 4
