REMARK  15 active torsions:
REMARK  status: ('A' for Active; 'I' for Inactive)
REMARK    1  A    between atoms: C1_1  and  O16_16 
REMARK    2  A    between atoms: C18_18  and  N12_12 
REMARK    3  A    between atoms: C19_19  and  C18_18 
REMARK    4  A    between atoms: C19_19  and  O20_20 
REMARK    5  A    between atoms: C21_21  and  C19_19 
REMARK    6  A    between atoms: N22_22  and  C21_21 
REMARK    7  A    between atoms: N22_22  and  C23_23 
REMARK    8  A    between atoms: S33_33  and  N22_22 
REMARK    9  A    between atoms: C23_23  and  C24_24 
REMARK   10  A    between atoms: C24_24  and  O36_36 
REMARK   11  A    between atoms: C25_25  and  S33_33 
REMARK   12  A    between atoms: C26_26  and  C32_32 
REMARK   13  A    between atoms: C30_30  and  C31_31 
REMARK   14  A    between atoms: O36_36  and  C38_38 
REMARK   15  A    between atoms: C38_38  and  C37_37 
ROOT
ATOM      1  C19 SMH d   1      29.443   1.071  13.216  0.00  0.00     0.077 C 
ATOM      2  H   SMH d   1      30.295   1.560  12.744  0.00  0.00     0.088 H 
ENDROOT
BRANCH   1   3
ATOM      3  C18 SMH d   1      28.699   2.116  14.068  0.00  0.00     0.138 C 
ATOM      4  H   SMH d   1      28.062   1.567  14.761  0.00  0.00     0.084 H 
ATOM      5  H   SMH d   1      29.458   2.737  14.544  0.00  0.00     0.084 H 
BRANCH   3   6
ATOM      6  N12 SMH d   1      27.818   3.024  13.298  0.00  0.00     0.093 N 
ATOM      7  C11 SMH d   1      28.605   3.883  12.353  0.00  0.00     0.142 C 
ATOM      8  C8  SMH d   1      27.746   4.861  11.522  0.00  0.00     0.101 C 
ATOM      9  H   SMH d   1      29.285   4.485  12.956  0.00  0.00     0.084 H 
ATOM     10  H   SMH d   1      29.103   3.215  11.650  0.00  0.00     0.084 H 
ATOM     11  O7  SMH d   1      27.035   4.135  10.532  0.00  0.00    -0.337 OA
ATOM     12  C9  SMH d   1      28.706   5.821  10.780  0.00  0.00     0.026 C 
ATOM     13  C15 SMH d   1      26.720   5.630  12.406  0.00  0.00    -0.032 C 
ATOM     14  C4  SMH d   1      26.297   4.826   9.613  0.00  0.00     0.084 A 
ATOM     15  C3  SMH d   1      25.120   4.243   9.105  0.00  0.00    -0.047 A 
ATOM     16  C5  SMH d   1      26.717   6.114   9.193  0.00  0.00     0.046 A 
ATOM     17  C2  SMH d   1      24.338   4.952   8.174  0.00  0.00    -0.048 A 
ATOM     18  H   SMH d   1      24.816   3.248   9.431  0.00  0.00     0.087 H 
ATOM     19  C1  SMH d   1      24.757   6.236   7.760  0.00  0.00     0.066 A 
ATOM     20  H   SMH d   1      23.421   4.516   7.778  0.00  0.00     0.087 H 
ATOM     21  C6  SMH d   1      25.947   6.829   8.247  0.00  0.00    -0.035 A 
ATOM     22  H   SMH d   1      26.262   7.813   7.901  0.00  0.00     0.089 H 
ATOM     23  C10 SMH d   1      27.965   6.679   9.761  0.00  0.00     0.165 C 
ATOM     24  O17 SMH d   1      28.482   7.730   9.416  0.00  0.00    -0.292 OA
ATOM     25  H   SMH d   1      29.450   5.224  10.252  0.00  0.00     0.049 H 
ATOM     26  H   SMH d   1      29.169   6.481  11.514  0.00  0.00     0.049 H 
ATOM     27  C14 SMH d   1      25.926   4.736  13.374  0.00  0.00    -0.037 C 
ATOM     28  H   SMH d   1      25.999   6.094  11.732  0.00  0.00     0.037 H 
ATOM     29  H   SMH d   1      27.285   6.338  13.012  0.00  0.00     0.037 H 
ATOM     30  C13 SMH d   1      26.865   3.776  14.162  0.00  0.00     0.114 C 
ATOM     31  H   SMH d   1      25.407   5.375  14.088  0.00  0.00     0.035 H 
ATOM     32  H   SMH d   1      25.225   4.135  12.794  0.00  0.00     0.035 H 
ATOM     33  H   SMH d   1      27.457   4.387  14.844  0.00  0.00     0.079 H 
ATOM     34  H   SMH d   1      26.233   3.043  14.664  0.00  0.00     0.079 H 
BRANCH  19  35
ATOM     35  O16 SMH d   1      23.956   6.901   6.873  0.00  0.00    -0.361 OA
ATOM     36  H   SMH d   1      23.199   6.353   6.653  0.00  0.00     0.217 HD
ENDBRANCH  19  35
ENDBRANCH   3   6
ENDBRANCH   1   3
BRANCH   1  37
ATOM     37  O20 SMH d   1      28.569   0.552  12.222  0.00  0.00    -0.392 OA
ATOM     38  H   SMH d   1      27.814   0.138  12.646  0.00  0.00     0.210 HD
ENDBRANCH   1  37
BRANCH   1  39
ATOM     39  C21 SMH d   1      29.959  -0.087  14.093  0.00  0.00     0.031 C 
ATOM     40  H   SMH d   1      29.151  -0.810  14.206  0.00  0.00     0.069 H 
ATOM     41  H   SMH d   1      30.280   0.331  15.047  0.00  0.00     0.069 H 
BRANCH  39  42
ATOM     42  N22 SMH d   1      31.124  -0.790  13.482  0.00  0.00    -0.302 N 
BRANCH  42  43
ATOM     43  C23 SMH d   1      30.800  -2.024  12.711  0.00  0.00     0.025 C 
ATOM     44  H   SMH d   1      31.675  -2.317  12.131  0.00  0.00     0.068 H 
ATOM     45  H   SMH d   1      29.954  -1.818  12.055  0.00  0.00     0.068 H 
BRANCH  43  46
ATOM     46  C24 SMH d   1      30.422  -3.184  13.667  0.00  0.00     0.035 C 
ATOM     47  H   SMH d   1      29.441  -2.991  14.102  0.00  0.00     0.076 H 
ATOM     48  H   SMH d   1      31.165  -3.256  14.462  0.00  0.00     0.076 H 
BRANCH  46  49
ATOM     49  O36 SMH d   1      30.386  -4.405  12.941  0.00  0.00    -0.390 OA
BRANCH  49  50
ATOM     50  C38 SMH d   1      30.577  -5.528  13.777  0.00  0.00     0.016 C 
ATOM     51  H   SMH d   1      29.880  -5.508  14.615  0.00  0.00     0.073 H 
ATOM     52  H   SMH d   1      31.582  -5.529  14.199  0.00  0.00     0.073 H 
BRANCH  50  53
ATOM     53  C37 SMH d   1      30.351  -6.771  12.913  0.00  0.00    -0.056 C 
ATOM     54  H   SMH d   1      29.337  -6.755  12.514  0.00  0.00     0.030 H 
ATOM     55  H   SMH d   1      31.067  -6.775  12.091  0.00  0.00     0.030 H 
ATOM     56  H   SMH d   1      30.489  -7.665  13.521  0.00  0.00     0.030 H 
ENDBRANCH  50  53
ENDBRANCH  49  50
ENDBRANCH  46  49
ENDBRANCH  43  46
ENDBRANCH  42  43
BRANCH  42  57
ATOM     57  S33 SMH d   1      32.735  -0.117  13.481  0.00  0.00     0.262 S 
ATOM     58  O34 SMH d   1      33.140   0.130  14.865  0.00  0.00    -0.200 OA
ATOM     59  O35 SMH d   1      33.595  -1.000  12.695  0.00  0.00    -0.200 OA
BRANCH  57  60
ATOM     60  C25 SMH d   1      32.574   1.519  12.652  0.00  0.00     0.091 A 
ATOM     61  C26 SMH d   1      32.651   2.696  13.442  0.00  0.00    -0.038 A 
ATOM     62  C27 SMH d   1      32.515   3.960  12.840  0.00  0.00    -0.076 A 
ATOM     63  C28 SMH d   1      32.300   4.045  11.448  0.00  0.00    -0.082 A 
ATOM     64  H   SMH d   1      32.575   4.866  13.443  0.00  0.00     0.084 H 
ATOM     65  C29 SMH d   1      32.216   2.883  10.649  0.00  0.00    -0.076 A 
ATOM     66  H   SMH d   1      32.197   5.024  10.981  0.00  0.00     0.083 H 
ATOM     67  C30 SMH d   1      32.348   1.619  11.254  0.00  0.00    -0.038 A 
ATOM     68  H   SMH d   1      32.051   2.965   9.575  0.00  0.00     0.084 H 
BRANCH  61  69
ATOM     69  C32 SMH d   1      32.865   2.634  14.949  0.00  0.00    -0.050 C 
ATOM     70  H   SMH d   1      32.046   2.080  15.409  0.00  0.00     0.033 H 
ATOM     71  H   SMH d   1      33.809   2.131  15.160  0.00  0.00     0.033 H 
ATOM     72  H   SMH d   1      32.892   3.646  15.353  0.00  0.00     0.033 H 
ENDBRANCH  61  69
BRANCH  67  73
ATOM     73  C31 SMH d   1      32.253   0.386  10.362  0.00  0.00    -0.050 C 
ATOM     74  H   SMH d   1      31.279   0.367   9.873  0.00  0.00     0.033 H 
ATOM     75  H   SMH d   1      33.039   0.423   9.607  0.00  0.00     0.033 H 
ATOM     76  H   SMH d   1      32.374  -0.511  10.970  0.00  0.00     0.033 H 
ENDBRANCH  67  73
ENDBRANCH  57  60
ENDBRANCH  42  57
ENDBRANCH  39  42
ENDBRANCH   1  39
TORSDOF 15
