REMARK  14 active torsions:
REMARK  status: ('A' for Active; 'I' for Inactive)
REMARK    1  A    between atoms: C19_19  and  C18_18 
REMARK    2  A    between atoms: C18_18  and  N39_39 
REMARK    3  A    between atoms: C20_20  and  C19_19 
REMARK    4  A    between atoms: C19_19  and  O21_21 
REMARK    5  A    between atoms: N22_22  and  C20_20 
REMARK    6  A    between atoms: N22_22  and  C23_23 
REMARK    7  A    between atoms: S36_36  and  N22_22 
REMARK    8  A    between atoms: C23_23  and  C24_24 
REMARK    9  A    between atoms: C24_24  and  O33_33 
REMARK   10  A    between atoms: C25_25  and  S36_36 
REMARK   11  A    between atoms: C26_26  and  C32_32 
REMARK   12  A    between atoms: C30_30  and  C31_31 
REMARK   13  A    between atoms: O33_33  and  C35_35 
REMARK   14  A    between atoms: C35_35  and  C34_34 
ROOT
ATOM      1  C19 SMR d   1      -9.160   1.473  18.622  0.00  0.00     0.077 C 
ATOM      2  H   SMR d   1      -9.861   0.929  17.989  0.00  0.00     0.088 H 
ENDROOT
BRANCH   1   3
ATOM      3  C18 SMR d   1      -8.608   0.589  19.772  0.00  0.00     0.138 C 
ATOM      4  H   SMR d   1      -9.433  -0.009  20.159  0.00  0.00     0.084 H 
ATOM      5  H   SMR d   1      -8.177   1.250  20.524  0.00  0.00     0.084 H 
BRANCH   3   6
ATOM      6  N39 SMR d   1      -7.536  -0.348  19.318  0.00  0.00     0.093 N 
ATOM      7  C4  SMR d   1      -6.807  -0.957  20.490  0.00  0.00     0.114 C 
ATOM      8  C3  SMR d   1      -5.649  -1.918  20.099  0.00  0.00    -0.037 C 
ATOM      9  H   SMR d   1      -6.364  -0.135  21.052  0.00  0.00     0.079 H 
ATOM     10  H   SMR d   1      -7.535  -1.545  21.049  0.00  0.00     0.079 H 
ATOM     11  C2  SMR d   1      -6.147  -2.944  19.035  0.00  0.00    -0.032 C 
ATOM     12  H   SMR d   1      -4.826  -1.338  19.681  0.00  0.00     0.035 H 
ATOM     13  H   SMR d   1      -5.312  -2.455  20.986  0.00  0.00     0.035 H 
ATOM     14  C1  SMR d   1      -6.873  -2.262  17.832  0.00  0.00     0.094 C 
ATOM     15  H   SMR d   1      -5.276  -3.470  18.645  0.00  0.00     0.037 H 
ATOM     16  H   SMR d   1      -6.859  -3.611  19.521  0.00  0.00     0.037 H 
ATOM     17  C5  SMR d   1      -8.029  -1.361  18.314  0.00  0.00     0.142 C 
ATOM     18  O6  SMR d   1      -5.952  -1.397  17.126  0.00  0.00    -0.338 OA
ATOM     19  C10 SMR d   1      -7.351  -3.345  16.809  0.00  0.00    -0.030 C 
ATOM     20  H   SMR d   1      -8.787  -1.985  18.788  0.00  0.00     0.084 H 
ATOM     21  H   SMR d   1      -8.444  -0.832  17.456  0.00  0.00     0.084 H 
ATOM     22  C7  SMR d   1      -4.834  -1.969  16.533  0.00  0.00     0.077 A 
ATOM     23  C8  SMR d   1      -4.866  -3.340  16.146  0.00  0.00    -0.011 A 
ATOM     24  C11 SMR d   1      -3.676  -1.162  16.321  0.00  0.00    -0.048 A 
ATOM     25  C9  SMR d   1      -6.124  -4.197  16.372  0.00  0.00    -0.035 C 
ATOM     26  C14 SMR d   1      -3.686  -3.868  15.558  0.00  0.00     0.020 A 
ATOM     27  H   SMR d   1      -5.908  -4.910  17.167  0.00  0.00     0.040 H 
ATOM     28  H   SMR d   1      -6.372  -4.687  15.431  0.00  0.00     0.040 H 
ATOM     29  C13 SMR d   1      -2.562  -3.065  15.366  0.00  0.00     0.062 A 
ATOM     30  C17 SMR d   1      -3.372  -5.178  15.069  0.00  0.00     0.034 A 
ATOM     31  C12 SMR d   1      -2.502  -1.693  15.732  0.00  0.00    -0.052 A 
ATOM     32  N15 SMR d   1      -1.598  -3.852  14.785  0.00  0.00    -0.278 N 
ATOM     33  H   SMR d   1      -1.610  -1.088  15.570  0.00  0.00     0.087 H 
ATOM     34  N16 SMR d   1      -2.116  -5.128  14.624  0.00  0.00    -0.186 NA
ATOM     35  H   SMR d   1      -0.661  -3.550  14.518  0.00  0.00     0.189 HD
ATOM     36  H   SMR d   1      -4.031  -6.046  15.062  0.00  0.00     0.118 H 
ATOM     37  H   SMR d   1      -3.695  -0.114  16.619  0.00  0.00     0.087 H 
ATOM     38  H   SMR d   1      -7.794  -2.861  15.938  0.00  0.00     0.037 H 
ATOM     39  H   SMR d   1      -8.100  -3.987  17.273  0.00  0.00     0.037 H 
ENDBRANCH   3   6
ENDBRANCH   1   3
BRANCH   1  40
ATOM     40  C20 SMR d   1      -9.963   2.673  19.204  0.00  0.00     0.031 C 
ATOM     41  H   SMR d   1      -9.217   3.442  19.407  0.00  0.00     0.069 H 
ATOM     42  H   SMR d   1     -10.527   2.258  20.039  0.00  0.00     0.069 H 
BRANCH  40  43
ATOM     43  N22 SMR d   1     -10.995   3.348  18.330  0.00  0.00    -0.302 N 
BRANCH  43  44
ATOM     44  C23 SMR d   1     -10.956   4.828  18.577  0.00  0.00     0.025 C 
ATOM     45  H   SMR d   1     -10.816   4.964  19.649  0.00  0.00     0.068 H 
ATOM     46  H   SMR d   1     -11.884   5.238  18.177  0.00  0.00     0.068 H 
BRANCH  44  47
ATOM     47  C24 SMR d   1      -9.797   5.580  17.876  0.00  0.00     0.035 C 
ATOM     48  H   SMR d   1      -9.255   4.881  17.239  0.00  0.00     0.076 H 
ATOM     49  H   SMR d   1      -9.135   5.997  18.635  0.00  0.00     0.076 H 
BRANCH  47  50
ATOM     50  O33 SMR d   1     -10.309   6.649  17.065  0.00  0.00    -0.390 OA
BRANCH  50  51
ATOM     51  C35 SMR d   1     -10.371   7.932  17.698  0.00  0.00     0.016 C 
ATOM     52  H   SMR d   1     -10.181   7.813  18.765  0.00  0.00     0.073 H 
ATOM     53  H   SMR d   1     -11.360   8.362  17.538  0.00  0.00     0.073 H 
BRANCH  51  54
ATOM     54  C34 SMR d   1      -9.303   8.878  17.095  0.00  0.00    -0.056 C 
ATOM     55  H   SMR d   1      -8.312   8.451  17.250  0.00  0.00     0.030 H 
ATOM     56  H   SMR d   1      -9.486   8.997  16.027  0.00  0.00     0.030 H 
ATOM     57  H   SMR d   1      -9.362   9.850  17.585  0.00  0.00     0.030 H 
ENDBRANCH  51  54
ENDBRANCH  50  51
ENDBRANCH  47  50
ENDBRANCH  44  47
ENDBRANCH  43  44
BRANCH  43  58
ATOM     58  S36 SMR d   1     -12.586   2.575  18.032  0.00  0.00     0.262 S 
ATOM     59  O37 SMR d   1     -13.255   2.502  19.348  0.00  0.00    -0.200 OA
ATOM     60  O38 SMR d   1     -13.311   3.322  16.994  0.00  0.00    -0.200 OA
BRANCH  58  61
ATOM     61  C25 SMR d   1     -12.146   0.898  17.403  0.00  0.00     0.091 A 
ATOM     62  C26 SMR d   1     -11.571   0.798  16.105  0.00  0.00    -0.038 A 
ATOM     63  C27 SMR d   1     -11.203  -0.461  15.584  0.00  0.00    -0.076 A 
ATOM     64  C28 SMR d   1     -11.404  -1.621  16.361  0.00  0.00    -0.082 A 
ATOM     65  H   SMR d   1     -10.767  -0.536  14.588  0.00  0.00     0.084 H 
ATOM     66  C29 SMR d   1     -11.977  -1.536  17.649  0.00  0.00    -0.076 A 
ATOM     67  H   SMR d   1     -11.114  -2.593  15.963  0.00  0.00     0.083 H 
ATOM     68  C30 SMR d   1     -12.345  -0.280  18.177  0.00  0.00    -0.038 A 
ATOM     69  H   SMR d   1     -12.135  -2.441  18.236  0.00  0.00     0.084 H 
BRANCH  62  70
ATOM     70  C32 SMR d   1     -11.326   2.028  15.246  0.00  0.00    -0.050 C 
ATOM     71  H   SMR d   1     -12.273   2.534  15.060  0.00  0.00     0.033 H 
ATOM     72  H   SMR d   1     -10.648   2.704  15.767  0.00  0.00     0.033 H 
ATOM     73  H   SMR d   1     -10.882   1.725  14.298  0.00  0.00     0.033 H 
ENDBRANCH  62  70
BRANCH  68  74
ATOM     74  C31 SMR d   1     -12.943  -0.265  19.572  0.00  0.00    -0.050 C 
ATOM     75  H   SMR d   1     -13.853  -0.865  19.582  0.00  0.00     0.033 H 
ATOM     76  H   SMR d   1     -12.224  -0.680  20.279  0.00  0.00     0.033 H 
ATOM     77  H   SMR d   1     -13.180   0.761  19.854  0.00  0.00     0.033 H 
ENDBRANCH  68  74
ENDBRANCH  58  61
ENDBRANCH  43  58
ENDBRANCH  40  43
ENDBRANCH   1  40
BRANCH   1  78
ATOM     78  O21 SMR d   1      -8.024   1.884  17.827  0.00  0.00    -0.392 OA
ATOM     79  H   SMR d   1      -7.424   2.400  18.371  0.00  0.00     0.210 HD
ENDBRANCH   1  78
TORSDOF 14
