REMARK  15 active torsions:
REMARK  status: ('A' for Active; 'I' for Inactive)
REMARK    1  A    between atoms: C1_1  and  C2_2 
REMARK    2  A    between atoms: N20_20  and  C1_1 
REMARK    3  A    between atoms: C2_2  and  C3_3 
REMARK    4  A    between atoms: C2_2  and  O4_4 
REMARK    5  A    between atoms: C3_3  and  N5_5 
REMARK    6  A    between atoms: N5_5  and  C6_6 
REMARK    7  A    between atoms: N5_5  and  S39_39 
REMARK    8  A    between atoms: C6_6  and  C7_7 
REMARK    9  A    between atoms: C7_7  and  O36_36 
REMARK   10  A    between atoms: S39_39  and  C8_8 
REMARK   11  A    between atoms: C9_9  and  C15_15 
REMARK   12  A    between atoms: C13_13  and  C14_14 
REMARK   13  A    between atoms: N24_24  and  C26_26 
REMARK   14  A    between atoms: O36_36  and  C38_38 
REMARK   15  A    between atoms: C38_38  and  C37_37 
ROOT
ATOM      1  C1  SM9 d   1      28.144   2.607  13.955  0.00  0.00     0.108 C 
ATOM      2  H1  SM9 d   1      28.977   3.108  14.471  0.00  0.00     0.080 H 
ATOM      3  H2  SM9 d   1      27.461   2.170  14.699  0.00  0.00     0.080 H 
ENDROOT
BRANCH   1   4
ATOM      4  C2  SM9 d   1      28.729   1.458  13.118  0.00  0.00     0.075 C 
ATOM      5  H3  SM9 d   1      29.536   1.841  12.476  0.00  0.00     0.088 H 
BRANCH   4   6
ATOM      6  C3  SM9 d   1      29.296   0.401  14.089  0.00  0.00     0.031 C 
ATOM      7  H4  SM9 d   1      28.473  -0.266  14.387  0.00  0.00     0.069 H 
ATOM      8  H5  SM9 d   1      29.683   0.924  14.976  0.00  0.00     0.069 H 
BRANCH   6   9
ATOM      9  N5  SM9 d   1      30.394  -0.439  13.530  0.00  0.00    -0.302 N 
BRANCH   9  10
ATOM     10  C6  SM9 d   1      29.961  -1.774  13.041  0.00  0.00     0.025 C 
ATOM     11  H7  SM9 d   1      30.712  -2.152  12.332  0.00  0.00     0.068 H 
ATOM     12  H8  SM9 d   1      28.994  -1.666  12.528  0.00  0.00     0.068 H 
BRANCH  10  13
ATOM     13  C7  SM9 d   1      29.803  -2.793  14.184  0.00  0.00     0.035 C 
ATOM     14  H9  SM9 d   1      28.794  -2.714  14.616  0.00  0.00     0.076 H 
ATOM     15  H10 SM9 d   1      30.553  -2.596  14.964  0.00  0.00     0.076 H 
BRANCH  13  16
ATOM     16  O36 SM9 d   1      29.995  -4.090  13.654  0.00  0.00    -0.390 OA
BRANCH  16  17
ATOM     17  C38 SM9 d   1      29.772  -5.098  14.627  0.00  0.00     0.016 C 
ATOM     18  H43 SM9 d   1      28.800  -4.938  15.116  0.00  0.00     0.073 H 
ATOM     19  H44 SM9 d   1      30.571  -5.072  15.383  0.00  0.00     0.073 H 
BRANCH  17  20
ATOM     20  C37 SM9 d   1      29.778  -6.456  13.904  0.00  0.00    -0.056 C 
ATOM     21  H40 SM9 d   1      29.607  -7.261  14.634  0.00  0.00     0.030 H 
ATOM     22  H41 SM9 d   1      30.751  -6.606  13.414  0.00  0.00     0.030 H 
ATOM     23  H42 SM9 d   1      28.980  -6.472  13.147  0.00  0.00     0.030 H 
ENDBRANCH  17  20
ENDBRANCH  16  17
ENDBRANCH  13  16
ENDBRANCH  10  13
ENDBRANCH   9  10
BRANCH   9  24
ATOM     24  S39 SM9 d   1      32.067   0.113  13.446  0.00  0.00     0.262 S 
ATOM     25  O40 SM9 d   1      32.440   0.579  14.788  0.00  0.00    -0.200 OA
ATOM     26  O41 SM9 d   1      32.889  -0.952  12.853  0.00  0.00    -0.200 OA
BRANCH  24  27
ATOM     27  C8  SM9 d   1      31.891   1.520  12.286  0.00  0.00     0.091 A 
ATOM     28  C9  SM9 d   1      31.980   2.862  12.753  0.00  0.00    -0.038 A 
ATOM     29  C10 SM9 d   1      31.831   3.934  11.843  0.00  0.00    -0.076 A 
ATOM     30  C11 SM9 d   1      31.572   3.674  10.479  0.00  0.00    -0.082 A 
ATOM     31  H11 SM9 d   1      31.916   4.957  12.193  0.00  0.00     0.084 H 
ATOM     32  C12 SM9 d   1      31.481   2.347  10.010  0.00  0.00    -0.076 A 
ATOM     33  H12 SM9 d   1      31.442   4.500   9.788  0.00  0.00     0.083 H 
ATOM     34  C13 SM9 d   1      31.635   1.269  10.909  0.00  0.00    -0.038 A 
ATOM     35  H13 SM9 d   1      31.293   2.155   8.960  0.00  0.00     0.084 H 
BRANCH  28  36
ATOM     36  C15 SM9 d   1      32.238   3.218  14.213  0.00  0.00    -0.050 C 
ATOM     37  H17 SM9 d   1      32.333   2.295  14.804  0.00  0.00     0.033 H 
ATOM     38  H18 SM9 d   1      31.399   3.816  14.598  0.00  0.00     0.033 H 
ATOM     39  H19 SM9 d   1      33.168   3.800  14.290  0.00  0.00     0.033 H 
ENDBRANCH  28  36
BRANCH  34  40
ATOM     40  C14 SM9 d   1      31.514  -0.136  10.333  0.00  0.00    -0.050 C 
ATOM     41  H14 SM9 d   1      31.654  -0.875  11.136  0.00  0.00     0.033 H 
ATOM     42  H15 SM9 d   1      32.284  -0.283   9.561  0.00  0.00     0.033 H 
ATOM     43  H16 SM9 d   1      30.517  -0.265   9.886  0.00  0.00     0.033 H 
ENDBRANCH  34  40
ENDBRANCH  24  27
ENDBRANCH   9  24
ENDBRANCH   6   9
ENDBRANCH   4   6
BRANCH   4  44
ATOM     44  O4  SM9 d   1      27.716   0.885  12.306  0.00  0.00    -0.392 OA
ATOM     45  H6  SM9 d   1      27.014   0.561  12.858  0.00  0.00     0.210 HD
ENDBRANCH   4  44
ENDBRANCH   1   4
BRANCH   1  46
ATOM     46  N20 SM9 d   1      27.392   3.638  13.194  0.00  0.00    -0.068 N 
ATOM     47  C19 SM9 d   1      26.668   4.548  14.126  0.00  0.00     0.084 C 
ATOM     48  C18 SM9 d   1      25.836   5.619  13.396  0.00  0.00    -0.042 C 
ATOM     49  H24 SM9 d   1      25.993   3.945  14.751  0.00  0.00     0.076 H 
ATOM     50  H25 SM9 d   1      27.406   5.053  14.766  0.00  0.00     0.076 H 
ATOM     51  C17 SM9 d   1      26.749   6.420  12.443  0.00  0.00    -0.053 C 
ATOM     52  H22 SM9 d   1      25.039   5.131  12.816  0.00  0.00     0.035 H 
ATOM     53  H23 SM9 d   1      25.388   6.301  14.134  0.00  0.00     0.035 H 
ATOM     54  C16 SM9 d   1      27.510   5.511  11.442  0.00  0.00     0.001 C 
ATOM     55  H20 SM9 d   1      26.129   7.129  11.874  0.00  0.00     0.034 H 
ATOM     56  H21 SM9 d   1      27.484   6.976  13.044  0.00  0.00     0.034 H 
ATOM     57  C21 SM9 d   1      28.215   4.344  12.166  0.00  0.00     0.092 C 
ATOM     58  C22 SM9 d   1      28.528   6.355  10.662  0.00  0.00    -0.040 C 
ATOM     59  C25 SM9 d   1      26.582   4.983  10.343  0.00  0.00     0.005 C 
ATOM     60  H27 SM9 d   1      29.110   4.745  12.664  0.00  0.00     0.077 H 
ATOM     61  H28 SM9 d   1      28.517   3.607  11.408  0.00  0.00     0.077 H 
ATOM     62  C23 SM9 d   1      27.782   6.847   9.408  0.00  0.00    -0.003 C 
ATOM     63  H29 SM9 d   1      29.396   5.743  10.377  0.00  0.00     0.036 H 
ATOM     64  H30 SM9 d   1      28.864   7.209  11.269  0.00  0.00     0.036 H 
ATOM     65  N24 SM9 d   1      26.595   5.990   9.266  0.00  0.00    -0.364 N 
ATOM     66  H31 SM9 d   1      28.426   6.754   8.521  0.00  0.00     0.064 H 
ATOM     67  H32 SM9 d   1      27.480   7.897   9.533  0.00  0.00     0.064 H 
ATOM     68  H33 SM9 d   1      25.562   4.858  10.735  0.00  0.00     0.065 H 
ATOM     69  H34 SM9 d   1      26.951   4.018   9.965  0.00  0.00     0.065 H 
ATOM     70  H26 SM9 d   1      26.681   3.144  12.677  0.00  0.00     0.280 HD
BRANCH  65  71
ATOM     71  C26 SM9 d   1      25.519   6.300   8.482  0.00  0.00     0.139 A 
ATOM     72  C27 SM9 d   1      24.400   5.462   8.223  0.00  0.00     0.038 A 
ATOM     73  C28 SM9 d   1      23.366   5.949   7.385  0.00  0.00     0.072 A 
ATOM     74  C32 SM9 d   1      24.281   4.162   8.771  0.00  0.00    -0.067 A 
ATOM     75  N29 SM9 d   1      23.464   7.179   6.856  0.00  0.00    -0.241 NA
ATOM     76  C35 SM9 d   1      22.234   5.150   7.096  0.00  0.00    -0.054 A 
ATOM     77  C30 SM9 d   1      24.546   7.922   7.138  0.00  0.00     0.089 A 
ATOM     78  N31 SM9 d   1      25.562   7.526   7.923  0.00  0.00    -0.224 NA
ATOM     79  H35 SM9 d   1      24.604   8.912   6.701  0.00  0.00     0.146 H 
ATOM     80  C34 SM9 d   1      22.121   3.853   7.646  0.00  0.00    -0.081 A 
ATOM     81  H39 SM9 d   1      21.452   5.534   6.451  0.00  0.00     0.087 H 
ATOM     82  C33 SM9 d   1      23.146   3.361   8.488  0.00  0.00    -0.082 A 
ATOM     83  H38 SM9 d   1      21.255   3.240   7.424  0.00  0.00     0.083 H 
ATOM     84  H37 SM9 d   1      23.063   2.369   8.918  0.00  0.00     0.083 H 
ATOM     85  H36 SM9 d   1      25.065   3.776   9.413  0.00  0.00     0.085 H 
ENDBRANCH  65  71
ENDBRANCH   1  46
TORSDOF 15
