REMARK  2 active torsions:
REMARK  status: ('A' for Active; 'I' for Inactive)
REMARK    1  A    between atoms: N1_1  and  C1_17 
REMARK    2  A    between atoms: C1_17  and  O3_18 
ROOT
ATOM      1  N1  QKV d   1      -2.201 -19.683 -37.206  0.00  0.00    -0.392 N 
ATOM      2  C4  QKV d   1      -7.032 -21.478 -37.942  0.00  0.00     0.081 A 
ATOM      3  C5  QKV d   1      -4.607 -19.513 -37.310  0.00  0.00     0.002 C 
ATOM      4  C6  QKV d   1      -3.408 -21.735 -37.513  0.00  0.00     0.002 C 
ATOM      5  C8  QKV d   1      -2.367 -20.801 -38.132  0.00  0.00    -0.003 C 
ATOM      6  C10 QKV d   1      -6.496 -21.095 -35.516  0.00  0.00     0.049 C 
ATOM      7  C13 QKV d   1      -7.939 -21.669 -38.983  0.00  0.00    -0.049 A 
ATOM      8  C15 QKV d   1      -9.307 -21.683 -38.715  0.00  0.00    -0.064 A 
ATOM      9 BR1  QKV d   1     -11.621 -21.533 -37.046  0.00  0.00    -0.051 Br
ATOM     10  C14 QKV d   1      -9.765 -21.510 -37.408  0.00  0.00     0.011 A 
ATOM     11  C3  QKV d   1      -7.488 -21.306 -36.640  0.00  0.00     0.000 A 
ATOM     12  C11 QKV d   1      -8.855 -21.319 -36.369  0.00  0.00    -0.055 A 
ATOM     13  O1  QKV d   1      -5.684 -21.463 -38.205  0.00  0.00    -0.314 OA
ATOM     14  C2  QKV d   1      -4.737 -21.038 -37.221  0.00  0.00     0.173 C 
ATOM     15  O2  QKV d   1      -5.158 -21.435 -35.907  0.00  0.00    -0.350 OA
ATOM     16  C9  QKV d   1      -3.345 -18.965 -36.649  0.00  0.00    -0.003 C 
ATOM     17  H   QKV d   1      -5.462 -19.082 -36.788  0.00  0.00     0.043 H 
ATOM     18  H   QKV d   1      -4.561 -19.251 -38.367  0.00  0.00     0.043 H 
ATOM     19  H   QKV d   1      -3.008 -22.097 -36.566  0.00  0.00     0.043 H 
ATOM     20  H   QKV d   1      -3.603 -22.535 -38.227  0.00  0.00     0.043 H 
ATOM     21  H   QKV d   1      -1.422 -21.321 -38.286  0.00  0.00     0.064 H 
ATOM     22  H   QKV d   1      -2.694 -20.449 -39.110  0.00  0.00     0.064 H 
ATOM     23  H   QKV d   1      -6.782 -21.739 -34.685  0.00  0.00     0.082 H 
ATOM     24  H   QKV d   1      -6.513 -20.040 -35.241  0.00  0.00     0.082 H 
ATOM     25  H   QKV d   1      -7.580 -21.807 -40.003  0.00  0.00     0.087 H 
ATOM     26  H   QKV d   1     -10.020 -21.829 -39.527  0.00  0.00     0.085 H 
ATOM     27  H   QKV d   1      -9.211 -21.180 -35.348  0.00  0.00     0.086 H 
ATOM     28  H   QKV d   1      -3.251 -17.896 -36.841  0.00  0.00     0.064 H 
ATOM     29  H   QKV d   1      -3.391 -19.107 -35.569  0.00  0.00     0.064 H 
ENDROOT
BRANCH   1  30
ATOM     30  C1  QKV d   1      -0.859 -19.264 -36.827  0.00  0.00     0.072 C 
ATOM     31  H   QKV d   1      -0.764 -18.186 -36.961  0.00  0.00     0.106 H 
ATOM     32  H   QKV d   1      -0.128 -19.775 -37.454  0.00  0.00     0.106 H 
BRANCH  30  33
ATOM     33  O3  QKV d   1      -0.624 -19.597 -35.453  0.00  0.00    -0.382 OA
ATOM     34  H   QKV d   1       0.261 -19.320 -35.205  0.00  0.00     0.211 HD
ENDBRANCH  30  33
ENDBRANCH   1  30
TORSDOF 2
