REMARK  2 active torsions:
REMARK  status: ('A' for Active; 'I' for Inactive)
REMARK    1  A    between atoms: C3_5  and  O7_6 
REMARK    2  A    between atoms: C3_5  and  C6_11 
ROOT
ATOM      1  C1  CIT d   1      57.590 -16.066 -10.823  0.00  0.00     0.293 C 
ATOM      2  O1  CIT d   1      56.444 -16.403 -11.047  0.00  0.00    -0.263 OA
ATOM      3  O2  CIT d   1      58.673 -17.067 -11.039  0.00  0.00    -0.150 OA
ATOM      4  C2  CIT d   1      57.765 -14.641 -10.296  0.00  0.00     0.057 C 
ATOM      5  C3  CIT d   1      57.397 -14.577  -8.793  0.00  0.00     0.163 C 
ATOM      6  C4  CIT d   1      58.605 -14.983  -7.920  0.00  0.00     0.057 C 
ATOM      7  C5  CIT d   1      59.893 -14.386  -8.482  0.00  0.00     0.293 C 
ATOM      8  O3  CIT d   1      60.507 -13.529  -7.790  0.00  0.00    -0.263 OA
ATOM      9  O4  CIT d   1      60.345 -14.765  -9.866  0.00  0.00    -0.150 OA
ATOM     10  H   CIT d   1      57.109 -13.972 -10.853  0.00  0.00     0.053 H 
ATOM     11  H   CIT d   1      58.805 -14.339 -10.422  0.00  0.00     0.053 H 
ATOM     12  H   CIT d   1      58.690 -16.070  -7.915  0.00  0.00     0.053 H 
ATOM     13  H   CIT d   1      58.453 -14.609  -6.907  0.00  0.00     0.053 H 
ATOM     14  H   CIT d   1      60.716 -13.225 -14.267  0.00  0.00     0.087 H 
ATOM     15  H   CIT d   1      62.604 -11.678 -14.677  0.00  0.00     0.083 H 
ATOM     16  H   CIT d   1      64.766 -12.049 -13.534  0.00  0.00     0.083 H 
ATOM     17  H   CIT d   1      65.044 -13.942 -11.969  0.00  0.00     0.085 H 
ATOM     18  H   CIT d   1      64.707 -17.494  -8.826  0.00  0.00     0.052 H 
ATOM     19  H   CIT d   1      65.170 -18.303 -10.273  0.00  0.00     0.052 H 
ATOM     20  H   CIT d   1      63.173 -18.592 -10.887  0.00  0.00     0.081 H 
ATOM     21  H   CIT d   1      62.146 -17.275  -8.248  0.00  0.00     0.109 H 
ATOM     22  H   CIT d   1      60.740 -21.140  -9.333  0.00  0.00     0.052 H 
ATOM     23  H   CIT d   1      62.048 -20.814 -10.486  0.00  0.00     0.052 H 
ATOM     24  H   CIT d   1      59.475 -19.505 -10.252  0.00  0.00     0.099 H 
ATOM     25  H   CIT d   1      59.447 -17.120  -8.093  0.00  0.00     0.082 H 
ATOM     26  H   CIT d   1      58.799 -17.699  -8.648  0.00  0.00     0.082 H 
ATOM     27  C1  EFE d   1      61.830 -14.448 -12.898  0.00  0.00     0.120 A 
ATOM     28  N1  EFE d   1      62.464 -16.570 -10.852  0.00  0.00    -0.273 N 
ATOM     29  O1  EFE d   1      60.756 -15.243 -12.690  0.00  0.00    -0.191 OA
ATOM     30  S1  EFE d   1      64.945 -15.910 -10.659  0.00  0.00    -0.108 SA
ATOM     31  C2  EFE d   1      61.671 -13.383 -13.765  0.00  0.00    -0.047 A 
ATOM     32  N2  EFE d   1      60.864 -17.910  -9.881  0.00  0.00     0.117 N 
ATOM     33  S2  EFE d   1      62.367 -19.621  -8.423  0.00  0.00    -0.129 SA
ATOM     34  C3  EFE d   1      62.724 -12.519 -13.994  0.00  0.00    -0.080 A 
ATOM     35  C4  EFE d   1      63.932 -12.727 -13.351  0.00  0.00    -0.082 A 
ATOM     36  C5  EFE d   1      64.090 -13.793 -12.475  0.00  0.00    -0.068 A 
ATOM     37  C6  EFE d   1      63.042 -14.668 -12.240  0.00  0.00     0.035 A 
ATOM     38  C12 EFE d   1      63.320 -15.726 -11.311  0.00  0.00     0.101 C 
ATOM     39  C13 EFE d   1      64.537 -17.496  -9.903  0.00  0.00     0.006 C 
ATOM     40  C14 EFE d   1      63.065 -17.711 -10.254  0.00  0.00     0.081 C 
ATOM     41  C15 EFE d   1      62.093 -17.952  -9.101  0.00  0.00     0.201 C 
ATOM     42  C16 EFE d   1      61.387 -20.365  -9.745  0.00  0.00     0.014 C 
ATOM     43  C17 EFE d   1      60.527 -19.266 -10.410  0.00  0.00     0.208 C 
ATOM     44  C18 EFE d   1      59.731 -17.378  -9.113  0.00  0.00     0.140 C 
ATOM     45  C19 EFE d   1      60.985 -19.190 -11.804  0.00  0.00     0.324 C 
ATOM     46  O20 EFE d   1      61.502 -20.227 -12.463  0.00  0.00    -0.186 OA
ATOM     47  O21 EFE d   1      60.863 -17.876 -12.342  0.00  0.00    -0.186 OA
ATOM     48 FE3  EFE d   1      60.555 -16.371 -11.125  0.00  0.00     0.000 Fe
ENDROOT
BRANCH   5  49
ATOM     49  O7  CIT d   1      56.309 -15.507  -8.665  0.00  0.00    -0.378 OA
ATOM     50  H   CIT d   1      56.604 -16.381  -8.930  0.00  0.00     0.211 HD
ENDBRANCH   5  49
BRANCH   5  51
ATOM     51  C6  CIT d   1      56.909 -13.254  -8.167  0.00  0.00     0.210 C 
ATOM     52  O5  CIT d   1      57.498 -12.813  -7.115  0.00  0.00    -0.646 OA
ATOM     53  O6  CIT d   1      55.901 -12.660  -8.664  0.00  0.00    -0.646 OA
ENDBRANCH   5  51
TORSDOF 2
