REMARK  28 active torsions:
REMARK  status: ('A' for Active; 'I' for Inactive)
REMARK    1  A    between atoms: C1_1  and  O1_8 
REMARK    2  A    between atoms: C2_2  and  N_7 
REMARK    3  A    between atoms: C3_3  and  O3_9 
REMARK    4  A    between atoms: C4_4  and  O4_10 
REMARK    5  A    between atoms: C5_5  and  C6_6 
REMARK    6  A    between atoms: C6_6  and  O6_12 
REMARK    7  A    between atoms: N_7  and  S1_13 
REMARK    8  A    between atoms: O4_10  and  C1_21 
REMARK    9  A    between atoms: O6_12  and  S2_17 
REMARK   10  A    between atoms: C2_22  and  O2_27 
REMARK   11  A    between atoms: C3_23  and  O3_28 
REMARK   12  A    between atoms: C4_24  and  O4_29 
REMARK   13  A    between atoms: C5_25  and  C6_26 
REMARK   14  A    between atoms: O2_27  and  S_33 
REMARK   15  A    between atoms: O4_29  and  C1_37 
REMARK   16  A    between atoms: C2_38  and  N_43 
REMARK   17  A    between atoms: C3_39  and  O3_44 
REMARK   18  A    between atoms: C4_40  and  O4_45 
REMARK   19  A    between atoms: C5_41  and  C6_42 
REMARK   20  A    between atoms: C6_42  and  O6_47 
REMARK   21  A    between atoms: N_43  and  S1_48 
REMARK   22  A    between atoms: O4_45  and  C1_56 
REMARK   23  A    between atoms: O6_47  and  S2_52 
REMARK   24  A    between atoms: C2_57  and  O2_62 
REMARK   25  A    between atoms: C3_58  and  O3_63 
REMARK   26  A    between atoms: C4_59  and  O4_64 
REMARK   27  A    between atoms: C5_60  and  C6_61 
REMARK   28  A    between atoms: O2_62  and  S_68 
ROOT
ATOM      1  O4  IDS d   1      25.961 -42.302  33.783  0.00  0.00    -0.348 OA
ENDROOT
BRANCH   1   2
ATOM      2  C4  IDS d   1      25.522 -43.578  33.308  0.00  0.00     0.103 C 
ATOM      3  C3  IDS d   1      26.321 -44.701  33.976  0.00  0.00     0.094 C 
ATOM      4  C2  IDS d   1      25.977 -44.793  35.464  0.00  0.00     0.134 C 
ATOM      5  H   SGN d   1      27.384 -44.481  33.879  0.00  0.00     0.091 H 
ATOM      6  C1  IDS d   1      24.461 -44.878  35.663  0.00  0.00     0.161 C 
ATOM      7  H   SGN d   1      26.448 -45.689  35.868  0.00  0.00     0.097 H 
ATOM      8  O5  IDS d   1      23.808 -43.776  35.012  0.00  0.00    -0.340 OA
ATOM      9  H   SGN d   1      24.276 -44.836  36.736  0.00  0.00     0.133 H 
ATOM     10  C5  IDS d   1      24.033 -43.777  33.594  0.00  0.00     0.152 C 
ATOM     11  H   SGN d   1      23.725 -44.728  33.160  0.00  0.00     0.104 H 
ATOM     12  H   SGN d   1      25.686 -43.610  32.231  0.00  0.00     0.092 H 
BRANCH   3  13
ATOM     13  O3  IDS d   1      26.030 -45.945  33.332  0.00  0.00    -0.390 OA
ATOM     14  H   SGN d   1      25.091 -46.132  33.408  0.00  0.00     0.210 HD
ENDBRANCH   3  13
BRANCH   4  15
ATOM     15  O2  IDS d   1      26.454 -43.624  36.140  0.00  0.00    -0.244 OA
BRANCH  15  16
ATOM     16  S   IDS d   1      27.002 -43.927  37.427  0.00  0.00     0.252 S 
ATOM     17  O1S IDS d   1      28.351 -44.560  37.252  0.00  0.00    -0.572 OA
ATOM     18  O2S IDS d   1      26.099 -44.852  38.187  0.00  0.00    -0.572 OA
ATOM     19  O3S IDS d   1      27.136 -42.653  38.208  0.00  0.00    -0.572 OA
ENDBRANCH  15  16
ENDBRANCH   4  15
BRANCH   6  20
ATOM     20  O4  SGN d   1      23.938 -46.076  35.175  0.00  0.00    -0.348 OA
BRANCH  20  21
ATOM     21  C4  SGN d   1      22.648 -46.440  35.677  0.00  0.00     0.095 C 
ATOM     22  C3  SGN d   1      21.753 -46.905  34.527  0.00  0.00     0.087 C 
ATOM     23  C2  SGN d   1      20.424 -47.390  35.110  0.00  0.00     0.096 C 
ATOM     24  H   SGN d   1      22.238 -47.711  33.976  0.00  0.00     0.090 H 
ATOM     25  C1  SGN d   1      20.644 -48.456  36.185  0.00  0.00     0.151 C 
ATOM     26  H   SGN d   1      19.930 -46.539  35.580  0.00  0.00     0.085 H 
ATOM     27  O5  SGN d   1      21.480 -47.908  37.217  0.00  0.00    -0.349 OA
ATOM     28  H   SGN d   1      19.682 -48.751  36.604  0.00  0.00     0.132 H 
ATOM     29  C5  SGN d   1      22.782 -47.549  36.723  0.00  0.00     0.091 C 
ATOM     30  H   SGN d   1      23.256 -48.421  36.273  0.00  0.00     0.090 H 
ATOM     31  H   SGN d   1      22.194 -45.569  36.149  0.00  0.00     0.091 H 
BRANCH  22  32
ATOM     32  O3  SGN d   1      21.509 -45.806  33.644  0.00  0.00    -0.391 OA
ATOM     33  H   SGN d   1      22.344 -45.487  33.294  0.00  0.00     0.210 HD
ENDBRANCH  22  32
BRANCH  23  34
ATOM     34  N   SGN d   1      19.565 -47.915  34.039  0.00  0.00    -0.289 N 
ATOM     35  H   SGN d   1      19.898 -48.383  33.196  0.00  0.00     0.175 HD
BRANCH  34  36
ATOM     36  S1  SGN d   1      18.000 -47.638  34.401  0.00  0.00     0.205 S 
ATOM     37  O1S SGN d   1      17.793 -46.166  34.609  0.00  0.00    -0.578 OA
ATOM     38  O2S SGN d   1      17.141 -48.106  33.263  0.00  0.00    -0.578 OA
ATOM     39  O3S SGN d   1      17.634 -48.379  35.653  0.00  0.00    -0.578 OA
ENDBRANCH  34  36
ENDBRANCH  23  34
BRANCH  25  40
ATOM     40  O1  SGN d   1      21.259 -49.618  35.622  0.00  0.00    -0.369 OA
ATOM     41  H   SGN d   1      21.386 -50.276  36.309  0.00  0.00     0.212 HD
ENDBRANCH  25  40
BRANCH  29  42
ATOM     42  C6  SGN d   1      23.621 -47.025  37.888  0.00  0.00     0.067 C 
ATOM     43  H   SGN d   1      23.132 -46.150  38.316  0.00  0.00     0.080 H 
ATOM     44  H   SGN d   1      24.613 -46.758  37.523  0.00  0.00     0.080 H 
BRANCH  42  45
ATOM     45  O6  SGN d   1      23.746 -48.032  38.893  0.00  0.00    -0.254 OA
BRANCH  45  46
ATOM     46  S2  SGN d   1      24.325 -47.697  40.156  0.00  0.00     0.251 S 
ATOM     47  O4S SGN d   1      25.174 -46.469  40.006  0.00  0.00    -0.572 OA
ATOM     48  O5S SGN d   1      23.241 -47.424  41.157  0.00  0.00    -0.572 OA
ATOM     49  O6S SGN d   1      25.172 -48.843  40.626  0.00  0.00    -0.572 OA
ENDBRANCH  45  46
ENDBRANCH  42  45
ENDBRANCH  29  42
ENDBRANCH  20  21
ENDBRANCH   6  20
BRANCH  10  50
ATOM     50  C6  IDS d   1      23.216 -42.638  32.979  0.00  0.00     0.206 C 
ATOM     51  O61 IDS d   1      22.706 -41.806  33.752  0.00  0.00    -0.646 OA
ATOM     52  O62 IDS d   1      23.100 -42.613  31.731  0.00  0.00    -0.646 OA
ENDBRANCH  10  50
ENDBRANCH   1   2
BRANCH   1  53
ATOM     53  C1  SGN d   1      26.938 -41.664  33.037  0.00  0.00     0.155 C 
ATOM     54  C2  SGN d   1      27.687 -40.630  33.881  0.00  0.00     0.097 C 
ATOM     55  C3  SGN d   1      26.748 -39.510  34.334  0.00  0.00     0.087 C 
ATOM     56  H   SGN d   1      28.468 -40.196  33.257  0.00  0.00     0.085 H 
ATOM     57  C4  SGN d   1      26.065 -38.906  33.106  0.00  0.00     0.095 C 
ATOM     58  H   SGN d   1      25.995 -39.907  35.015  0.00  0.00     0.090 H 
ATOM     59  C5  SGN d   1      25.371 -39.995  32.283  0.00  0.00     0.091 C 
ATOM     60  H   SGN d   1      26.821 -38.436  32.477  0.00  0.00     0.091 H 
ATOM     61  O5  SGN d   1      26.322 -41.008  31.915  0.00  0.00    -0.349 OA
ATOM     62  H   SGN d   1      24.570 -40.436  32.877  0.00  0.00     0.090 H 
ATOM     63  H   SGN d   1      27.654 -42.410  32.692  0.00  0.00     0.132 H 
BRANCH  54  64
ATOM     64  N   SGN d   1      28.317 -41.264  35.049  0.00  0.00    -0.289 N 
ATOM     65  H   SGN d   1      27.879 -41.353  35.966  0.00  0.00     0.175 HD
BRANCH  64  66
ATOM     66  S1  SGN d   1      29.810 -41.806  34.680  0.00  0.00     0.205 S 
ATOM     67  O1S SGN d   1      30.678 -40.654  34.269  0.00  0.00    -0.578 OA
ATOM     68  O2S SGN d   1      30.409 -42.461  35.890  0.00  0.00    -0.578 OA
ATOM     69  O3S SGN d   1      29.720 -42.806  33.565  0.00  0.00    -0.578 OA
ENDBRANCH  64  66
ENDBRANCH  54  64
BRANCH  55  70
ATOM     70  O3  SGN d   1      27.510 -38.500  35.001  0.00  0.00    -0.391 OA
ATOM     71  H   SGN d   1      26.926 -37.789  35.276  0.00  0.00     0.210 HD
ENDBRANCH  55  70
BRANCH  57  72
ATOM     72  O4  SGN d   1      25.117 -37.918  33.522  0.00  0.00    -0.348 OA
BRANCH  72  73
ATOM     73  C1  IDS d   1      25.178 -36.652  32.922  0.00  0.00     0.161 C 
ATOM     74  C2  IDS d   1      24.014 -35.764  33.376  0.00  0.00     0.134 C 
ATOM     75  C3  IDS d   1      24.112 -35.486  34.877  0.00  0.00     0.094 C 
ATOM     76  H   SGN d   1      23.077 -36.279  33.165  0.00  0.00     0.097 H 
ATOM     77  C4  IDS d   1      25.495 -34.921  35.210  0.00  0.00     0.097 C 
ATOM     78  H   SGN d   1      23.360 -34.750  35.160  0.00  0.00     0.091 H 
ATOM     79  C5  IDS d   1      26.601 -35.827  34.660  0.00  0.00     0.152 C 
ATOM     80  H   SGN d   1      25.598 -34.879  36.294  0.00  0.00     0.091 H 
ATOM     81  O5  IDS d   1      26.435 -36.033  33.247  0.00  0.00    -0.340 OA
ATOM     82  H   SGN d   1      26.540 -36.786  35.175  0.00  0.00     0.104 H 
ATOM     83  H   SGN d   1      25.097 -36.773  31.842  0.00  0.00     0.133 H 
BRANCH  74  84
ATOM     84  O2  IDS d   1      24.067 -34.518  32.672  0.00  0.00    -0.244 OA
BRANCH  84  85
ATOM     85  S   IDS d   1      22.791 -34.148  32.138  0.00  0.00     0.252 S 
ATOM     86  O1S IDS d   1      22.991 -33.182  31.008  0.00  0.00    -0.572 OA
ATOM     87  O2S IDS d   1      21.953 -33.501  33.200  0.00  0.00    -0.572 OA
ATOM     88  O3S IDS d   1      22.084 -35.366  31.625  0.00  0.00    -0.572 OA
ENDBRANCH  84  85
ENDBRANCH  74  84
BRANCH  75  89
ATOM     89  O3  IDS d   1      23.868 -36.691  35.610  0.00  0.00    -0.390 OA
ATOM     90  H   SGN d   1      24.534 -37.344  35.381  0.00  0.00     0.210 HD
ENDBRANCH  75  89
BRANCH  77  91
ATOM     91  O4  IDS d   1      25.626 -33.599  34.678  0.00  0.00    -0.390 OA
ATOM     92  H   SGN d   1      26.480 -33.238  34.927  0.00  0.00     0.210 HD
ENDBRANCH  77  91
BRANCH  79  93
ATOM     93  C6  IDS d   1      27.970 -35.181  34.901  0.00  0.00     0.206 C 
ATOM     94  O61 IDS d   1      28.784 -35.154  33.950  0.00  0.00    -0.646 OA
ATOM     95  O62 IDS d   1      28.221 -34.736  36.039  0.00  0.00    -0.646 OA
ENDBRANCH  79  93
ENDBRANCH  72  73
ENDBRANCH  57  72
BRANCH  59  96
ATOM     96  C6  SGN d   1      24.813 -39.372  31.000  0.00  0.00     0.067 C 
ATOM     97  H   SGN d   1      24.128 -38.566  31.264  0.00  0.00     0.080 H 
ATOM     98  H   SGN d   1      24.291 -40.140  30.429  0.00  0.00     0.080 H 
BRANCH  96  99
ATOM     99  O6  SGN d   1      25.876 -38.839  30.204  0.00  0.00    -0.254 OA
BRANCH  99 100
ATOM    100  S2  SGN d   1      25.592 -38.107  29.009  0.00  0.00     0.251 S 
ATOM    101  O4S SGN d   1      24.537 -37.079  29.296  0.00  0.00    -0.572 OA
ATOM    102  O5S SGN d   1      26.836 -37.421  28.530  0.00  0.00    -0.572 OA
ATOM    103  O6S SGN d   1      25.102 -39.043  27.944  0.00  0.00    -0.572 OA
ENDBRANCH  99 100
ENDBRANCH  96  99
ENDBRANCH  59  96
ENDBRANCH   1  53
TORSDOF 28
