REMARK WARNING: 32 MAX_TORS EXCEEDED!!!
REMARK  33 active torsions:
REMARK  status: ('A' for Active; 'I' for Inactive)
REMARK    1  A    between atoms: CA_2  and  N_1 
REMARK    2  A    between atoms: C_3  and  CA_2 
REMARK    3  A    between atoms: CA_2  and  CB_5 
REMARK       I    between atoms: N_6  and  C_3 
REMARK    4  A    between atoms: CA_7  and  N_6 
REMARK    5  A    between atoms: CA_13  and  CB_16 
REMARK    6  A    between atoms: CB_16  and  OG_17 
REMARK    7  A    between atoms: CA_19  and  CB_22 
REMARK    8  A    between atoms: CB_22  and  CG_23 
REMARK    9  A    between atoms: CG_23  and  CD_24 
REMARK   10  A    between atoms: CD_24  and  NE_25 
REMARK       I    between atoms: NE_25  and  CZ_26 
REMARK       I    between atoms: CZ_26  and  NH1_27 
REMARK       I    between atoms: CZ_26  and  NH2_28 
REMARK   11  A    between atoms: CA_30  and  CB_33 
REMARK   12  A    between atoms: CB_33  and  CG_34 
REMARK   13  A    between atoms: CZ_39  and  OH_40 
REMARK   14  A    between atoms: CA_42  and  CB_45 
REMARK   15  A    between atoms: CB_45  and  CG_46 
REMARK   16  A    between atoms: CG_46  and  CD_47 
REMARK   17  A    between atoms: CA_51  and  CB_54 
REMARK   18  A    between atoms: CB_54  and  CG1_55 
REMARK   19  A    between atoms: CB_54  and  CG2_56 
REMARK   20  A    between atoms: CA_58  and  CB_61 
REMARK   21  A    between atoms: CB_61  and  CG_62 
REMARK   22  A    between atoms: CA_72  and  CB_75 
REMARK   23  A    between atoms: CB_75  and  CG_76 
REMARK   24  A    between atoms: CG_76  and  CD_77 
REMARK   25  A    between atoms: CD_77  and  NE_78 
REMARK       I    between atoms: NE_78  and  CZ_79 
REMARK       I    between atoms: CZ_79  and  NH1_80 
REMARK       I    between atoms: CZ_79  and  NH2_81 
REMARK   26  A    between atoms: CA_87  and  CB_90 
REMARK   27  A    between atoms: CB_90  and  CG_91 
REMARK   28  A    between atoms: CG_91  and  CD_92 
REMARK   29  A    between atoms: CD_92  and  NE_93 
REMARK       I    between atoms: NE_93  and  CZ_94 
REMARK       I    between atoms: CZ_94  and  NH1_95 
REMARK   30  A    between atoms: CA_102  and  CB_105 
REMARK   31  A    between atoms: CB_105  and  OG_106 
REMARK   32  A    between atoms: CA_108  and  CB_111 
REMARK   33  A    between atoms: CA_113  and  C_114 
ROOT
ATOM      1  N   ALA d   1     -39.291  19.233   5.024  0.00  0.00    -0.346 N 
ATOM      2  CA  ALA d   1     -40.406  18.426   5.530  0.00  0.00     0.086 C 
ATOM      3  C   ALA d   1     -40.719  17.147   4.718  0.00  0.00     0.240 C 
ATOM      4  O   ALA d   1     -40.833  16.076   5.300  0.00  0.00    -0.271 OA
ATOM      5  H99 ALA d   1     -39.422  20.221   4.939  0.00  0.00     0.163 HD
ATOM      6 0H10 ALA d   1     -40.110  18.086   6.533  0.00  0.00     0.086 H 
ATOM      7  CA  CYS d   1     -49.382  22.495   1.525  0.00  0.00     0.097 C 
ATOM      8  C   CYS d   1     -50.228  23.618   0.898  0.00  0.00     0.242 C 
ATOM      9  O   CYS d   1     -51.330  23.367   0.387  0.00  0.00    -0.271 OA
ATOM     10  CB  CYS d   1     -47.990  23.001   1.918  0.00  0.00     0.004 C 
ATOM     11  SG  CYS d   1     -47.240  22.100   3.280  0.00  0.00    -0.162 SA
ATOM     12  N   CYS d   1     -40.004  21.805  -2.504  0.00  0.00    -0.345 N 
ATOM     13  CA  CYS d   1     -40.602  21.320  -1.275  0.00  0.00     0.097 C 
ATOM     14  C   CYS d   1     -40.356  19.854  -0.939  0.00  0.00     0.241 C 
ATOM     15  O   CYS d   1     -40.537  19.470   0.223  0.00  0.00    -0.271 OA
ATOM     16  CB  CYS d   1     -42.083  21.645  -1.331  0.00  0.00     0.004 C 
ATOM     17  SG  CYS d   1     -42.888  20.498  -2.462  0.00  0.00    -0.162 SA
ATOM     18  N   CYS d   1     -40.827  17.245   3.389  0.00  0.00    -0.344 N 
ATOM     19  CA  CYS d   1     -41.182  16.073   2.564  0.00  0.00     0.104 C 
ATOM     20  CB  CYS d   1     -42.380  16.379   1.672  0.00  0.00     0.005 C 
ATOM     21  SG  CYS d   1     -43.752  17.083   2.574  0.00  0.00    -0.162 SA
ATOM     22  H9  CYS d   1     -49.889  22.215   2.460  0.00  0.00     0.088 H 
ATOM     23  H10 CYS d   1     -48.076  24.058   2.209  0.00  0.00     0.052 H 
ATOM     24  H11 CYS d   1     -47.331  22.914   1.042  0.00  0.00     0.052 H 
ATOM     25  H58 CYS d   1     -40.594  22.147  -3.235  0.00  0.00     0.163 HD
ATOM     26  H59 CYS d   1     -40.160  21.901  -0.452  0.00  0.00     0.088 H 
ATOM     27  H60 CYS d   1     -42.222  22.676  -1.689  0.00  0.00     0.052 H 
ATOM     28  H61 CYS d   1     -42.522  21.543  -0.327  0.00  0.00     0.052 H 
ATOM     29 4H10 CYS d   1     -40.665  18.127   2.946  0.00  0.00     0.163 HD
ATOM     30 5H10 CYS d   1     -41.485  15.279   3.262  0.00  0.00     0.090 H 
ATOM     31 6H10 CYS d   1     -42.714  15.444   1.198  0.00  0.00     0.052 H 
ATOM     32 7H10 CYS d   1     -42.067  17.092   0.895  0.00  0.00     0.052 H 
ATOM     33 8H10 CYS d   1     -44.445  18.192  -1.177  0.00  0.00     0.085 H 
ATOM     34 9H10 CYS d   1     -45.263  18.840   2.995  0.00  0.00     0.085 H 
ATOM     35 0H11 CYS d   1     -45.200  22.169   0.271  0.00  0.00     0.085 H 
ATOM     36 1H11 CYS d   1     -45.272  20.213  -2.730  0.00  0.00     0.056 H 
ATOM     37 2H11 CYS d   1     -44.862  21.835  -2.076  0.00  0.00     0.056 H 
ATOM     38 3H11 CYS d   1     -45.704  16.504   1.341  0.00  0.00     0.056 H 
ATOM     39 4H11 CYS d   1     -44.224  16.464   0.325  0.00  0.00     0.056 H 
ATOM     40 5H11 CYS d   1     -45.237  20.992   3.859  0.00  0.00     0.056 H 
ATOM     41 6H11 CYS d   1     -44.948  22.428   2.818  0.00  0.00     0.056 H 
ATOM     42  N   SER d   1     -49.723  24.850   0.976  0.00  0.00    -0.344 N 
ATOM     43  CA  SER d   1     -50.338  26.012   0.327  0.00  0.00     0.109 C 
ATOM     44  C   SER d   1     -49.253  26.796  -0.425  0.00  0.00     0.243 C 
ATOM     45  O   SER d   1     -49.516  27.837  -1.056  0.00  0.00    -0.271 OA
ATOM     46  N   SER d   1     -35.952  19.603   5.192  0.00  0.00    -0.344 N 
ATOM     47  CA  SER d   1     -37.081  19.723   4.244  0.00  0.00     0.109 C 
ATOM     48  C   SER d   1     -38.117  18.722   4.673  0.00  0.00     0.243 C 
ATOM     49  O   SER d   1     -37.861  17.514   4.658  0.00  0.00    -0.271 OA
ATOM     50  H12 SER d   1     -48.884  24.988   1.503  0.00  0.00     0.163 HD
ATOM     51  H13 SER d   1     -51.088  25.660  -0.396  0.00  0.00     0.090 H 
ATOM     52  H94 SER d   1     -36.181  19.771   6.151  0.00  0.00     0.163 HD
ATOM     53  H95 SER d   1     -37.494  20.739   4.322  0.00  0.00     0.090 H 
ATOM     54  N   ARG d   1     -48.041  26.249  -0.407  0.00  0.00    -0.346 N 
ATOM     55  CA  ARG d   1     -46.882  27.095  -0.357  0.00  0.00     0.089 C 
ATOM     56  C   ARG d   1     -46.200  27.587  -1.637  0.00  0.00     0.241 C 
ATOM     57  O   ARG d   1     -46.462  27.137  -2.770  0.00  0.00    -0.271 OA
ATOM     58  N   ARG d   1     -39.985  19.006  -1.919  0.00  0.00    -0.346 N 
ATOM     59  CA  ARG d   1     -39.536  17.634  -1.618  0.00  0.00     0.089 C 
ATOM     60  C   ARG d   1     -38.030  17.368  -1.812  0.00  0.00     0.240 C 
ATOM     61  O   ARG d   1     -37.631  16.209  -2.022  0.00  0.00    -0.271 OA
ATOM     62  N   ARG d   1     -33.805  17.510  -0.552  0.00  0.00    -0.346 N 
ATOM     63  CA  ARG d   1     -33.037  17.219   0.682  0.00  0.00     0.089 C 
ATOM     64  C   ARG d   1     -33.132  18.375   1.656  0.00  0.00     0.240 C 
ATOM     65  O   ARG d   1     -32.840  19.489   1.296  0.00  0.00    -0.271 OA
ATOM     66  H17 ARG d   1     -47.938  25.255  -0.428  0.00  0.00     0.163 HD
ATOM     67  H18 ARG d   1     -47.264  28.023   0.093  0.00  0.00     0.087 H 
ATOM     68  H62 ARG d   1     -40.015  19.314  -2.870  0.00  0.00     0.163 HD
ATOM     69  H63 ARG d   1     -39.747  17.481  -0.549  0.00  0.00     0.087 H 
ATOM     70  H78 ARG d   1     -33.346  17.418  -1.436  0.00  0.00     0.163 HD
ATOM     71  H79 ARG d   1     -33.500  16.344   1.161  0.00  0.00     0.087 H 
ATOM     72  N   TYR d   1     -45.356  28.580  -1.380  0.00  0.00    -0.346 N 
ATOM     73  CA  TYR d   1     -44.478  29.235  -2.327  0.00  0.00     0.093 C 
ATOM     74  C   TYR d   1     -43.092  28.697  -2.010  0.00  0.00     0.241 C 
ATOM     75  O   TYR d   1     -42.074  29.348  -2.257  0.00  0.00    -0.271 OA
ATOM     76  H30 TYR d   1     -45.324  28.909  -0.436  0.00  0.00     0.163 HD
ATOM     77  H31 TYR d   1     -44.769  29.020  -3.366  0.00  0.00     0.088 H 
ATOM     78  N   GLU d   1     -43.077  27.498  -1.435  0.00  0.00    -0.346 N 
ATOM     79  CA  GLU d   1     -41.858  26.891  -0.950  0.00  0.00     0.090 C 
ATOM     80  C   GLU d   1     -41.058  26.351  -2.138  0.00  0.00     0.241 C 
ATOM     81  O   GLU d   1     -41.577  25.617  -2.994  0.00  0.00    -0.271 OA
ATOM     82  H39 GLU d   1     -43.938  27.000  -1.335  0.00  0.00     0.163 HD
ATOM     83  H40 GLU d   1     -41.259  27.660  -0.440  0.00  0.00     0.087 H 
ATOM     84  N   VAL d   1     -39.783  26.718  -2.129  0.00  0.00    -0.346 N 
ATOM     85  CA  VAL d   1     -38.816  26.212  -3.072  0.00  0.00     0.092 C 
ATOM     86  C   VAL d   1     -38.575  24.713  -2.857  0.00  0.00     0.241 C 
ATOM     87  O   VAL d   1     -38.297  24.276  -1.708  0.00  0.00    -0.271 OA
ATOM     88  H45 VAL d   1     -39.479  27.374  -1.438  0.00  0.00     0.163 HD
ATOM     89  H46 VAL d   1     -39.220  26.349  -4.086  0.00  0.00     0.088 H 
ATOM     90  N   ASP d   1     -38.646  23.930  -3.947  0.00  0.00    -0.345 N 
ATOM     91  CA  ASP d   1     -38.198  22.524  -3.979  0.00  0.00     0.098 C 
ATOM     92  C   ASP d   1     -38.690  21.804  -2.677  0.00  0.00     0.241 C 
ATOM     93  O   ASP d   1     -37.909  21.281  -1.856  0.00  0.00    -0.271 OA
ATOM     94  H54 ASP d   1     -39.024  24.323  -4.785  0.00  0.00     0.163 HD
ATOM     95  H55 ASP d   1     -38.649  22.026  -4.850  0.00  0.00     0.088 H 
ATOM     96  N   GLY d   1     -37.221  18.424  -1.747  0.00  0.00    -0.351 N 
ATOM     97  CA  GLY d   1     -35.740  18.298  -1.832  0.00  0.00     0.069 C 
ATOM     98  C   GLY d   1     -35.098  17.894  -0.531  0.00  0.00     0.236 C 
ATOM     99  O   GLY d   1     -35.761  17.955   0.498  0.00  0.00    -0.272 OA
ATOM    100  N   GLY d   1     -33.600  18.167   2.879  0.00  0.00    -0.351 N 
ATOM    101  CA  GLY d   1     -34.131  19.362   3.559  0.00  0.00     0.069 C 
ATOM    102  C   GLY d   1     -34.669  19.302   4.955  0.00  0.00     0.236 C 
ATOM    103  O   GLY d   1     -33.934  18.919   5.857  0.00  0.00    -0.272 OA
ATOM    104  H75 GLY d   1     -37.622  19.333  -1.637  0.00  0.00     0.163 HD
ATOM    105  H76 GLY d   1     -35.325  19.269  -2.139  0.00  0.00     0.078 H 
ATOM    106  H77 GLY d   1     -35.498  17.539  -2.591  0.00  0.00     0.078 H 
ATOM    107  H91 GLY d   1     -33.593  17.264   3.309  0.00  0.00     0.163 HD
ATOM    108  H92 GLY d   1     -34.950  19.738   2.928  0.00  0.00     0.078 H 
ATOM    109  H93 GLY d   1     -33.313  20.097   3.575  0.00  0.00     0.078 H 
ATOM    110  C1  ZBR d   1     -44.811  20.230  -0.593  0.00  0.00    -0.048 A 
ATOM    111  C2  ZBR d   1     -44.678  18.863  -0.358  0.00  0.00    -0.069 A 
ATOM    112  C3  ZBR d   1     -44.845  18.358   0.932  0.00  0.00    -0.048 A 
ATOM    113  C4  ZBR d   1     -45.137  19.232   1.992  0.00  0.00    -0.069 A 
ATOM    114  C5  ZBR d   1     -45.266  20.601   1.761  0.00  0.00    -0.048 A 
ATOM    115  C6  ZBR d   1     -45.102  21.106   0.459  0.00  0.00    -0.069 A 
ATOM    116  C7  ZBR d   1     -44.621  20.763  -2.034  0.00  0.00     0.001 C 
ATOM    117  C8  ZBR d   1     -44.732  16.982   1.151  0.00  0.00     0.001 C 
ATOM    118  C9  ZBR d   1     -45.566  21.528   2.956  0.00  0.00     0.001 C 
ENDROOT
BRANCH  55 119
ATOM    119  CB  ARG d   1     -45.873  26.543   0.655  0.00  0.00    -0.036 C 
ATOM    120  H19 ARG d   1     -44.859  26.649   0.241  0.00  0.00     0.036 H 
ATOM    121  H20 ARG d   1     -46.089  25.479   0.829  0.00  0.00     0.036 H 
BRANCH 119 122
ATOM    122  CG  ARG d   1     -45.943  27.287   1.990  0.00  0.00    -0.048 C 
ATOM    123  H21 ARG d   1     -46.671  28.107   1.899  0.00  0.00     0.035 H 
ATOM    124  H22 ARG d   1     -44.950  27.702   2.215  0.00  0.00     0.035 H 
BRANCH 122 125
ATOM    125  CD  ARG d   1     -46.367  26.381   3.143  0.00  0.00     0.009 C 
ATOM    126  H23 ARG d   1     -47.323  25.900   2.888  0.00  0.00     0.064 H 
ATOM    127  H24 ARG d   1     -46.494  26.990   4.050  0.00  0.00     0.064 H 
BRANCH 125 128
ATOM    128  NE  ARG d   1     -45.366  25.346   3.400  0.00  0.00    -0.227 N 
ATOM    129  CZ  ARG d   1     -44.938  24.978   4.608  0.00  0.00     0.665 C 
ATOM    130  NH1 ARG d   1     -45.406  25.569   5.701  0.00  0.00    -0.235 N 
ATOM    131  NH2 ARG d   1     -44.012  24.030   4.727  0.00  0.00    -0.235 N 
ATOM    132  H26 ARG d   1     -45.068  25.277   6.629  0.00  0.00     0.174 HD
ATOM    133  H27 ARG d   1     -46.107  26.320   5.621  0.00  0.00     0.174 HD
ATOM    134  H28 ARG d   1     -43.641  23.564   3.887  0.00  0.00     0.174 HD
ATOM    135  H29 ARG d   1     -43.666  23.762   5.660  0.00  0.00     0.174 HD
ATOM    136  H25 ARG d   1     -44.960  24.864   2.585  0.00  0.00     0.177 HD
ENDBRANCH 125 128
ENDBRANCH 122 125
ENDBRANCH 119 122
ENDBRANCH  55 119
BRANCH  43 137
ATOM    137  CB  SER d   1     -51.044  26.909   1.370  0.00  0.00     0.044 C 
ATOM    138  H14 SER d   1     -51.806  26.311   1.890  0.00  0.00     0.077 H 
ATOM    139  H15 SER d   1     -51.529  27.744   0.844  0.00  0.00     0.077 H 
BRANCH 137 140
ATOM    140  OG  SER d   1     -50.144  27.441   2.338  0.00  0.00    -0.398 OA
ATOM    141  H16 SER d   1     -50.626  27.982   2.953  0.00  0.00     0.209 HD
ENDBRANCH 137 140
ENDBRANCH  43 137
BRANCH  73 142
ATOM    142  CB  TYR d   1     -44.497  30.747  -2.057  0.00  0.00    -0.014 C 
ATOM    143  H32 TYR d   1     -43.849  31.237  -2.798  0.00  0.00     0.043 H 
ATOM    144  H33 TYR d   1     -44.097  30.921  -1.047  0.00  0.00     0.043 H 
BRANCH 142 145
ATOM    145  CG  TYR d   1     -45.869  31.378  -2.138  0.00  0.00    -0.056 A 
ATOM    146  CD1 TYR d   1     -46.265  32.074  -3.279  0.00  0.00    -0.074 A 
ATOM    147  CE1 TYR d   1     -47.512  32.642  -3.379  0.00  0.00    -0.051 A 
ATOM    148  H34 TYR d   1     -45.572  32.169  -4.107  0.00  0.00     0.084 H 
ATOM    149  CZ  TYR d   1     -48.400  32.532  -2.327  0.00  0.00     0.065 A 
ATOM    150  H36 TYR d   1     -47.797  33.174  -4.279  0.00  0.00     0.087 H 
ATOM    151  CE2 TYR d   1     -48.052  31.844  -1.176  0.00  0.00    -0.051 A 
ATOM    152  CD2 TYR d   1     -46.778  31.272  -1.080  0.00  0.00    -0.074 A 
ATOM    153  H37 TYR d   1     -48.758  31.750  -0.359  0.00  0.00     0.087 H 
ATOM    154  H35 TYR d   1     -46.493  30.742  -0.178  0.00  0.00     0.084 H 
BRANCH 149 155
ATOM    155  OH  TYR d   1     -49.643  33.114  -2.442  0.00  0.00    -0.361 OA
ATOM    156  H38 TYR d   1     -49.714  33.541  -3.288  0.00  0.00     0.217 HD
ENDBRANCH 149 155
ENDBRANCH 142 145
ENDBRANCH  73 142
BRANCH   7 157
ATOM    157  N   CYS d   1     -49.315  21.256   0.709  0.00  0.00    -0.345 N 
ATOM    158  C   ALA d   1     -48.963  21.222  -0.582  0.00  0.00     0.248 C 
ATOM    159  O   ALA d   1     -48.441  22.175  -1.176  0.00  0.00    -0.271 OA
ATOM    160  H8  CYS d   1     -49.548  20.391   1.153  0.00  0.00     0.163 HD
BRANCH 158 161
ATOM    161  CA  ALA d   1     -49.204  19.891  -1.308  0.00  0.00     0.172 C 
ATOM    162  H4  ALA d   1     -48.362  19.726  -1.997  0.00  0.00     0.098 H 
BRANCH 161 163
ATOM    163  N   ALA d   1     -49.243  18.748  -0.350  0.00  0.00    -0.067 N 
ATOM    164  H1  ALA d   1     -49.402  17.891  -0.856  0.00  0.00     0.275 HD
ATOM    165  H2  ALA d   1     -49.989  18.890   0.313  0.00  0.00     0.275 HD
ATOM    166  H3  ALA d   1     -48.364  18.690   0.140  0.00  0.00     0.275 HD
ENDBRANCH 161 163
BRANCH 161 167
ATOM    167  CB  ALA d   1     -50.499  19.947  -2.144  0.00  0.00    -0.042 C 
ATOM    168  H5  ALA d   1     -50.448  20.796  -2.842  0.00  0.00     0.030 H 
ATOM    169  H6  ALA d   1     -51.362  20.074  -1.474  0.00  0.00     0.030 H 
ATOM    170  H7  ALA d   1     -50.610  19.011  -2.712  0.00  0.00     0.030 H 
ENDBRANCH 161 167
ENDBRANCH 158 161
ENDBRANCH   7 157
BRANCH  79 171
ATOM    171  CB  GLU d   1     -42.166  25.771   0.055  0.00  0.00    -0.029 C 
ATOM    172  H41 GLU d   1     -42.871  25.077  -0.425  0.00  0.00     0.037 H 
ATOM    173  H42 GLU d   1     -42.645  26.232   0.931  0.00  0.00     0.037 H 
BRANCH 171 174
ATOM    174  CG  GLU d   1     -40.945  24.928   0.569  0.00  0.00     0.018 C 
ATOM    175  H43 GLU d   1     -40.112  25.610   0.797  0.00  0.00     0.049 H 
ATOM    176  H44 GLU d   1     -40.639  24.227  -0.221  0.00  0.00     0.049 H 
BRANCH 174 177
ATOM    177  CD  GLU d   1     -41.298  24.122   1.847  0.00  0.00     0.172 C 
ATOM    178  OE1 GLU d   1     -41.885  24.722   2.782  0.00  0.00    -0.648 OA
ATOM    179  OE2 GLU d   1     -40.995  22.899   1.928  0.00  0.00    -0.648 OA
ENDBRANCH 174 177
ENDBRANCH 171 174
ENDBRANCH  79 171
BRANCH  85 180
ATOM    180  CB  VAL d   1     -37.490  27.018  -2.967  0.00  0.00    -0.033 C 
ATOM    181  H47 VAL d   1     -37.112  26.922  -1.938  0.00  0.00     0.042 H 
BRANCH 180 182
ATOM    182  CG1 VAL d   1     -36.462  26.446  -3.900  0.00  0.00    -0.071 C 
ATOM    183  H48 VAL d   1     -35.530  27.024  -3.817  0.00  0.00     0.028 H 
ATOM    184  H49 VAL d   1     -36.835  26.499  -4.934  0.00  0.00     0.028 H 
ATOM    185  H50 VAL d   1     -36.268  25.397  -3.633  0.00  0.00     0.028 H 
ENDBRANCH 180 182
BRANCH 180 186
ATOM    186  CG2 VAL d   1     -37.710  28.465  -3.241  0.00  0.00    -0.071 C 
ATOM    187  H51 VAL d   1     -38.466  28.859  -2.546  0.00  0.00     0.028 H 
ATOM    188  H52 VAL d   1     -38.061  28.593  -4.275  0.00  0.00     0.028 H 
ATOM    189  H53 VAL d   1     -36.765  29.012  -3.104  0.00  0.00     0.028 H 
ENDBRANCH 180 186
ENDBRANCH  85 180
BRANCH  91 190
ATOM    190  CB  ASP d   1     -36.660  22.447  -4.115  0.00  0.00     0.043 C 
ATOM    191  H56 ASP d   1     -36.210  22.925  -3.232  0.00  0.00     0.052 H 
ATOM    192  H57 ASP d   1     -36.365  22.997  -5.021  0.00  0.00     0.052 H 
BRANCH 190 193
ATOM    193  CG  ASP d   1     -36.111  21.009  -4.220  0.00  0.00     0.175 C 
ATOM    194  OD1 ASP d   1     -36.840  20.050  -4.607  0.00  0.00    -0.648 OA
ATOM    195  OD2 ASP d   1     -34.898  20.829  -3.964  0.00  0.00    -0.648 OA
ENDBRANCH 190 193
ENDBRANCH  91 190
BRANCH  19 196
ATOM    196  C   CYS d   1     -40.035  15.508   1.728  0.00  0.00     0.197 C 
ATOM    197  O   CYS d   1     -40.243  14.572   0.911  0.00  0.00    -0.646 OA
ATOM    198  O   CYS d   1     -38.874  15.981   1.856  0.00  0.00    -0.646 OA
ENDBRANCH  19 196
BRANCH  59 199
ATOM    199  CB  ARG d   1     -40.307  16.575  -2.380  0.00  0.00    -0.036 C 
ATOM    200  H64 ARG d   1     -39.910  15.591  -2.090  0.00  0.00     0.036 H 
ATOM    201  H65 ARG d   1     -40.136  16.738  -3.454  0.00  0.00     0.036 H 
BRANCH 199 202
ATOM    202  CG  ARG d   1     -41.833  16.564  -2.136  0.00  0.00    -0.048 C 
ATOM    203  H66 ARG d   1     -42.233  17.568  -2.339  0.00  0.00     0.035 H 
ATOM    204  H67 ARG d   1     -42.023  16.299  -1.085  0.00  0.00     0.035 H 
BRANCH 202 205
ATOM    205  CD  ARG d   1     -42.566  15.528  -3.062  0.00  0.00     0.009 C 
ATOM    206  H68 ARG d   1     -42.202  14.512  -2.849  0.00  0.00     0.064 H 
ATOM    207  H69 ARG d   1     -42.377  15.771  -4.118  0.00  0.00     0.064 H 
BRANCH 205 208
ATOM    208  NE  ARG d   1     -44.007  15.614  -2.778  0.00  0.00    -0.227 N 
ATOM    209  CZ  ARG d   1     -44.605  14.946  -1.791  0.00  0.00     0.665 C 
ATOM    210  NH1 ARG d   1     -43.931  14.077  -1.041  0.00  0.00    -0.235 N 
ATOM    211  NH2 ARG d   1     -45.880  15.124  -1.576  0.00  0.00    -0.235 N 
ATOM    212  H71 ARG d   1     -44.410  13.570  -0.283  0.00  0.00     0.174 HD
ATOM    213  H72 ARG d   1     -42.930  13.911  -1.219  0.00  0.00     0.174 HD
ATOM    214  H73 ARG d   1     -46.411  15.794  -2.151  0.00  0.00     0.174 HD
ATOM    215  H74 ARG d   1     -46.356  14.594  -0.832  0.00  0.00     0.174 HD
ATOM    216  H70 ARG d   1     -44.585  16.223  -3.374  0.00  0.00     0.177 HD
ENDBRANCH 205 208
ENDBRANCH 202 205
ENDBRANCH 199 202
ENDBRANCH  59 199
BRANCH   2 217
ATOM    217  CB  ALA d   1     -41.662  19.299   5.700  0.00  0.00    -0.049 C 
ATOM    218 1H10 ALA d   1     -42.489  18.681   6.080  0.00  0.00     0.030 H 
ATOM    219 2H10 ALA d   1     -41.943  19.731   4.728  0.00  0.00     0.030 H 
ATOM    220 3H10 ALA d   1     -41.452  20.109   6.414  0.00  0.00     0.030 H 
ENDBRANCH   2 217
BRANCH  47 221
ATOM    221  CB  SER d   1     -36.725  19.470   2.782  0.00  0.00     0.044 C 
ATOM    222  H96 SER d   1     -36.011  18.635   2.722  0.00  0.00     0.077 H 
ATOM    223  H97 SER d   1     -36.266  20.376   2.359  0.00  0.00     0.077 H 
BRANCH 221 224
ATOM    224  OG  SER d   1     -37.904  19.140   2.027  0.00  0.00    -0.398 OA
ATOM    225  H98 SER d   1     -37.665  18.986   1.121  0.00  0.00     0.209 HD
ENDBRANCH 221 224
ENDBRANCH  47 221
BRANCH  63 226
ATOM    226  CB  ARG d   1     -31.570  16.849   0.372  0.00  0.00    -0.036 C 
ATOM    227  H80 ARG d   1     -31.549  15.789   0.079  0.00  0.00     0.036 H 
ATOM    228  H81 ARG d   1     -30.990  16.985   1.297  0.00  0.00     0.036 H 
BRANCH 226 229
ATOM    229  CG  ARG d   1     -30.887  17.631  -0.710  0.00  0.00    -0.048 C 
ATOM    230  H82 ARG d   1     -30.634  18.630  -0.326  0.00  0.00     0.035 H 
ATOM    231  H83 ARG d   1     -31.569  17.729  -1.568  0.00  0.00     0.035 H 
BRANCH 229 232
ATOM    232  CD  ARG d   1     -29.596  16.927  -1.171  0.00  0.00     0.009 C 
ATOM    233  H84 ARG d   1     -28.952  17.671  -1.663  0.00  0.00     0.064 H 
ATOM    234  H85 ARG d   1     -29.867  16.142  -1.892  0.00  0.00     0.064 H 
BRANCH 232 235
ATOM    235  NE  ARG d   1     -28.834  16.306  -0.073  0.00  0.00    -0.227 N 
ATOM    236  CZ  ARG d   1     -27.582  15.862  -0.206  0.00  0.00     0.665 C 
ATOM    237  NH1 ARG d   1     -26.974  15.966  -1.387  0.00  0.00    -0.235 N 
ATOM    238  NH2 ARG d   1     -26.943  15.293   0.827  0.00  0.00    -0.235 N 
ATOM    239  H87 ARG d   1     -26.008  15.627  -1.501  0.00  0.00     0.174 HD
ATOM    240  H88 ARG d   1     -27.470  16.386  -2.186  0.00  0.00     0.174 HD
ATOM    241  H89 ARG d   1     -27.411  15.212   1.741  0.00  0.00     0.174 HD
ATOM    242  H90 ARG d   1     -25.984  14.937   0.707  0.00  0.00     0.174 HD
ATOM    243  H86 ARG d   1     -29.291  16.209   0.845  0.00  0.00     0.177 HD
ENDBRANCH 232 235
ENDBRANCH 229 232
ENDBRANCH 226 229
ENDBRANCH  63 226
TORSDOF 33
