REMARK  11 active torsions:
REMARK  status: ('A' for Active; 'I' for Inactive)
REMARK    1  A    between atoms: C2_2  and  C1_1 
REMARK    2  A    between atoms: C2_2  and  O2_15 
REMARK    3  A    between atoms: C4_4  and  O4_16 
REMARK    4  A    between atoms: N5_12  and  C5_5 
REMARK    5  A    between atoms: C6_6  and  C7_7 
REMARK    6  A    between atoms: C7_7  and  C8_8 
REMARK    7  A    between atoms: C7_7  and  O7_18 
REMARK    8  A    between atoms: C8_8  and  C9_9 
REMARK    9  A    between atoms: C8_8  and  O8_19 
REMARK   10  A    between atoms: C9_9  and  O9_20 
REMARK   11  A    between atoms: C10_10  and  C11_11 
REMARK       I    between atoms: C10_10  and  N5_12 
ROOT
ATOM      1  C2  SIA d   1      35.719   3.564 -20.405  0.00  0.00     0.256 C 
ATOM      2  C3  SIA d   1      34.488   3.067 -19.634  0.00  0.00     0.023 C 
ATOM      3  C4  SIA d   1      33.208   3.749 -20.113  0.00  0.00     0.063 C 
ATOM      4  C5  SIA d   1      33.039   3.542 -21.614  0.00  0.00     0.064 C 
ATOM      5  C6  SIA d   1      34.277   4.089 -22.335  0.00  0.00     0.091 C 
ATOM      6  O6  SIA d   1      35.485   3.501 -21.824  0.00  0.00    -0.336 OA
ATOM      7  H1  SIA d   1      34.627   3.281 -18.564  0.00  0.00     0.045 H 
ATOM      8  H2  SIA d   1      34.390   1.981 -19.781  0.00  0.00     0.045 H 
ATOM      9  H3  SIA d   1      33.289   4.828 -19.916  0.00  0.00     0.086 H 
ATOM     10  H4  SIA d   1      32.947   2.465 -21.819  0.00  0.00     0.080 H 
ATOM     11  H5  SIA d   1      34.316   5.170 -22.136  0.00  0.00     0.090 H 
ENDROOT
BRANCH   5  12
ATOM     12  C7  SIA d   1      34.232   3.900 -23.855  0.00  0.00     0.089 C 
ATOM     13  H6  SIA d   1      33.350   4.432 -24.240  0.00  0.00     0.091 H 
BRANCH  12  14
ATOM     14  C8  SIA d   1      35.477   4.476 -24.539  0.00  0.00     0.083 C 
ATOM     15  H7  SIA d   1      36.324   3.804 -24.334  0.00  0.00     0.090 H 
BRANCH  14  16
ATOM     16  C9  SIA d   1      35.298   4.577 -26.052  0.00  0.00     0.043 C 
ATOM     17  H8  SIA d   1      34.822   3.658 -26.424  0.00  0.00     0.078 H 
ATOM     18  H9  SIA d   1      36.282   4.698 -26.528  0.00  0.00     0.078 H 
BRANCH  16  19
ATOM     19  O9  SIA d   1      34.472   5.705 -26.376  0.00  0.00    -0.398 OA
ATOM     20  H18 SIA d   1      34.883   6.499 -26.056  0.00  0.00     0.209 HD
ENDBRANCH  16  19
ENDBRANCH  14  16
BRANCH  14  21
ATOM     21  O8  SIA d   1      35.781   5.774 -24.006  0.00  0.00    -0.391 OA
ATOM     22  H17 SIA d   1      35.892   5.710 -23.065  0.00  0.00     0.210 HD
ENDBRANCH  14  21
ENDBRANCH  12  14
BRANCH  12  23
ATOM     23  O7  SIA d   1      34.103   2.507 -24.179  0.00  0.00    -0.390 OA
ATOM     24  H16 SIA d   1      34.020   2.408 -25.120  0.00  0.00     0.210 HD
ENDBRANCH  12  23
ENDBRANCH   5  12
BRANCH   4  25
ATOM     25  N5  SIA d   1      31.843   4.215 -22.097  0.00  0.00    -0.352 N 
ATOM     26  C10 SIA d   1      30.667   3.617 -22.305  0.00  0.00     0.214 C 
ATOM     27  O10 SIA d   1      30.456   2.431 -22.100  0.00  0.00    -0.274 OA
ATOM     28  H13 SIA d   1      31.906   5.195 -22.287  0.00  0.00     0.163 HD
BRANCH  26  29
ATOM     29  C11 SIA d   1      29.587   4.523 -22.814  0.00  0.00    -0.003 C 
ATOM     30  H10 SIA d   1      28.661   3.946 -22.955  0.00  0.00     0.040 H 
ATOM     31  H11 SIA d   1      29.897   4.959 -23.775  0.00  0.00     0.040 H 
ATOM     32  H12 SIA d   1      29.410   5.328 -22.086  0.00  0.00     0.040 H 
ENDBRANCH  26  29
ENDBRANCH   4  25
BRANCH   3  33
ATOM     33  O4  SIA d   1      32.077   3.241 -19.398  0.00  0.00    -0.393 OA
ATOM     34  H15 SIA d   1      31.293   3.695 -19.683  0.00  0.00     0.210 HD
ENDBRANCH   3  33
BRANCH   1  35
ATOM     35  C1  SIA d   1      36.091   4.963 -19.949  0.00  0.00     0.238 C 
ATOM     36  O1A SIA d   1      36.329   5.845 -20.806  0.00  0.00    -0.644 OA
ATOM     37  O1B SIA d   1      36.157   5.191 -18.718  0.00  0.00    -0.644 OA
ENDBRANCH   1  35
BRANCH   1  38
ATOM     38  O2  SIA d   1      36.828   2.706 -20.121  0.00  0.00    -0.357 OA
ATOM     39  H14 SIA d   1      37.591   3.008 -20.600  0.00  0.00     0.213 HD
ENDBRANCH   1  38
TORSDOF 11
