REMARK  28 active torsions:
REMARK  status: ('A' for Active; 'I' for Inactive)
REMARK    1  A    between atoms: N_1  and  CA_2 
REMARK    2  A    between atoms: CA_2  and  C_3 
REMARK    3  A    between atoms: CA_2  and  CB_5 
REMARK       I    between atoms: C_3  and  N_10 
REMARK    4  A    between atoms: CB_5  and  CG_6 
REMARK    5  A    between atoms: CG_6  and  CD_7 
REMARK    6  A    between atoms: CD_7  and  CE_8 
REMARK    7  A    between atoms: CE_8  and  NZ_9 
REMARK    8  A    between atoms: CA_11  and  C_12 
REMARK       I    between atoms: C_12  and  N_17 
REMARK    9  A    between atoms: CA_18  and  C_19 
REMARK       I    between atoms: C_19  and  N_24 
REMARK   10  A    between atoms: N_24  and  CA_25 
REMARK   11  A    between atoms: CA_25  and  C_26 
REMARK   12  A    between atoms: CA_25  and  CB_28 
REMARK       I    between atoms: C_26  and  N_36 
REMARK   13  A    between atoms: CB_28  and  CG_29 
REMARK   14  A    between atoms: CZ_34  and  OH_35 
REMARK   15  A    between atoms: N_36  and  CA_37 
REMARK   16  A    between atoms: CA_37  and  C_38 
REMARK   17  A    between atoms: CA_37  and  CB_40 
REMARK       I    between atoms: C_38  and  N_44 
REMARK   18  A    between atoms: CB_40  and  CG_41 
REMARK   19  A    between atoms: CG_41  and  CD1_42 
REMARK   20  A    between atoms: CG_41  and  CD2_43 
REMARK   21  A    between atoms: CA_45  and  C_46 
REMARK       I    between atoms: C_46  and  N_51 
REMARK   22  A    between atoms: N_51  and  CA_52 
REMARK   23  A    between atoms: CA_52  and  C_53 
REMARK   24  A    between atoms: CA_52  and  CB_55 
REMARK       I    between atoms: C_53  and  N_62 
REMARK   25  A    between atoms: CB_55  and  CG_56 
REMARK   26  A    between atoms: CG_56  and  CD_57 
REMARK   27  A    between atoms: CD_57  and  NE_58 
REMARK       I    between atoms: NE_58  and  CZ_59 
REMARK       I    between atoms: CZ_59  and  NH1_60 
REMARK   28  A    between atoms: CA_63  and  C_64 
ROOT
ATOM      1  C   TYR d   1      -2.095 -32.506  -6.854  0.00  0.00     0.241 C 
ATOM      2  O   TYR d   1      -1.120 -31.759  -6.753  0.00  0.00    -0.271 OA
ATOM      3  N   LEU d   1      -1.949 -33.712  -7.342  0.00  0.00    -0.346 N 
ATOM      4  H   LEU d   1      -2.733 -34.363  -7.374  0.00  0.00     0.163 HD
ENDROOT
BRANCH   1   5
ATOM      5  CA  TYR d   1      -3.509 -32.048  -6.447  0.00  0.00     0.093 C 
ATOM      6  H   TYR d   1      -4.114 -32.951  -6.364  0.00  0.00     0.088 H 
BRANCH   5   7
ATOM      7  N   TYR d   1      -3.421 -31.303  -5.236  0.00  0.00    -0.346 N 
ATOM      8  C   PRO d   1      -3.758 -31.846  -4.099  0.00  0.00     0.241 C 
ATOM      9  O   PRO d   1      -4.018 -33.075  -3.984  0.00  0.00    -0.271 OA
ATOM     10  H   TYR d   1      -3.092 -30.338  -5.258  0.00  0.00     0.163 HD
BRANCH   8  11
ATOM     11  CA  PRO d   1      -3.889 -30.833  -2.953  0.00  0.00     0.091 C 
ATOM     12  N   PRO d   1      -4.561 -31.412  -1.788  0.00  0.00    -0.337 N 
ATOM     13  C   PRO d   1      -5.896 -31.576  -1.770  0.00  0.00     0.243 C 
ATOM     14  CD  PRO d   1      -3.615 -31.545  -0.667  0.00  0.00    -0.001 C 
ATOM     15  O   PRO d   1      -6.624 -31.054  -2.594  0.00  0.00    -0.271 OA
ATOM     16  CG  PRO d   1      -2.628 -30.397  -0.962  0.00  0.00    -0.048 C 
ATOM     17  H   PRO d   1      -3.141 -32.525  -0.609  0.00  0.00     0.064 H 
ATOM     18  H   PRO d   1      -4.086 -31.475   0.313  0.00  0.00     0.064 H 
ATOM     19  CB  PRO d   1      -2.501 -30.430  -2.411  0.00  0.00    -0.036 C 
ATOM     20  H   PRO d   1      -2.982 -29.434  -0.593  0.00  0.00     0.035 H 
ATOM     21  H   PRO d   1      -1.672 -30.524  -0.454  0.00  0.00     0.035 H 
ATOM     22  H   PRO d   1      -2.192 -29.460  -2.802  0.00  0.00     0.036 H 
ATOM     23  H   PRO d   1      -1.735 -31.140  -2.723  0.00  0.00     0.036 H 
ATOM     24  H   PRO d   1      -4.444 -29.995  -3.375  0.00  0.00     0.087 H 
BRANCH  13  25
ATOM     25  CA  PRO d   1      -6.508 -32.421  -0.635  0.00  0.00     0.092 C 
ATOM     26  N   PRO d   1      -7.615 -31.789   0.109  0.00  0.00    -0.337 N 
ATOM     27  C   LYS d   1      -7.651 -30.496   0.524  0.00  0.00     0.251 C 
ATOM     28  CD  PRO d   1      -8.616 -32.792   0.545  0.00  0.00    -0.001 C 
ATOM     29  O   LYS d   1      -6.704 -29.702   0.356  0.00  0.00    -0.271 OA
ATOM     30  CG  PRO d   1      -8.153 -34.075  -0.114  0.00  0.00    -0.048 C 
ATOM     31  H   PRO d   1      -9.630 -32.519   0.255  0.00  0.00     0.064 H 
ATOM     32  H   PRO d   1      -8.671 -32.879   1.630  0.00  0.00     0.064 H 
ATOM     33  CB  PRO d   1      -7.152 -33.689  -1.188  0.00  0.00    -0.036 C 
ATOM     34  H   PRO d   1      -7.695 -34.740   0.618  0.00  0.00     0.035 H 
ATOM     35  H   PRO d   1      -8.997 -34.610  -0.549  0.00  0.00     0.035 H 
ATOM     36  H   PRO d   1      -6.424 -34.477  -1.383  0.00  0.00     0.036 H 
ATOM     37  H   PRO d   1      -7.621 -33.530  -2.159  0.00  0.00     0.036 H 
ATOM     38  H   PRO d   1      -5.652 -32.581   0.021  0.00  0.00     0.087 H 
BRANCH  27  39
ATOM     39  CA  LYS d   1      -8.938 -30.032   1.275  0.00  0.00     0.176 C 
ATOM     40  H   LYS d   1      -9.415 -30.939   1.646  0.00  0.00     0.099 H 
BRANCH  39  41
ATOM     41  N   LYS d   1      -8.603 -29.164   2.443  0.00  0.00    -0.067 N 
ATOM     42  H   LYS d   1      -7.925 -29.642   3.037  0.00  0.00     0.275 HD
ATOM     43  H   LYS d   1      -8.206 -28.286   2.110  0.00  0.00     0.275 HD
ATOM     44  H   LYS d   1      -9.450 -28.974   2.978  0.00  0.00     0.275 HD
ENDBRANCH  39  41
BRANCH  39  45
ATOM     45  CB  LYS d   1      -9.975 -29.337   0.340  0.00  0.00    -0.030 C 
ATOM     46  H   LYS d   1     -10.337 -28.468   0.890  0.00  0.00     0.036 H 
ATOM     47  H   LYS d   1     -10.708 -30.103   0.087  0.00  0.00     0.036 H 
BRANCH  45  48
ATOM     48  CG  LYS d   1      -9.444 -28.788  -1.024  0.00  0.00    -0.061 C 
ATOM     49  H   LYS d   1      -8.877 -29.579  -1.514  0.00  0.00     0.033 H 
ATOM     50  H   LYS d   1      -8.827 -27.912  -0.824  0.00  0.00     0.033 H 
BRANCH  48  51
ATOM     51  CD  LYS d   1     -10.598 -28.365  -1.961  0.00  0.00    -0.043 C 
ATOM     52  H   LYS d   1     -11.079 -27.483  -1.538  0.00  0.00     0.035 H 
ATOM     53  H   LYS d   1     -11.293 -29.200  -2.048  0.00  0.00     0.035 H 
BRANCH  51  54
ATOM     54  CE  LYS d   1     -10.086 -28.010  -3.370  0.00  0.00     0.080 C 
ATOM     55  H   LYS d   1      -9.539 -28.873  -3.749  0.00  0.00     0.075 H 
ATOM     56  H   LYS d   1      -9.470 -27.115  -3.281  0.00  0.00     0.075 H 
BRANCH  54  57
ATOM     57  NZ  LYS d   1     -11.185 -27.709  -4.340  0.00  0.00    -0.079 N 
ATOM     58  H   LYS d   1     -10.782 -27.483  -5.249  0.00  0.00     0.274 HD
ATOM     59  H   LYS d   1     -11.791 -28.524  -4.429  0.00  0.00     0.274 HD
ATOM     60  H   LYS d   1     -11.728 -26.915  -4.001  0.00  0.00     0.274 HD
ENDBRANCH  54  57
ENDBRANCH  51  54
ENDBRANCH  48  51
ENDBRANCH  45  48
ENDBRANCH  39  45
ENDBRANCH  27  39
ENDBRANCH  13  25
ENDBRANCH   8  11
ENDBRANCH   5   7
BRANCH   5  61
ATOM     61  CB  TYR d   1      -4.125 -31.106  -7.448  0.00  0.00    -0.014 C 
ATOM     62  H   TYR d   1      -4.172 -31.629  -8.403  0.00  0.00     0.043 H 
ATOM     63  H   TYR d   1      -3.509 -30.207  -7.473  0.00  0.00     0.043 H 
BRANCH  61  64
ATOM     64  CG  TYR d   1      -5.534 -30.681  -7.093  0.00  0.00    -0.056 A 
ATOM     65  CD1 TYR d   1      -6.583 -31.585  -7.164  0.00  0.00    -0.074 A 
ATOM     66  CE1 TYR d   1      -7.911 -31.196  -6.854  0.00  0.00    -0.051 A 
ATOM     67  H   TYR d   1      -6.383 -32.614  -7.464  0.00  0.00     0.084 H 
ATOM     68  CZ  TYR d   1      -8.174 -29.884  -6.474  0.00  0.00     0.065 A 
ATOM     69  H   TYR d   1      -8.722 -31.922  -6.913  0.00  0.00     0.087 H 
ATOM     70  CE2 TYR d   1      -7.137 -28.958  -6.418  0.00  0.00    -0.051 A 
ATOM     71  CD2 TYR d   1      -5.828 -29.360  -6.745  0.00  0.00    -0.074 A 
ATOM     72  H   TYR d   1      -7.337 -27.928  -6.123  0.00  0.00     0.087 H 
ATOM     73  H   TYR d   1      -5.025 -28.623  -6.726  0.00  0.00     0.084 H 
BRANCH  68  74
ATOM     74  OH  TYR d   1      -9.494 -29.515  -6.180  0.00  0.00    -0.361 OA
ATOM     75  H   TYR d   1     -10.067 -30.280  -6.271  0.00  0.00     0.217 HD
ENDBRANCH  68  74
ENDBRANCH  61  64
ENDBRANCH   5  61
ENDBRANCH   1   5
BRANCH   3  76
ATOM     76  CA  LEU d   1      -0.644 -34.095  -7.834  0.00  0.00     0.090 C 
ATOM     77  H   LEU d   1       0.146 -33.722  -7.182  0.00  0.00     0.087 H 
BRANCH  76  78
ATOM     78  C   LEU d   1      -0.453 -33.491  -9.217  0.00  0.00     0.243 C 
ATOM     79  O   LEU d   1      -1.393 -32.929  -9.729  0.00  0.00    -0.271 OA
ATOM     80  N   PRO d   1       0.769 -33.525  -9.788  0.00  0.00    -0.337 N 
ATOM     81  CA  PRO d   1       0.814 -32.959 -11.140  0.00  0.00     0.091 C 
ATOM     82  CD  PRO d   1       2.115 -33.817  -9.269  0.00  0.00    -0.001 C 
ATOM     83  CB  PRO d   1       2.182 -33.383 -11.663  0.00  0.00    -0.036 C 
ATOM     84  H   PRO d   1       0.669 -31.879 -11.178  0.00  0.00     0.087 H 
ATOM     85  CG  PRO d   1       3.020 -33.427 -10.403  0.00  0.00    -0.048 C 
ATOM     86  H   PRO d   1       2.580 -32.702 -12.415  0.00  0.00     0.036 H 
ATOM     87  H   PRO d   1       2.159 -34.336 -12.192  0.00  0.00     0.036 H 
ATOM     88  H   PRO d   1       3.471 -32.453 -10.212  0.00  0.00     0.035 H 
ATOM     89  H   PRO d   1       3.829 -34.150 -10.509  0.00  0.00     0.035 H 
ATOM     90  H   PRO d   1       2.234 -34.861  -8.980  0.00  0.00     0.064 H 
ATOM     91  H   PRO d   1       2.336 -33.272  -8.351  0.00  0.00     0.064 H 
BRANCH  81  92
ATOM     92  C   PRO d   1      -0.277 -33.623 -11.961  0.00  0.00     0.241 C 
ATOM     93  O   PRO d   1      -0.894 -34.580 -11.508  0.00  0.00    -0.271 OA
ATOM     94  N   ARG d   1      -0.535 -33.108 -13.147  0.00  0.00    -0.346 N 
ATOM     95  H   ARG d   1      -0.126 -32.218 -13.432  0.00  0.00     0.163 HD
BRANCH  94  96
ATOM     96  CA  ARG d   1      -1.409 -33.835 -14.029  0.00  0.00     0.089 C 
ATOM     97  H   ARG d   1      -1.836 -34.729 -13.574  0.00  0.00     0.087 H 
BRANCH  96  98
ATOM     98  C   ARG d   1      -0.557 -34.327 -15.222  0.00  0.00     0.243 C 
ATOM     99  O   ARG d   1       0.648 -34.052 -15.237  0.00  0.00    -0.271 OA
ATOM    100  N   PRO d   1      -1.153 -35.089 -16.178  0.00  0.00    -0.336 N 
ATOM    101  CA  PRO d   1      -0.365 -35.732 -17.256  0.00  0.00     0.098 C 
ATOM    102  CD  PRO d   1      -2.588 -35.449 -16.254  0.00  0.00    -0.001 C 
ATOM    103  CB  PRO d   1      -1.433 -36.435 -18.125  0.00  0.00    -0.035 C 
ATOM    104  H   PRO d   1       0.383 -36.400 -16.830  0.00  0.00     0.089 H 
ATOM    105  CG  PRO d   1      -2.641 -36.553 -17.281  0.00  0.00    -0.048 C 
ATOM    106  H   PRO d   1      -1.088 -37.415 -18.455  0.00  0.00     0.036 H 
ATOM    107  H   PRO d   1      -1.641 -35.864 -19.030  0.00  0.00     0.036 H 
ATOM    108  H   PRO d   1      -2.670 -37.527 -16.792  0.00  0.00     0.035 H 
ATOM    109  H   PRO d   1      -3.541 -36.464 -17.890  0.00  0.00     0.035 H 
ATOM    110  H   PRO d   1      -3.210 -34.599 -16.533  0.00  0.00     0.064 H 
ATOM    111  H   PRO d   1      -2.983 -35.767 -15.289  0.00  0.00     0.064 H 
BRANCH 101 112
ATOM    112  C   PRO d   1       0.458 -34.750 -18.116  0.00  0.00     0.196 C 
ATOM    113  O   PRO d   1       1.193 -35.183 -19.026  0.00  0.00    -0.646 OA
ATOM    114  O   PRO d   1       0.388 -33.511 -17.899  0.00  0.00    -0.646 OA
ENDBRANCH 101 112
ENDBRANCH  96  98
BRANCH  96 115
ATOM    115  CB  ARG d   1      -2.643 -32.990 -14.362  0.00  0.00    -0.036 C 
ATOM    116  H   ARG d   1      -2.974 -32.510 -13.441  0.00  0.00     0.036 H 
ATOM    117  H   ARG d   1      -3.393 -33.654 -14.792  0.00  0.00     0.036 H 
BRANCH 115 118
ATOM    118  CG  ARG d   1      -2.370 -31.932 -15.342  0.00  0.00    -0.048 C 
ATOM    119  H   ARG d   1      -2.597 -32.305 -16.341  0.00  0.00     0.035 H 
ATOM    120  H   ARG d   1      -1.320 -31.646 -15.274  0.00  0.00     0.035 H 
BRANCH 118 121
ATOM    121  CD  ARG d   1      -3.214 -30.743 -15.066  0.00  0.00     0.009 C 
ATOM    122  H   ARG d   1      -3.692 -30.827 -14.090  0.00  0.00     0.064 H 
ATOM    123  H   ARG d   1      -4.011 -30.656 -15.804  0.00  0.00     0.064 H 
BRANCH 121 124
ATOM    124  NE  ARG d   1      -2.347 -29.591 -15.113  0.00  0.00    -0.227 N 
ATOM    125  CZ  ARG d   1      -2.725 -28.379 -15.462  0.00  0.00     0.665 C 
ATOM    126  NH1 ARG d   1      -3.999 -28.145 -15.795  0.00  0.00    -0.235 N 
ATOM    127  NH2 ARG d   1      -1.816 -27.402 -15.447  0.00  0.00    -0.235 N 
ATOM    128  H   ARG d   1      -4.678 -28.906 -15.779  0.00  0.00     0.174 HD
ATOM    129  H   ARG d   1      -4.291 -27.206 -16.065  0.00  0.00     0.174 HD
ATOM    130  H   ARG d   1      -0.855 -27.604 -15.170  0.00  0.00     0.174 HD
ATOM    131  H   ARG d   1      -2.082 -26.454 -15.713  0.00  0.00     0.174 HD
ATOM    132  H   ARG d   1      -1.369 -29.725 -14.857  0.00  0.00     0.177 HD
ENDBRANCH 121 124
ENDBRANCH 118 121
ENDBRANCH 115 118
ENDBRANCH  96 115
ENDBRANCH  94  96
ENDBRANCH  81  92
ENDBRANCH  76  78
BRANCH  76 133
ATOM    133  CB  LEU d   1      -0.547 -35.583  -7.862  0.00  0.00    -0.035 C 
ATOM    134  H   LEU d   1       0.361 -35.923  -8.360  0.00  0.00     0.037 H 
ATOM    135  H   LEU d   1      -1.358 -36.034  -8.434  0.00  0.00     0.037 H 
BRANCH 133 136
ATOM    136  CG  LEU d   1      -0.583 -35.991  -6.417  0.00  0.00    -0.059 C 
ATOM    137  H   LEU d   1      -1.345 -35.449  -5.856  0.00  0.00     0.038 H 
BRANCH 136 138
ATOM    138  CD1 LEU d   1      -0.873 -37.499  -6.408  0.00  0.00    -0.073 C 
ATOM    139  H   LEU d   1      -1.831 -37.687  -6.894  0.00  0.00     0.028 H 
ATOM    140  H   LEU d   1      -0.083 -38.023  -6.945  0.00  0.00     0.028 H 
ATOM    141  H   LEU d   1      -0.911 -37.854  -5.378  0.00  0.00     0.028 H 
ENDBRANCH 136 138
BRANCH 136 142
ATOM    142  CD2 LEU d   1       0.723 -35.693  -5.781  0.00  0.00    -0.073 C 
ATOM    143  H   LEU d   1       1.510 -36.246  -6.294  0.00  0.00     0.028 H 
ATOM    144  H   LEU d   1       0.924 -34.624  -5.850  0.00  0.00     0.028 H 
ATOM    145  H   LEU d   1       0.692 -35.991  -4.733  0.00  0.00     0.028 H 
ENDBRANCH 136 142
ENDBRANCH 133 136
ENDBRANCH  76 133
ENDBRANCH   3  76
TORSDOF 28
