REMARK WARNING: 32 MAX_TORS EXCEEDED!!!
REMARK  70 active torsions:
REMARK  status: ('A' for Active; 'I' for Inactive)
REMARK    1  A    between atoms: N_1  and  CA_2 
REMARK    2  A    between atoms: CA_2  and  C_3 
REMARK    3  A    between atoms: CA_2  and  CB_5 
REMARK       I    between atoms: C_3  and  N_6 
REMARK    4  A    between atoms: N_6  and  CA_7 
REMARK    5  A    between atoms: CA_7  and  C_8 
REMARK    6  A    between atoms: CA_7  and  CB_10 
REMARK       I    between atoms: C_8  and  N_11 
REMARK    7  A    between atoms: N_11  and  CA_12 
REMARK    8  A    between atoms: CA_12  and  C_13 
REMARK    9  A    between atoms: CA_12  and  CB_15 
REMARK       I    between atoms: C_13  and  N_18 
REMARK   10  A    between atoms: CB_15  and  OG1_16 
REMARK   11  A    between atoms: CB_15  and  CG2_17 
REMARK   12  A    between atoms: N_18  and  CA_19 
REMARK   13  A    between atoms: CA_19  and  C_20 
REMARK   14  A    between atoms: CA_19  and  CB_22 
REMARK       I    between atoms: C_20  and  N_27 
REMARK   15  A    between atoms: CB_22  and  CG_23 
REMARK   16  A    between atoms: CG_23  and  CD_24 
REMARK   17  A    between atoms: CD_24  and  CE_25 
REMARK   18  A    between atoms: CE_25  and  NZ_26 
REMARK   19  A    between atoms: N_27  and  CA_28 
REMARK   20  A    between atoms: CA_28  and  C_29 
REMARK   21  A    between atoms: CA_28  and  CB_31 
REMARK       I    between atoms: C_29  and  N_36 
REMARK   22  A    between atoms: CB_31  and  CG_32 
REMARK   23  A    between atoms: CG_32  and  CD_33 
REMARK       I    between atoms: CD_33  and  NE2_35 
REMARK   24  A    between atoms: N_36  and  CA_37 
REMARK   25  A    between atoms: CA_37  and  C_38 
REMARK   26  A    between atoms: CA_37  and  CB_40 
REMARK       I    between atoms: C_38  and  N_43 
REMARK   27  A    between atoms: CB_40  and  OG1_41 
REMARK   28  A    between atoms: CB_40  and  CG2_42 
REMARK   29  A    between atoms: N_43  and  CA_44 
REMARK   30  A    between atoms: CA_44  and  C_45 
REMARK   31  A    between atoms: CA_44  and  CB_47 
REMARK       I    between atoms: C_45  and  N_48 
REMARK   32  A    between atoms: N_48  and  CA_49 
REMARK   33  A    between atoms: CA_49  and  C_50 
REMARK   34  A    between atoms: CA_49  and  CB_52 
REMARK       I    between atoms: C_50  and  N_59 
REMARK   35  A    between atoms: CB_52  and  CG_53 
REMARK   36  A    between atoms: CG_53  and  CD_54 
REMARK   37  A    between atoms: CD_54  and  NE_55 
REMARK       I    between atoms: NE_55  and  CZ_56 
REMARK       I    between atoms: CZ_56  and  NH1_57 
REMARK   38  A    between atoms: N_59  and  CA_60 
REMARK   39  A    between atoms: CA_60  and  CB_61 
REMARK   40  A    between atoms: CA_60  and  C_66 
REMARK   41  A    between atoms: CB_61  and  CG_62 
REMARK   42  A    between atoms: CG_62  and  CD_63 
REMARK   43  A    between atoms: CD_63  and  CE_64 
REMARK   44  A    between atoms: CE_64  and  NZ_65 
REMARK   45  A    between atoms: NZ_65  and  CM1_68 
REMARK   46  A    between atoms: NZ_65  and  CM2_69 
REMARK   47  A    between atoms: NZ_65  and  CM3_70 
REMARK       I    between atoms: C_66  and  N_71 
REMARK   48  A    between atoms: N_71  and  CA_72 
REMARK   49  A    between atoms: CA_72  and  C_73 
REMARK   50  A    between atoms: CA_72  and  CB_75 
REMARK       I    between atoms: C_73  and  N_77 
REMARK   51  A    between atoms: CB_75  and  OG_76 
REMARK   52  A    between atoms: N_77  and  CA_78 
REMARK   53  A    between atoms: CA_78  and  C_79 
REMARK   54  A    between atoms: CA_78  and  CB_81 
REMARK       I    between atoms: C_79  and  N_84 
REMARK   55  A    between atoms: CB_81  and  OG1_82 
REMARK   56  A    between atoms: CB_81  and  CG2_83 
REMARK   57  A    between atoms: N_84  and  CA_85 
REMARK   58  A    between atoms: CA_85  and  C_86 
REMARK       I    between atoms: C_86  and  N_88 
REMARK   59  A    between atoms: N_88  and  CA_89 
REMARK   60  A    between atoms: CA_89  and  C_90 
REMARK       I    between atoms: C_90  and  N_92 
REMARK   61  A    between atoms: N_92  and  CA_93 
REMARK   62  A    between atoms: CA_93  and  C_94 
REMARK   63  A    between atoms: CA_93  and  CB_96 
REMARK       I    between atoms: C_94  and  N_101 
REMARK   64  A    between atoms: CB_96  and  CG_97 
REMARK   65  A    between atoms: CG_97  and  CD_98 
REMARK   66  A    between atoms: CD_98  and  CE_99 
REMARK   67  A    between atoms: CE_99  and  NZ_100 
REMARK   68  A    between atoms: N_101  and  CA_102 
REMARK   69  A    between atoms: CA_102  and  C_103 
REMARK   70  A    between atoms: CA_102  and  CB_105 
ROOT
ATOM      1  CA  ARG d   1      40.512   4.396 -15.009  0.00  0.00     0.089 C 
ATOM      2  H   ARG d   1      39.673   4.817 -15.563  0.00  0.00     0.087 H 
ENDROOT
BRANCH   1   3
ATOM      3  N   ARG d   1      41.216   5.431 -14.265  0.00  0.00    -0.346 N 
ATOM      4  C   ALA d   1      40.574   6.389 -13.590  0.00  0.00     0.240 C 
ATOM      5  O   ALA d   1      39.341   6.497 -13.582  0.00  0.00    -0.271 OA
ATOM      6  H   ARG d   1      42.236   5.425 -14.259  0.00  0.00     0.163 HD
BRANCH   4   7
ATOM      7  CA  ALA d   1      41.429   7.361 -12.796  0.00  0.00     0.086 C 
ATOM      8  H   ALA d   1      42.366   7.528 -13.328  0.00  0.00     0.086 H 
BRANCH   7   9
ATOM      9  N   ALA d   1      40.739   8.639 -12.650  0.00  0.00    -0.346 N 
ATOM     10  C   THR d   1      41.329   9.726 -12.158  0.00  0.00     0.243 C 
ATOM     11  O   THR d   1      42.539   9.797 -11.962  0.00  0.00    -0.271 OA
ATOM     12  H   ALA d   1      39.762   8.702 -12.938  0.00  0.00     0.163 HD
BRANCH  10  13
ATOM     13  CA  THR d   1      40.405  10.919 -11.843  0.00  0.00     0.113 C 
ATOM     14  H   THR d   1      39.610  10.530 -11.207  0.00  0.00     0.091 H 
BRANCH  13  15
ATOM     15  N   THR d   1      41.063  11.967 -11.066  0.00  0.00    -0.344 N 
ATOM     16  C   GLN d   1      40.524  12.431  -9.944  0.00  0.00     0.241 C 
ATOM     17  O   GLN d   1      39.473  11.988  -9.479  0.00  0.00    -0.271 OA
ATOM     18  H   THR d   1      41.951  12.349 -11.391  0.00  0.00     0.163 HD
BRANCH  16  19
ATOM     19  CA  GLN d   1      41.269  13.565  -9.245  0.00  0.00     0.090 C 
ATOM     20  H   GLN d   1      42.271  13.638  -9.667  0.00  0.00     0.087 H 
BRANCH  19  21
ATOM     21  N   GLN d   1      40.576  14.828  -9.460  0.00  0.00    -0.346 N 
ATOM     22  C   LYS d   1      40.950  15.680 -10.413  0.00  0.00     0.241 C 
ATOM     23  O   LYS d   1      41.892  15.464 -11.172  0.00  0.00    -0.271 OA
ATOM     24  H   GLN d   1      39.783  15.066  -8.865  0.00  0.00     0.163 HD
BRANCH  22  25
ATOM     25  CA  LYS d   1      40.162  16.980 -10.515  0.00  0.00     0.089 C 
ATOM     26  H   LYS d   1      39.416  17.006  -9.721  0.00  0.00     0.087 H 
BRANCH  25  27
ATOM     27  N   LYS d   1      41.076  18.099 -10.371  0.00  0.00    -0.346 N 
ATOM     28  C   THR d   1      41.603  18.418  -9.194  0.00  0.00     0.243 C 
ATOM     29  O   THR d   1      41.380  17.775  -8.165  0.00  0.00    -0.271 OA
ATOM     30  H   LYS d   1      41.319  18.653 -11.192  0.00  0.00     0.163 HD
BRANCH  28  31
ATOM     31  CA  THR d   1      42.497  19.658  -9.157  0.00  0.00     0.113 C 
ATOM     32  H   THR d   1      41.980  20.493  -9.630  0.00  0.00     0.091 H 
BRANCH  31  33
ATOM     33  N   THR d   1      42.780  20.003  -7.768  0.00  0.00    -0.344 N 
ATOM     34  C   ARG d   1      42.087  20.924  -7.104  0.00  0.00     0.240 C 
ATOM     35  O   ARG d   1      41.233  21.640  -7.638  0.00  0.00    -0.271 OA
ATOM     36  H   THR d   1      43.539  19.519  -7.287  0.00  0.00     0.163 HD
BRANCH  34  37
ATOM     37  CA  ARG d   1      42.410  21.055  -5.611  0.00  0.00     0.086 C 
ATOM     38  H   ARG d   1      41.681  21.735  -5.170  0.00  0.00     0.086 H 
BRANCH  37  39
ATOM     39  N   ARG d   1      42.306  19.761  -4.941  0.00  0.00    -0.346 N 
ATOM     40  C   ALA d   1      41.163  19.292  -4.442  0.00  0.00     0.248 C 
ATOM     41  O   ALA d   1      41.087  18.197  -3.881  0.00  0.00    -0.271 OA
ATOM     42  H   ARG d   1      43.147  19.191  -4.851  0.00  0.00     0.163 HD
BRANCH  40  43
ATOM     43  CA  ALA d   1      39.921  20.181  -4.581  0.00  0.00     0.172 C 
ATOM     44  H   ALA d   1      40.208  21.182  -4.259  0.00  0.00     0.098 H 
BRANCH  43  45
ATOM     45  N   ALA d   1      39.462  20.287  -5.961  0.00  0.00    -0.067 N 
ATOM     46  H   ALA d   1      40.223  20.634  -6.545  0.00  0.00     0.275 HD
ATOM     47  H   ALA d   1      39.169  19.368  -6.292  0.00  0.00     0.275 HD
ATOM     48  H   ALA d   1      38.674  20.933  -6.007  0.00  0.00     0.275 HD
ENDBRANCH  43  45
BRANCH  43  49
ATOM     49  CB  ALA d   1      38.795  19.663  -3.691  0.00  0.00    -0.042 C 
ATOM     50  H   ALA d   1      38.539  18.645  -3.986  0.00  0.00     0.030 H 
ATOM     51  H   ALA d   1      39.123  19.670  -2.651  0.00  0.00     0.030 H 
ATOM     52  H   ALA d   1      37.921  20.305  -3.802  0.00  0.00     0.030 H 
ENDBRANCH  43  49
ENDBRANCH  40  43
ENDBRANCH  37  39
BRANCH  37  53
ATOM     53  CB  ARG d   1      43.805  21.634  -5.410  0.00  0.00    -0.049 C 
ATOM     54  H   ARG d   1      44.540  20.976  -5.873  0.00  0.00     0.030 H 
ATOM     55  H   ARG d   1      43.857  22.621  -5.870  0.00  0.00     0.030 H 
ATOM     56  H   ARG d   1      44.012  21.718  -4.343  0.00  0.00     0.030 H 
ENDBRANCH  37  53
ENDBRANCH  34  37
ENDBRANCH  31  33
BRANCH  31  57
ATOM     57  CB  THR d   1      43.801  19.415  -9.951  0.00  0.00     0.060 C 
ATOM     58  H   THR d   1      44.354  18.613  -9.463  0.00  0.00     0.086 H 
BRANCH  57  59
ATOM     59  OG1 THR d   1      44.568  20.625  -9.972  0.00  0.00    -0.393 OA
ATOM     60  H   THR d   1      45.379  20.480 -10.464  0.00  0.00     0.210 HD
ENDBRANCH  57  59
BRANCH  57  61
ATOM     61  CG2 THR d   1      43.506  19.000 -11.382  0.00  0.00    -0.050 C 
ATOM     62  H   THR d   1      42.924  18.078 -11.379  0.00  0.00     0.031 H 
ATOM     63  H   THR d   1      42.939  19.788 -11.878  0.00  0.00     0.031 H 
ATOM     64  H   THR d   1      44.444  18.837 -11.912  0.00  0.00     0.031 H 
ENDBRANCH  57  61
ENDBRANCH  31  57
ENDBRANCH  28  31
ENDBRANCH  25  27
BRANCH  25  65
ATOM     65  CB  LYS d   1      39.428  17.071 -11.853  0.00  0.00    -0.038 C 
ATOM     66  H   LYS d   1      38.576  16.393 -11.805  0.00  0.00     0.036 H 
ATOM     67  H   LYS d   1      40.143  16.818 -12.636  0.00  0.00     0.036 H 
BRANCH  65  68
ATOM     68  CG  LYS d   1      38.888  18.463 -12.160  0.00  0.00    -0.061 C 
ATOM     69  H   LYS d   1      38.206  18.396 -13.008  0.00  0.00     0.033 H 
ATOM     70  H   LYS d   1      39.726  19.122 -12.387  0.00  0.00     0.033 H 
BRANCH  68  71
ATOM     71  CD  LYS d   1      38.129  19.028 -10.962  0.00  0.00    -0.043 C 
ATOM     72  H   LYS d   1      38.245  18.334 -10.130  0.00  0.00     0.035 H 
ATOM     73  H   LYS d   1      37.086  19.155 -11.251  0.00  0.00     0.035 H 
BRANCH  71  74
ATOM     74  CE  LYS d   1      38.672  20.395 -10.522  0.00  0.00     0.080 C 
ATOM     75  H   LYS d   1      39.758  20.320 -10.459  0.00  0.00     0.075 H 
ATOM     76  H   LYS d   1      38.212  20.646  -9.566  0.00  0.00     0.075 H 
BRANCH  74  77
ATOM     77  NZ  LYS d   1      38.344  21.481 -11.488  0.00  0.00    -0.079 N 
ATOM     78  H   LYS d   1      38.727  22.363 -11.148  0.00  0.00     0.274 HD
ATOM     79  H   LYS d   1      38.751  21.260 -12.397  0.00  0.00     0.274 HD
ATOM     80  H   LYS d   1      37.331  21.560 -11.578  0.00  0.00     0.274 HD
ENDBRANCH  74  77
ENDBRANCH  71  74
ENDBRANCH  68  71
ENDBRANCH  65  68
ENDBRANCH  25  65
ENDBRANCH  22  25
ENDBRANCH  19  21
BRANCH  19  81
ATOM     81  CB  GLN d   1      41.388  13.277  -7.748  0.00  0.00    -0.030 C 
ATOM     82  H   GLN d   1      41.938  12.342  -7.642  0.00  0.00     0.037 H 
ATOM     83  H   GLN d   1      40.376  13.246  -7.344  0.00  0.00     0.037 H 
BRANCH  81  84
ATOM     84  CG  GLN d   1      42.148  14.334  -6.974  0.00  0.00     0.011 C 
ATOM     85  H   GLN d   1      42.193  14.027  -5.929  0.00  0.00     0.047 H 
ATOM     86  H   GLN d   1      41.630  15.285  -7.096  0.00  0.00     0.047 H 
BRANCH  84  87
ATOM     87  CD  GLN d   1      43.557  14.495  -7.480  0.00  0.00     0.215 C 
ATOM     88  OE1 GLN d   1      44.322  13.530  -7.545  0.00  0.00    -0.274 OA
ATOM     89  NE2 GLN d   1      43.908  15.716  -7.864  0.00  0.00    -0.370 N 
ATOM     90  H   GLN d   1      44.844  15.886  -8.231  0.00  0.00     0.159 HD
ATOM     91  H   GLN d   1      43.241  16.485  -7.792  0.00  0.00     0.159 HD
ENDBRANCH  84  87
ENDBRANCH  81  84
ENDBRANCH  19  81
ENDBRANCH  16  19
ENDBRANCH  13  15
BRANCH  13  92
ATOM     92  CB  THR d   1      39.749  11.490 -13.143  0.00  0.00     0.060 C 
ATOM     93  H   THR d   1      39.103  10.718 -13.562  0.00  0.00     0.086 H 
BRANCH  92  94
ATOM     94  OG1 THR d   1      40.759  11.832 -14.100  0.00  0.00    -0.393 OA
ATOM     95  H   THR d   1      41.342  12.496 -13.725  0.00  0.00     0.210 HD
ENDBRANCH  92  94
BRANCH  92  96
ATOM     96  CG2 THR d   1      38.890  12.731 -12.827  0.00  0.00    -0.050 C 
ATOM     97  H   THR d   1      38.101  12.456 -12.127  0.00  0.00     0.031 H 
ATOM     98  H   THR d   1      39.519  13.503 -12.383  0.00  0.00     0.031 H 
ATOM     99  H   THR d   1      38.446  13.108 -13.748  0.00  0.00     0.031 H 
ENDBRANCH  92  96
ENDBRANCH  13  92
ENDBRANCH  10  13
ENDBRANCH   7   9
BRANCH   7 100
ATOM    100  CB  ALA d   1      41.720   6.772 -11.419  0.00  0.00    -0.049 C 
ATOM    101  H   ALA d   1      42.350   7.461 -10.856  0.00  0.00     0.030 H 
ATOM    102  H   ALA d   1      40.782   6.617 -10.886  0.00  0.00     0.030 H 
ATOM    103  H   ALA d   1      42.235   5.818 -11.535  0.00  0.00     0.030 H 
ENDBRANCH   7 100
ENDBRANCH   4   7
ENDBRANCH   1   3
BRANCH   1 104
ATOM    104  C   ARG d   1      39.948   3.353 -14.024  0.00  0.00     0.241 C 
ATOM    105  O   ARG d   1      40.641   2.934 -13.114  0.00  0.00    -0.271 OA
ATOM    106  N   M3L d   1      38.702   2.939 -14.204  0.00  0.00    -0.346 N 
ATOM    107  H   M3L d   1      38.160   3.302 -14.988  0.00  0.00     0.163 HD
BRANCH 106 108
ATOM    108  CA  M3L d   1      38.099   1.977 -13.301  0.00  0.00     0.089 C 
ATOM    109  H   M3L d   1      38.665   1.868 -12.376  0.00  0.00     0.087 H 
BRANCH 108 110
ATOM    110  CB  M3L d   1      36.724   2.489 -12.902  0.00  0.00    -0.038 C 
ATOM    111  H   M3L d   1      36.211   2.837 -13.799  0.00  0.00     0.036 H 
ATOM    112  H   M3L d   1      36.852   3.293 -12.178  0.00  0.00     0.036 H 
BRANCH 110 113
ATOM    113  CG  M3L d   1      35.863   1.364 -12.245  0.00  0.00    -0.061 C 
ATOM    114  H   M3L d   1      36.528   0.721 -11.669  0.00  0.00     0.033 H 
ATOM    115  H   M3L d   1      35.351   0.821 -13.039  0.00  0.00     0.033 H 
BRANCH 113 116
ATOM    116  CD  M3L d   1      34.809   1.925 -11.299  0.00  0.00    -0.042 C 
ATOM    117  H   M3L d   1      35.253   2.733 -10.717  0.00  0.00     0.035 H 
ATOM    118  H   M3L d   1      34.461   1.125 -10.646  0.00  0.00     0.035 H 
BRANCH 116 119
ATOM    119  CE  M3L d   1      33.623   2.475 -12.078  0.00  0.00     0.084 C 
ATOM    120  H   M3L d   1      33.209   1.659 -12.670  0.00  0.00     0.076 H 
ATOM    121  H   M3L d   1      33.983   3.305 -12.685  0.00  0.00     0.076 H 
BRANCH 119 122
ATOM    122  NZ  M3L d   1      32.564   2.981 -11.224  0.00  0.00    -0.079 N 
BRANCH 122 123
ATOM    123  CM1 M3L d   1      32.324   2.066 -10.109  0.00  0.00     0.067 C 
ATOM    124  H   M3L d   1      32.031   1.091 -10.498  0.00  0.00     0.068 H 
ATOM    125  H   M3L d   1      33.236   1.965  -9.521  0.00  0.00     0.068 H 
ATOM    126  H   M3L d   1      31.527   2.463  -9.480  0.00  0.00     0.068 H 
ENDBRANCH 122 123
BRANCH 122 127
ATOM    127  CM2 M3L d   1      31.317   3.061 -11.958  0.00  0.00     0.067 C 
ATOM    128  H   M3L d   1      31.439   3.732 -12.808  0.00  0.00     0.068 H 
ATOM    129  H   M3L d   1      31.042   2.068 -12.314  0.00  0.00     0.068 H 
ATOM    130  H   M3L d   1      30.535   3.442 -11.302  0.00  0.00     0.068 H 
ENDBRANCH 122 127
BRANCH 122 131
ATOM    131  CM3 M3L d   1      32.916   4.297 -10.750  0.00  0.00     0.067 C 
ATOM    132  H   M3L d   1      33.845   4.241 -10.183  0.00  0.00     0.068 H 
ATOM    133  H   M3L d   1      33.048   4.965 -11.601  0.00  0.00     0.068 H 
ATOM    134  H   M3L d   1      32.120   4.676 -10.109  0.00  0.00     0.068 H 
ENDBRANCH 122 131
ENDBRANCH 119 122
ENDBRANCH 116 119
ENDBRANCH 113 116
ENDBRANCH 110 113
ENDBRANCH 108 110
BRANCH 108 135
ATOM    135  C   M3L d   1      38.117   0.584 -13.945  0.00  0.00     0.241 C 
ATOM    136  O   M3L d   1      37.750   0.432 -15.123  0.00  0.00    -0.271 OA
ATOM    137  N   SER d   1      38.540  -0.421 -13.195  0.00  0.00    -0.344 N 
ATOM    138  H   SER d   1      38.800  -0.239 -12.226  0.00  0.00     0.163 HD
BRANCH 137 139
ATOM    139  CA  SER d   1      38.646  -1.786 -13.714  0.00  0.00     0.109 C 
ATOM    140  H   SER d   1      38.904  -1.693 -14.769  0.00  0.00     0.090 H 
BRANCH 139 141
ATOM    141  C   SER d   1      37.333  -2.553 -13.632  0.00  0.00     0.243 C 
ATOM    142  O   SER d   1      36.688  -2.591 -12.595  0.00  0.00    -0.271 OA
ATOM    143  N   THR d   1      36.959  -3.180 -14.740  0.00  0.00    -0.344 N 
ATOM    144  H   THR d   1      37.566  -3.134 -15.559  0.00  0.00     0.163 HD
BRANCH 143 145
ATOM    145  CA  THR d   1      35.722  -3.928 -14.831  0.00  0.00     0.113 C 
ATOM    146  H   THR d   1      35.149  -3.764 -13.919  0.00  0.00     0.091 H 
BRANCH 145 147
ATOM    147  C   THR d   1      35.987  -5.433 -14.928  0.00  0.00     0.243 C 
ATOM    148  O   THR d   1      35.098  -6.247 -14.682  0.00  0.00    -0.271 OA
ATOM    149  N   GLY d   1      37.218  -5.806 -15.260  0.00  0.00    -0.350 N 
ATOM    150  H   GLY d   1      37.916  -5.096 -15.481  0.00  0.00     0.163 HD
BRANCH 149 151
ATOM    151  CA  GLY d   1      37.583  -7.212 -15.313  0.00  0.00     0.069 C 
ATOM    152  H   GLY d   1      38.218  -7.366 -16.186  0.00  0.00     0.078 H 
ATOM    153  H   GLY d   1      36.666  -7.800 -15.364  0.00  0.00     0.078 H 
BRANCH 151 154
ATOM    154  C   GLY d   1      38.356  -7.647 -14.083  0.00  0.00     0.235 C 
ATOM    155  O   GLY d   1      38.317  -6.980 -13.058  0.00  0.00    -0.272 OA
ATOM    156  N   GLY d   1      39.062  -8.767 -14.182  0.00  0.00    -0.351 N 
ATOM    157  H   GLY d   1      39.025  -9.303 -15.049  0.00  0.00     0.163 HD
BRANCH 156 158
ATOM    158  CA  GLY d   1      39.884  -9.248 -13.091  0.00  0.00     0.069 C 
ATOM    159  H   GLY d   1      39.393  -9.006 -12.148  0.00  0.00     0.078 H 
ATOM    160  H   GLY d   1      40.862  -8.771 -13.152  0.00  0.00     0.078 H 
BRANCH 158 161
ATOM    161  C   GLY d   1      40.066 -10.745 -13.175  0.00  0.00     0.236 C 
ATOM    162  O   GLY d   1      39.327 -11.424 -13.871  0.00  0.00    -0.272 OA
ATOM    163  N   LYS d   1      41.053 -11.265 -12.462  0.00  0.00    -0.346 N 
ATOM    164  H   LYS d   1      41.621 -10.650 -11.879  0.00  0.00     0.163 HD
BRANCH 163 165
ATOM    165  CA  LYS d   1      41.351 -12.694 -12.487  0.00  0.00     0.089 C 
ATOM    166  H   LYS d   1      41.835 -12.905 -13.441  0.00  0.00     0.087 H 
BRANCH 165 167
ATOM    167  C   LYS d   1      40.089 -13.553 -12.401  0.00  0.00     0.241 C 
ATOM    168  O   LYS d   1      39.233 -13.313 -11.565  0.00  0.00    -0.271 OA
ATOM    169  N   ALA d   1      39.970 -14.555 -13.265  0.00  0.00    -0.345 N 
ATOM    170  H   ALA d   1      40.605 -14.617 -14.061  0.00  0.00     0.163 HD
BRANCH 169 171
ATOM    171  CA  ALA d   1      38.939 -15.565 -13.081  0.00  0.00     0.093 C 
ATOM    172  H   ALA d   1      38.089 -15.099 -12.583  0.00  0.00     0.089 H 
BRANCH 171 173
ATOM    173  C   ALA d   1      39.474 -16.694 -12.217  0.00  0.00     0.196 C 
ATOM    174  O   ALA d   1      39.025 -16.888 -11.090  0.00  0.00    -0.646 OA
ATOM    175  O1  ALA d   1      40.388 -17.439 -12.661  0.00  0.00    -0.646 OA
ENDBRANCH 171 173
BRANCH 171 176
ATOM    176  CB  ALA d   1      38.464 -16.103 -14.398  0.00  0.00    -0.048 C 
ATOM    177  H   ALA d   1      38.051 -15.289 -14.994  0.00  0.00     0.030 H 
ATOM    178  H   ALA d   1      39.303 -16.554 -14.928  0.00  0.00     0.030 H 
ATOM    179  H   ALA d   1      37.694 -16.855 -14.225  0.00  0.00     0.030 H 
ENDBRANCH 171 176
ENDBRANCH 169 171
ENDBRANCH 165 167
BRANCH 165 180
ATOM    180  CB  LYS d   1      42.279 -13.050 -11.321  0.00  0.00    -0.038 C 
ATOM    181  H   LYS d   1      43.118 -12.354 -11.343  0.00  0.00     0.036 H 
ATOM    182  H   LYS d   1      42.579 -14.091 -11.444  0.00  0.00     0.036 H 
BRANCH 180 183
ATOM    183  CG  LYS d   1      41.606 -12.921  -9.951  0.00  0.00    -0.061 C 
ATOM    184  H   LYS d   1      40.695 -13.519  -9.969  0.00  0.00     0.033 H 
ATOM    185  H   LYS d   1      41.414 -11.863  -9.772  0.00  0.00     0.033 H 
BRANCH 183 186
ATOM    186  CD  LYS d   1      42.485 -13.439  -8.805  0.00  0.00    -0.043 C 
ATOM    187  H   LYS d   1      43.469 -12.980  -8.898  0.00  0.00     0.035 H 
ATOM    188  H   LYS d   1      42.530 -14.526  -8.876  0.00  0.00     0.035 H 
BRANCH 186 189
ATOM    189  CE  LYS d   1      41.912 -13.071  -7.419  0.00  0.00     0.080 C 
ATOM    190  H   LYS d   1      41.783 -11.989  -7.402  0.00  0.00     0.075 H 
ATOM    191  H   LYS d   1      42.609 -13.452  -6.673  0.00  0.00     0.075 H 
BRANCH 189 192
ATOM    192  NZ  LYS d   1      40.571 -13.680  -7.122  0.00  0.00    -0.079 N 
ATOM    193  H   LYS d   1      40.265 -13.389  -6.193  0.00  0.00     0.274 HD
ATOM    194  H   LYS d   1      39.895 -13.366  -7.818  0.00  0.00     0.274 HD
ATOM    195  H   LYS d   1      40.646 -14.697  -7.154  0.00  0.00     0.274 HD
ENDBRANCH 189 192
ENDBRANCH 186 189
ENDBRANCH 183 186
ENDBRANCH 180 183
ENDBRANCH 165 180
ENDBRANCH 163 165
ENDBRANCH 158 161
ENDBRANCH 156 158
ENDBRANCH 151 154
ENDBRANCH 149 151
ENDBRANCH 145 147
BRANCH 145 196
ATOM    196  CB  THR d   1      34.895  -3.427 -16.024  0.00  0.00     0.060 C 
ATOM    197  H   THR d   1      34.085  -4.131 -16.216  0.00  0.00     0.086 H 
BRANCH 196 198
ATOM    198  OG1 THR d   1      35.746  -3.300 -17.165  0.00  0.00    -0.393 OA
ATOM    199  H   THR d   1      35.232  -2.987 -17.913  0.00  0.00     0.210 HD
ENDBRANCH 196 198
BRANCH 196 200
ATOM    200  CG2 THR d   1      34.353  -2.054 -15.714  0.00  0.00    -0.050 C 
ATOM    201  H   THR d   1      33.721  -2.106 -14.827  0.00  0.00     0.031 H 
ATOM    202  H   THR d   1      35.182  -1.370 -15.531  0.00  0.00     0.031 H 
ATOM    203  H   THR d   1      33.766  -1.697 -16.560  0.00  0.00     0.031 H 
ENDBRANCH 196 200
ENDBRANCH 145 196
ENDBRANCH 143 145
ENDBRANCH 139 141
BRANCH 139 204
ATOM    204  CB  SER d   1      39.744  -2.560 -12.985  0.00  0.00     0.044 C 
ATOM    205  H   SER d   1      39.721  -3.601 -13.306  0.00  0.00     0.077 H 
ATOM    206  H   SER d   1      39.574  -2.494 -11.910  0.00  0.00     0.077 H 
BRANCH 204 207
ATOM    207  OG  SER d   1      41.016  -2.008 -13.289  0.00  0.00    -0.398 OA
ATOM    208  H   SER d   1      41.040  -1.089 -13.011  0.00  0.00     0.209 HD
ENDBRANCH 204 207
ENDBRANCH 139 204
ENDBRANCH 137 139
ENDBRANCH 108 135
ENDBRANCH 106 108
ENDBRANCH   1 104
BRANCH   1 209
ATOM    209  CB  ARG d   1      41.488   3.763 -16.013  0.00  0.00    -0.036 C 
ATOM    210  H   ARG d   1      41.962   2.927 -15.499  0.00  0.00     0.036 H 
ATOM    211  H   ARG d   1      42.159   4.559 -16.336  0.00  0.00     0.036 H 
BRANCH 209 212
ATOM    212  CG  ARG d   1      40.852   3.189 -17.281  0.00  0.00    -0.048 C 
ATOM    213  H   ARG d   1      40.090   3.884 -17.636  0.00  0.00     0.035 H 
ATOM    214  H   ARG d   1      40.415   2.219 -17.045  0.00  0.00     0.035 H 
BRANCH 212 215
ATOM    215  CD  ARG d   1      41.895   3.003 -18.379  0.00  0.00     0.009 C 
ATOM    216  H   ARG d   1      41.422   2.487 -19.215  0.00  0.00     0.064 H 
ATOM    217  H   ARG d   1      42.727   2.433 -17.966  0.00  0.00     0.064 H 
BRANCH 215 218
ATOM    218  NE  ARG d   1      42.412   4.282 -18.864  0.00  0.00    -0.227 N 
ATOM    219  CZ  ARG d   1      41.974   4.893 -19.962  0.00  0.00     0.665 C 
ATOM    220  NH1 ARG d   1      41.013   4.342 -20.688  0.00  0.00    -0.235 N 
ATOM    221  NH2 ARG d   1      42.499   6.051 -20.339  0.00  0.00    -0.235 N 
ATOM    222  H   ARG d   1      40.609   3.449 -20.405  0.00  0.00     0.174 HD
ATOM    223  H   ARG d   1      40.677   4.810 -21.530  0.00  0.00     0.174 HD
ATOM    224  H   ARG d   1      43.242   6.478 -19.786  0.00  0.00     0.174 HD
ATOM    225  H   ARG d   1      42.159   6.515 -21.182  0.00  0.00     0.174 HD
ATOM    226  H   ARG d   1      43.153   4.733 -18.328  0.00  0.00     0.177 HD
ENDBRANCH 215 218
ENDBRANCH 212 215
ENDBRANCH 209 212
ENDBRANCH   1 209
TORSDOF 70
