REMARK  10 active torsions:
REMARK  status: ('A' for Active; 'I' for Inactive)
REMARK    1  A    between atoms: O3B_8  and  PG_1 
REMARK    2  A    between atoms: PB_5  and  O3B_8 
REMARK    3  A    between atoms: O3A_12  and  PB_5 
REMARK    4  A    between atoms: PA_9  and  O3A_12 
REMARK    5  A    between atoms: PA_9  and  O5'_13 
REMARK    6  A    between atoms: O5'_13  and  C5'_14 
REMARK    7  A    between atoms: C5'_14  and  C4'_15 
REMARK    8  A    between atoms: C3'_17  and  O3'_18 
REMARK    9  A    between atoms: C2'_19  and  O2'_20 
REMARK   10  A    between atoms: C1'_21  and  N9_22 
ROOT
ATOM      1  C4' ATP d   1     -37.170 -14.629 -18.667  0.00  0.00     0.089 C 
ATOM      2  O4' ATP d   1     -37.668 -13.496 -19.390  0.00  0.00    -0.353 OA
ATOM      3  C3' ATP d   1     -36.947 -14.185 -17.230  0.00  0.00     0.091 C 
ATOM      4  C2' ATP d   1     -37.506 -12.778 -17.161  0.00  0.00     0.105 C 
ATOM      5  C1' ATP d   1     -37.568 -12.308 -18.606  0.00  0.00     0.139 C 
ATOM      6  H3  ATP d   1     -36.213 -14.953 -19.102  0.00  0.00     0.090 H 
ATOM      7  H4  ATP d   1     -37.472 -14.847 -16.526  0.00  0.00     0.091 H 
ATOM      8  H6  ATP d   1     -38.514 -12.792 -16.721  0.00  0.00     0.093 H 
ATOM      9  H8  ATP d   1     -36.661 -11.744 -18.870  0.00  0.00     0.122 H 
ENDROOT
BRANCH   1  10
ATOM     10  C5' ATP d   1     -38.161 -15.785 -18.744  0.00  0.00     0.058 C 
ATOM     11  H1  ATP d   1     -39.078 -15.447 -19.248  0.00  0.00     0.079 H 
ATOM     12  H2  ATP d   1     -37.713 -16.613 -19.314  0.00  0.00     0.079 H 
BRANCH  10  13
ATOM     13  O5' ATP d   1     -38.485 -16.240 -17.412  0.00  0.00    -0.287 OA
BRANCH  13  14
ATOM     14  PA  ATP d   1     -39.980 -16.107 -16.789  0.00  0.00     0.417 P 
ATOM     15  O1A ATP d   1     -39.868 -15.467 -15.409  0.00  0.00    -0.624 OA
ATOM     16  O2A ATP d   1     -40.663 -17.481 -16.928  0.00  0.00    -0.624 OA
BRANCH  14  17
ATOM     17  O3A ATP d   1     -40.691 -15.036 -17.753  0.00  0.00    -0.180 OA
BRANCH  17  18
ATOM     18  PB  ATP d   1     -41.579 -15.596 -18.964  0.00  0.00     0.428 P 
ATOM     19  O1B ATP d   1     -43.032 -15.343 -18.627  0.00  0.00    -0.624 OA
ATOM     20  O2B ATP d   1     -41.084 -16.977 -19.343  0.00  0.00    -0.624 OA
BRANCH  18  21
ATOM     21  O3B ATP d   1     -41.181 -14.625 -20.173  0.00  0.00    -0.173 OA
BRANCH  21  22
ATOM     22  PG  ATP d   1     -41.566 -15.060 -21.677  0.00  0.00     0.431 P 
ATOM     23  O1G ATP d   1     -42.632 -16.162 -21.560  0.00  0.00    -0.616 OA
ATOM     24  O2G ATP d   1     -40.272 -15.553 -22.279  0.00  0.00    -0.616 OA
ATOM     25  O3G ATP d   1     -42.097 -13.792 -22.301  0.00  0.00    -0.616 OA
ENDBRANCH  21  22
ENDBRANCH  18  21
ENDBRANCH  17  18
ENDBRANCH  14  17
ENDBRANCH  13  14
ENDBRANCH  10  13
ENDBRANCH   1  10
BRANCH   3  26
ATOM     26  O3' ATP d   1     -35.540 -14.192 -16.949  0.00  0.00    -0.390 OA
ATOM     27  H5  ATP d   1     -35.396 -13.915 -16.052  0.00  0.00     0.210 HD
ENDBRANCH   3  26
BRANCH   5  28
ATOM     28  N9  ATP d   1     -38.764 -11.458 -18.813  0.00  0.00    -0.294 N 
ATOM     29  C8  ATP d   1     -40.027 -11.809 -18.505  0.00  0.00     0.071 A 
ATOM     30  N7  ATP d   1     -40.901 -10.819 -18.806  0.00  0.00    -0.236 NA
ATOM     31  H9  ATP d   1     -40.310 -12.766 -18.070  0.00  0.00     0.144 H 
ATOM     32  C5  ATP d   1     -40.190  -9.803 -19.323  0.00  0.00     0.149 A 
ATOM     33  C6  ATP d   1     -40.502  -8.454 -19.848  0.00  0.00     0.155 A 
ATOM     34  C4  ATP d   1     -38.778 -10.225 -19.328  0.00  0.00     0.167 A 
ATOM     35  N6  ATP d   1     -41.780  -7.998 -19.876  0.00  0.00    -0.382 N 
ATOM     36  N1  ATP d   1     -39.471  -7.700 -20.297  0.00  0.00    -0.222 NA
ATOM     37  H10 ATP d   1     -41.983  -7.058 -20.244  0.00  0.00     0.157 HD
ATOM     38  H11 ATP d   1     -42.547  -8.592 -19.529  0.00  0.00     0.157 HD
ATOM     39  C2  ATP d   1     -38.201  -8.147 -20.271  0.00  0.00     0.091 A 
ATOM     40  N3  ATP d   1     -37.845  -9.363 -19.808  0.00  0.00    -0.222 NA
ATOM     41  H12 ATP d   1     -37.421  -7.493 -20.643  0.00  0.00     0.146 H 
ENDBRANCH   5  28
BRANCH   4  42
ATOM     42  O2' ATP d   1     -36.671 -11.918 -16.382  0.00  0.00    -0.388 OA
ATOM     43  H7  ATP d   1     -35.806 -11.879 -16.773  0.00  0.00     0.210 HD
ENDBRANCH   4  42
TORSDOF 10
