REMARK  20 active torsions:
REMARK  status: ('A' for Active; 'I' for Inactive)
REMARK    1  A    between atoms: C2_5  and  C5_12 
REMARK    2  A    between atoms: C6_14  and  N2_6 
REMARK    3  A    between atoms: C9_20  and  O5_13 
REMARK    4  A    between atoms: O5_13  and  SI1_36 
REMARK    5  A    between atoms: O6_15  and  C10_21 
REMARK    6  A    between atoms: SI2_37  and  O6_15 
REMARK    7  A    between atoms: C10_21  and  C7_16 
REMARK    8  A    between atoms: C11_22  and  N3_38 
REMARK    9  A    between atoms: C13_24  and  C16_27 
REMARK   10  A    between atoms: C13_24  and  C17_28 
REMARK   11  A    between atoms: C13_24  and  C18_29 
REMARK   12  A    between atoms: SI1_36  and  C13_24 
REMARK   13  A    between atoms: SI1_36  and  C14_25 
REMARK   14  A    between atoms: SI1_36  and  C15_26 
REMARK   15  A    between atoms: C19_30  and  C22_33 
REMARK   16  A    between atoms: C19_30  and  C23_34 
REMARK   17  A    between atoms: C19_30  and  C24_35 
REMARK   18  A    between atoms: C19_30  and  SI2_37 
REMARK   19  A    between atoms: SI2_37  and  C20_31 
REMARK   20  A    between atoms: SI2_37  and  C21_32 
ROOT
ATOM      1  S1  QO9 d   1      53.203 -29.209  36.386  0.00  0.00     0.291 S 
ATOM      2  O3  QO9 d   1      50.771 -28.488  40.002  0.00  0.00    -0.352 OA
ATOM      3  O4  QO9 d   1      52.328 -29.392  37.747  0.00  0.00    -0.249 OA
ATOM      4  C6  QO9 d   1      50.180 -29.653  39.448  0.00  0.00     0.144 C 
ATOM      5  C7  QO9 d   1      51.147 -27.623  38.950  0.00  0.00     0.104 C 
ATOM      6  O7  QO9 d   1      54.581 -28.683  36.683  0.00  0.00    -0.194 OA
ATOM      7  C8  QO9 d   1      51.175 -28.504  37.695  0.00  0.00     0.183 A 
ATOM      8  O8  QO9 d   1      53.337 -30.490  35.589  0.00  0.00    -0.194 OA
ATOM      9  C9  QO9 d   1      49.919 -29.349  37.939  0.00  0.00     0.154 C 
ATOM     10  C11 QO9 d   1      51.197 -27.711  36.375  0.00  0.00     0.058 A 
ATOM     11  C12 QO9 d   1      52.341 -28.066  35.566  0.00  0.00     0.058 A 
ATOM     12  H6  QO9 d   1      50.904 -30.480  39.493  0.00  0.00     0.123 H 
ATOM     13  H7  QO9 d   1      52.154 -27.218  39.125  0.00  0.00     0.092 H 
ATOM     14  H8  QO9 d   1      48.973 -28.823  37.743  0.00  0.00     0.100 H 
ATOM     15  H11 QO9 d   1      52.590 -27.653  34.590  0.00  0.00     0.108 H 
ENDROOT
BRANCH   5  16
ATOM     16  C10 QO9 d   1      50.136 -26.436  38.918  0.00  0.00     0.080 C 
ATOM     17  H9  QO9 d   1      50.675 -25.504  38.690  0.00  0.00     0.083 H 
ATOM     18  H10 QO9 d   1      49.380 -26.622  38.141  0.00  0.00     0.083 H 
BRANCH  16  19
ATOM     19  O6  QO9 d   1      49.504 -26.314  40.159  0.00  0.00    -0.238 OA
BRANCH  19  20
ATOM     20 SI2  QO9 d   1      48.082 -25.465  40.141  0.00  0.00     0.000 Si
BRANCH  20  21
ATOM     21  C19 QO9 d   1      48.375 -23.599  39.871  0.00  0.00    -0.045 C 
BRANCH  21  22
ATOM     22  C22 QO9 d   1      47.098 -22.835  40.258  0.00  0.00    -0.069 C 
ATOM     23  H33 QO9 d   1      47.255 -21.757  40.106  0.00  0.00     0.028 H 
ATOM     24  H34 QO9 d   1      46.863 -23.026  41.316  0.00  0.00     0.028 H 
ATOM     25  H35 QO9 d   1      46.262 -23.175  39.629  0.00  0.00     0.028 H 
ENDBRANCH  21  22
BRANCH  21  26
ATOM     26  C23 QO9 d   1      49.531 -23.117  40.782  0.00  0.00    -0.069 C 
ATOM     27  H36 QO9 d   1      49.698 -22.041  40.624  0.00  0.00     0.028 H 
ATOM     28  H37 QO9 d   1      50.449 -23.671  40.534  0.00  0.00     0.028 H 
ATOM     29  H38 QO9 d   1      49.268 -23.297  41.835  0.00  0.00     0.028 H 
ENDBRANCH  21  26
BRANCH  21  30
ATOM     30  C24 QO9 d   1      48.720 -23.311  38.401  0.00  0.00    -0.069 C 
ATOM     31  H39 QO9 d   1      48.885 -22.232  38.268  0.00  0.00     0.028 H 
ATOM     32  H40 QO9 d   1      47.889 -23.637  37.759  0.00  0.00     0.028 H 
ATOM     33  H41 QO9 d   1      49.633 -23.858  38.125  0.00  0.00     0.028 H 
ENDBRANCH  21  30
ENDBRANCH  20  21
BRANCH  20  34
ATOM     34  C20 QO9 d   1      46.820 -26.088  38.894  0.00  0.00    -0.080 C 
ATOM     35  H27 QO9 d   1      45.912 -25.470  38.951  0.00  0.00     0.027 H 
ATOM     36  H28 QO9 d   1      46.566 -27.134  39.121  0.00  0.00     0.027 H 
ATOM     37  H29 QO9 d   1      47.244 -26.025  37.881  0.00  0.00     0.027 H 
ENDBRANCH  20  34
BRANCH  20  38
ATOM     38  C21 QO9 d   1      47.341 -25.718  41.836  0.00  0.00    -0.080 C 
ATOM     39  H30 QO9 d   1      46.385 -25.179  41.902  0.00  0.00     0.027 H 
ATOM     40  H31 QO9 d   1      48.033 -25.333  42.600  0.00  0.00     0.027 H 
ATOM     41  H32 QO9 d   1      47.169 -26.791  42.005  0.00  0.00     0.027 H 
ENDBRANCH  20  38
ENDBRANCH  19  20
ENDBRANCH  16  19
ENDBRANCH   5  16
BRANCH   4  42
ATOM     42  N2  QO9 d   1      49.006 -30.053  40.305  0.00  0.00    -0.290 N 
ATOM     43  C3  QO9 d   1      47.901 -29.221  40.478  0.00  0.00    -0.004 A 
ATOM     44  C2  QO9 d   1      46.803 -29.572  41.313  0.00  0.00     0.008 A 
ATOM     45  H2  QO9 d   1      47.877 -28.266  39.955  0.00  0.00     0.112 H 
ATOM     46  C1  QO9 d   1      46.895 -30.814  41.996  0.00  0.00     0.189 A 
ATOM     47  N1  QO9 d   1      47.992 -31.633  41.807  0.00  0.00    -0.298 N 
ATOM     48  O1  QO9 d   1      45.905 -31.223  42.829  0.00  0.00    -0.171 OA
ATOM     49  C4  QO9 d   1      49.040 -31.271  40.992  0.00  0.00     0.262 A 
ATOM     50  H1  QO9 d   1      48.025 -32.515  42.277  0.00  0.00     0.171 HD
ATOM     51  O2  QO9 d   1      50.089 -32.112  40.864  0.00  0.00    -0.151 OA
BRANCH  44  52
ATOM     52  C5  QO9 d   1      45.715 -28.737  41.482  0.00  0.00    -0.046 C 
ATOM     53  H3  QO9 d   1      44.993 -29.209  42.165  0.00  0.00     0.033 H 
ATOM     54  H4  QO9 d   1      45.235 -28.558  40.508  0.00  0.00     0.033 H 
ATOM     55  H5  QO9 d   1      46.050 -27.779  41.907  0.00  0.00     0.033 H 
ENDBRANCH  44  52
ENDBRANCH   4  42
BRANCH   9  56
ATOM     56  O5  QO9 d   1      50.025 -30.543  37.185  0.00  0.00    -0.227 OA
BRANCH  56  57
ATOM     57 SI1  QO9 d   1      48.716 -30.908  36.228  0.00  0.00     0.000 Si
BRANCH  57  58
ATOM     58  C13 QO9 d   1      48.875 -32.767  35.817  0.00  0.00    -0.045 C 
BRANCH  58  59
ATOM     59  C16 QO9 d   1      47.643 -33.242  35.042  0.00  0.00    -0.069 C 
ATOM     60  H18 QO9 d   1      47.745 -34.313  34.811  0.00  0.00     0.028 H 
ATOM     61  H19 QO9 d   1      47.556 -32.672  34.105  0.00  0.00     0.028 H 
ATOM     62  H20 QO9 d   1      46.742 -33.083  35.653  0.00  0.00     0.028 H 
ENDBRANCH  58  59
BRANCH  58  63
ATOM     63  C17 QO9 d   1      50.137 -32.984  34.957  0.00  0.00    -0.069 C 
ATOM     64  H21 QO9 d   1      50.237 -34.053  34.715  0.00  0.00     0.028 H 
ATOM     65  H22 QO9 d   1      51.024 -32.650  35.516  0.00  0.00     0.028 H 
ATOM     66  H23 QO9 d   1      50.051 -32.404  34.026  0.00  0.00     0.028 H 
ENDBRANCH  58  63
BRANCH  58  67
ATOM     67  C18 QO9 d   1      49.007 -33.581  37.124  0.00  0.00    -0.069 C 
ATOM     68  H24 QO9 d   1      49.098 -34.650  36.882  0.00  0.00     0.028 H 
ATOM     69  H25 QO9 d   1      48.115 -33.421  37.747  0.00  0.00     0.028 H 
ATOM     70  H26 QO9 d   1      49.902 -33.251  37.672  0.00  0.00     0.028 H 
ENDBRANCH  58  67
ENDBRANCH  57  58
BRANCH  57  71
ATOM     71  C14 QO9 d   1      47.082 -30.593  37.100  0.00  0.00    -0.080 C 
ATOM     72  H12 QO9 d   1      46.251 -30.849  36.426  0.00  0.00     0.027 H 
ATOM     73  H13 QO9 d   1      47.014 -29.531  37.378  0.00  0.00     0.027 H 
ATOM     74  H14 QO9 d   1      47.024 -31.214  38.006  0.00  0.00     0.027 H 
ENDBRANCH  57  71
BRANCH  57  75
ATOM     75  C15 QO9 d   1      48.742 -29.914  34.644  0.00  0.00    -0.080 C 
ATOM     76  H15 QO9 d   1      47.866 -30.176  34.032  0.00  0.00     0.027 H 
ATOM     77  H16 QO9 d   1      49.661 -30.141  34.084  0.00  0.00     0.027 H 
ATOM     78  H17 QO9 d   1      48.714 -28.841  34.884  0.00  0.00     0.027 H 
ENDBRANCH  57  75
ENDBRANCH  56  57
ENDBRANCH   9  56
BRANCH  10  79
ATOM     79  N3  QO9 d   1      50.252 -26.749  35.960  0.00  0.00    -0.399 N 
ATOM     80  H42 QO9 d   1      50.364 -26.276  35.052  0.00  0.00     0.156 HD
ATOM     81  H43 QO9 d   1      49.450 -26.520  36.565  0.00  0.00     0.156 HD
ENDBRANCH  10  79
TORSDOF 20
