REMARK  8 active torsions:
REMARK  status: ('A' for Active; 'I' for Inactive)
REMARK    1  A    between atoms: C1_1  and  O11_11 
REMARK    2  A    between atoms: C2_2  and  O12_12 
REMARK    3  A    between atoms: C7_7  and  N14_14 
REMARK    4  A    between atoms: O11_11  and  C13_13 
REMARK    5  A    between atoms: O12_12  and  C26_26 
REMARK    6  A    between atoms: C18_18  and  C20_20 
REMARK    7  A    between atoms: C26_26  and  C27_27 
REMARK    8  A    between atoms: C27_27  and  C28_28 
ROOT
ATOM      1  C1  PFR d   1      13.169  16.432  42.142  0.00  0.00     0.103 A 
ATOM      2  C2  PFR d   1      12.432  17.333  41.349  0.00  0.00     0.103 A 
ATOM      3  C3  PFR d   1      11.929  18.482  41.912  0.00  0.00    -0.033 A 
ATOM      4  C4  PFR d   1      13.312  16.667  43.511  0.00  0.00    -0.019 A 
ATOM      5  C5  PFR d   1      12.788  17.827  44.091  0.00  0.00     0.074 A 
ATOM      6  C6  PFR d   1      12.082  18.765  43.295  0.00  0.00     0.036 A 
ATOM      7  C7  PFR d   1      11.560  19.944  43.933  0.00  0.00     0.119 A 
ATOM      8  N8  PFR d   1      11.747  20.068  45.240  0.00  0.00    -0.229 NA
ATOM      9  C9  PFR d   1      12.412  19.152  45.935  0.00  0.00     0.089 A 
ATOM     10  N10 PFR d   1      12.920  18.070  45.398  0.00  0.00    -0.241 NA
ATOM     11  H1  PFR d   1      11.402  19.191  41.283  0.00  0.00     0.089 H 
ATOM     12  H2  PFR d   1      13.833  15.945  44.129  0.00  0.00     0.091 H 
ATOM     13  H3  PFR d   1      12.541  19.307  47.000  0.00  0.00     0.146 H 
ENDROOT
BRANCH   7  14
ATOM     14  N14 PFR d   1      10.884  20.922  43.203  0.00  0.00    -0.266 NA
ATOM     15  C15 PFR d   1      10.117  21.915  43.979  0.00  0.00    -0.015 C 
ATOM     16  C16 PFR d   1       9.349  22.913  43.075  0.00  0.00    -0.053 C 
ATOM     17  H7  PFR d   1      10.814  22.480  44.615  0.00  0.00     0.056 H 
ATOM     18  H8  PFR d   1       9.392  21.383  44.612  0.00  0.00     0.056 H 
ATOM     19  C17 PFR d   1      10.093  23.357  41.782  0.00  0.00    -0.056 C 
ATOM     20  H9  PFR d   1       9.136  23.814  43.669  0.00  0.00     0.034 H 
ATOM     21  H10 PFR d   1       8.402  22.439  42.775  0.00  0.00     0.034 H 
ATOM     22  C18 PFR d   1      11.056  22.256  41.257  0.00  0.00    -0.017 C 
ATOM     23  H11 PFR d   1      10.676  24.264  42.001  0.00  0.00     0.034 H 
ATOM     24  H12 PFR d   1       9.349  23.579  41.003  0.00  0.00     0.034 H 
ATOM     25  C19 PFR d   1      11.868  21.671  42.404  0.00  0.00    -0.008 C 
ATOM     26  H13 PFR d   1      10.428  21.446  40.858  0.00  0.00     0.049 H 
ATOM     27  H14 PFR d   1      12.652  21.000  42.023  0.00  0.00     0.057 H 
ATOM     28  H15 PFR d   1      12.328  22.471  43.003  0.00  0.00     0.057 H 
BRANCH  22  29
ATOM     29  C20 PFR d   1      11.938  22.721  40.113  0.00  0.00    -0.053 A 
ATOM     30  C21 PFR d   1      11.925  21.965  38.946  0.00  0.00    -0.076 A 
ATOM     31  C22 PFR d   1      12.680  22.359  37.880  0.00  0.00    -0.082 A 
ATOM     32  H16 PFR d   1      11.319  21.068  38.884  0.00  0.00     0.084 H 
ATOM     33  C23 PFR d   1      13.452  23.515  37.957  0.00  0.00    -0.083 A 
ATOM     34  H17 PFR d   1      12.679  21.770  36.970  0.00  0.00     0.083 H 
ATOM     35  C24 PFR d   1      13.472  24.274  39.098  0.00  0.00    -0.082 A 
ATOM     36  H18 PFR d   1      14.046  23.819  37.102  0.00  0.00     0.083 H 
ATOM     37  C25 PFR d   1      12.705  23.878  40.186  0.00  0.00    -0.076 A 
ATOM     38  H19 PFR d   1      14.078  25.171  39.151  0.00  0.00     0.083 H 
ATOM     39  H20 PFR d   1      12.704  24.472  41.093  0.00  0.00     0.084 H 
ENDBRANCH  22  29
ENDBRANCH   7  14
BRANCH   2  40
ATOM     40  O12 PFR d   1      12.329  17.053  39.993  0.00  0.00    -0.348 OA
BRANCH  40  41
ATOM     41  C26 PFR d   1      11.008  17.067  39.445  0.00  0.00     0.031 C 
ATOM     42  H21 PFR d   1      10.292  17.533  40.138  0.00  0.00     0.075 H 
ATOM     43  H22 PFR d   1      10.668  16.051  39.194  0.00  0.00     0.075 H 
BRANCH  41  44
ATOM     44  C27 PFR d   1      11.197  17.907  38.201  0.00  0.00    -0.004 C 
ATOM     45  H23 PFR d   1      12.025  17.465  37.627  0.00  0.00     0.045 H 
ATOM     46  H24 PFR d   1      11.476  18.920  38.526  0.00  0.00     0.045 H 
BRANCH  44  47
ATOM     47  C28 PFR d   1      10.026  18.039  37.273  0.00  0.00     0.036 A 
ATOM     48  N29 PFR d   1       9.380  16.972  36.870  0.00  0.00    -0.266 NA
ATOM     49  C30 PFR d   1       8.349  17.035  36.036  0.00  0.00     0.002 A 
ATOM     50  C31 PFR d   1       7.883  18.239  35.514  0.00  0.00    -0.066 A 
ATOM     51  H25 PFR d   1       7.851  16.115  35.751  0.00  0.00     0.114 H 
ATOM     52  C32 PFR d   1       8.574  19.399  35.924  0.00  0.00    -0.080 A 
ATOM     53  H26 PFR d   1       7.040  18.282  34.834  0.00  0.00     0.085 H 
ATOM     54  C33 PFR d   1       9.657  19.287  36.800  0.00  0.00    -0.059 A 
ATOM     55  H27 PFR d   1       8.266  20.373  35.561  0.00  0.00     0.083 H 
ATOM     56  H28 PFR d   1      10.204  20.171  37.107  0.00  0.00     0.086 H 
ENDBRANCH  44  47
ENDBRANCH  41  44
ENDBRANCH  40  41
ENDBRANCH   2  40
BRANCH   1  57
ATOM     57  O11 PFR d   1      13.628  15.296  41.497  0.00  0.00    -0.353 OA
BRANCH  57  58
ATOM     58  C13 PFR d   1      14.803  14.726  42.035  0.00  0.00     0.010 C 
ATOM     59  H4  PFR d   1      15.078  13.835  41.452  0.00  0.00     0.066 H 
ATOM     60  H5  PFR d   1      14.625  14.439  43.082  0.00  0.00     0.066 H 
ATOM     61  H6  PFR d   1      15.621  15.460  41.990  0.00  0.00     0.066 H 
ENDBRANCH  57  58
ENDBRANCH   1  57
TORSDOF 8
