REMARK  8 active torsions:
REMARK  status: ('A' for Active; 'I' for Inactive)
REMARK    1  A    between atoms: C1_1  and  O23_23 
REMARK    2  A    between atoms: C2_2  and  O24_24 
REMARK    3  A    between atoms: C7_7  and  N11_11 
REMARK    4  A    between atoms: C15_15  and  C17_17 
REMARK    5  A    between atoms: O23_23  and  C25_25 
REMARK    6  A    between atoms: O24_24  and  C26_26 
REMARK    7  A    between atoms: C26_26  and  C27_27 
REMARK    8  A    between atoms: C27_27  and  C28_28 
ROOT
ATOM      1  C1  PFW d   1      13.344  16.337  43.130  0.00  0.00     0.103 A 
ATOM      2  C2  PFW d   1      12.517  17.250  42.448  0.00  0.00     0.103 A 
ATOM      3  C3  PFW d   1      11.991  18.347  43.087  0.00  0.00    -0.033 A 
ATOM      4  C4  PFW d   1      13.609  16.522  44.487  0.00  0.00    -0.019 A 
ATOM      5  C5  PFW d   1      13.060  17.645  45.152  0.00  0.00     0.074 A 
ATOM      6  C6  PFW d   1      12.250  18.589  44.455  0.00  0.00     0.036 A 
ATOM      7  C7  PFW d   1      11.726  19.729  45.168  0.00  0.00     0.119 A 
ATOM      8  N8  PFW d   1      12.013  19.813  46.468  0.00  0.00    -0.229 NA
ATOM      9  C9  PFW d   1      12.788  18.918  47.073  0.00  0.00     0.089 A 
ATOM     10  N10 PFW d   1      13.293  17.872  46.457  0.00  0.00    -0.241 NA
ATOM     11  H1  PFW d   1      11.367  19.038  42.532  0.00  0.00     0.089 H 
ATOM     12  H2  PFW d   1      14.228  15.814  45.026  0.00  0.00     0.091 H 
ATOM     13  H3  PFW d   1      13.014  19.057  48.124  0.00  0.00     0.146 H 
ENDROOT
BRANCH   7  14
ATOM     14  N11 PFW d   1      10.960  20.705  44.533  0.00  0.00    -0.266 NA
ATOM     15  C12 PFW d   1      10.452  21.746  45.461  0.00  0.00    -0.015 C 
ATOM     16  C13 PFW d   1       9.697  22.871  44.710  0.00  0.00    -0.053 C 
ATOM     17  H4  PFW d   1      11.303  22.188  46.000  0.00  0.00     0.056 H 
ATOM     18  H5  PFW d   1       9.766  21.276  46.181  0.00  0.00     0.056 H 
ATOM     19  C14 PFW d   1      10.513  23.461  43.538  0.00  0.00    -0.056 C 
ATOM     20  H6  PFW d   1       9.471  23.678  45.422  0.00  0.00     0.034 H 
ATOM     21  H7  PFW d   1       8.758  22.459  44.312  0.00  0.00     0.034 H 
ATOM     22  C15 PFW d   1      11.137  22.321  42.689  0.00  0.00    -0.017 C 
ATOM     23  H8  PFW d   1      11.316  24.096  43.939  0.00  0.00     0.034 H 
ATOM     24  H9  PFW d   1       9.850  24.066  42.902  0.00  0.00     0.034 H 
ATOM     25  C16 PFW d   1      11.909  21.408  43.640  0.00  0.00    -0.008 C 
ATOM     26  H10 PFW d   1      10.309  21.741  42.256  0.00  0.00     0.049 H 
ATOM     27  H11 PFW d   1      12.479  20.669  43.057  0.00  0.00     0.057 H 
ATOM     28  H12 PFW d   1      12.602  22.011  44.245  0.00  0.00     0.057 H 
BRANCH  22  29
ATOM     29  C17 PFW d   1      11.999  22.789  41.522  0.00  0.00    -0.053 A 
ATOM     30  C18 PFW d   1      12.032  22.034  40.350  0.00  0.00    -0.076 A 
ATOM     31  C19 PFW d   1      12.797  22.447  39.268  0.00  0.00    -0.082 A 
ATOM     32  H13 PFW d   1      11.456  21.118  40.283  0.00  0.00     0.084 H 
ATOM     33  C20 PFW d   1      13.547  23.615  39.347  0.00  0.00    -0.083 A 
ATOM     34  H14 PFW d   1      12.810  21.857  38.359  0.00  0.00     0.083 H 
ATOM     35  C21 PFW d   1      13.518  24.378  40.503  0.00  0.00    -0.082 A 
ATOM     36  H15 PFW d   1      14.154  23.928  38.505  0.00  0.00     0.083 H 
ATOM     37  C22 PFW d   1      12.755  23.967  41.593  0.00  0.00    -0.076 A 
ATOM     38  H16 PFW d   1      14.090  25.297  40.559  0.00  0.00     0.083 H 
ATOM     39  H17 PFW d   1      12.746  24.561  42.500  0.00  0.00     0.084 H 
ENDBRANCH  22  29
ENDBRANCH   7  14
BRANCH   2  40
ATOM     40  O24 PFW d   1      12.297  17.021  41.112  0.00  0.00    -0.348 OA
BRANCH  40  41
ATOM     41  C26 PFW d   1      10.987  17.377  40.678  0.00  0.00     0.031 C 
ATOM     42  H21 PFW d   1      10.575  18.205  41.273  0.00  0.00     0.075 H 
ATOM     43  H22 PFW d   1      10.300  16.519  40.719  0.00  0.00     0.075 H 
BRANCH  41  44
ATOM     44  C27 PFW d   1      11.264  17.804  39.240  0.00  0.00    -0.004 C 
ATOM     45  H23 PFW d   1      11.873  17.015  38.775  0.00  0.00     0.045 H 
ATOM     46  H24 PFW d   1      11.843  18.738  39.281  0.00  0.00     0.045 H 
BRANCH  44  47
ATOM     47  C28 PFW d   1      10.079  18.049  38.335  0.00  0.00     0.037 A 
ATOM     48  N29 PFW d   1       9.381  17.031  37.904  0.00  0.00    -0.253 NA
ATOM     49  C33 PFW d   1       8.328  17.178  37.099  0.00  0.00     0.067 A 
ATOM     50  C32 PFW d   1       7.969  18.481  36.644  0.00  0.00    -0.007 A 
ATOM     51  C34 PFW d   1       7.592  16.056  36.679  0.00  0.00    -0.054 A 
ATOM     52  C30 PFW d   1       8.735  19.586  37.092  0.00  0.00    -0.069 A 
ATOM     53  C37 PFW d   1       6.864  18.629  35.772  0.00  0.00    -0.071 A 
ATOM     54  C31 PFW d   1       9.785  19.351  37.944  0.00  0.00    -0.058 A 
ATOM     55  H25 PFW d   1       8.497  20.593  36.769  0.00  0.00     0.085 H 
ATOM     56  H26 PFW d   1      10.383  20.177  38.311  0.00  0.00     0.086 H 
ATOM     57  C36 PFW d   1       6.171  17.510  35.382  0.00  0.00    -0.082 A 
ATOM     58  H30 PFW d   1       6.570  19.610  35.418  0.00  0.00     0.084 H 
ATOM     59  C35 PFW d   1       6.546  16.232  35.827  0.00  0.00    -0.081 A 
ATOM     60  H29 PFW d   1       5.320  17.615  34.719  0.00  0.00     0.083 H 
ATOM     61  H28 PFW d   1       5.990  15.367  35.484  0.00  0.00     0.083 H 
ATOM     62  H27 PFW d   1       7.854  15.064  37.029  0.00  0.00     0.087 H 
ENDBRANCH  44  47
ENDBRANCH  41  44
ENDBRANCH  40  41
ENDBRANCH   2  40
BRANCH   1  63
ATOM     63  O23 PFW d   1      13.808  15.272  42.417  0.00  0.00    -0.353 OA
BRANCH  63  64
ATOM     64  C25 PFW d   1      15.043  14.734  42.909  0.00  0.00     0.010 C 
ATOM     65  H18 PFW d   1      15.348  13.883  42.282  0.00  0.00     0.066 H 
ATOM     66  H19 PFW d   1      14.908  14.396  43.947  0.00  0.00     0.066 H 
ATOM     67  H20 PFW d   1      15.821  15.511  42.875  0.00  0.00     0.066 H 
ENDBRANCH  63  64
ENDBRANCH   1  63
TORSDOF 8
