REMARK  6 active torsions:
REMARK  status: ('A' for Active; 'I' for Inactive)
REMARK    1  A    between atoms: C2_2  and  C3_3 
REMARK    2  A    between atoms: C3_3  and  N4_4 
REMARK    3  A    between atoms: N4_4  and  C5_5 
REMARK    4  A    between atoms: C7_7  and  N10_10 
REMARK    5  A    between atoms: C8_8  and  C11_11 
REMARK    6  A    between atoms: C11_11  and  C12_12 
ROOT
ATOM      1  C5  X02 d   1      65.296 154.515 -49.226  0.00  0.00     0.169 A 
ATOM      2  N6  X02 d   1      65.594 154.522 -50.452  0.00  0.00    -0.206 NA
ATOM      3  C7  X02 d   1      66.660 153.640 -50.881  0.00  0.00     0.145 A 
ATOM      4  C8  X02 d   1      67.144 152.947 -49.836  0.00  0.00     0.104 A 
ATOM      5  S9  X02 d   1      66.309 153.373 -48.305  0.00  0.00    -0.044 SA
ENDROOT
BRANCH   4   6
ATOM      6  C11 X02 d   1      68.235 151.930 -49.875  0.00  0.00     0.203 C 
ATOM      7  O18 X02 d   1      68.775 151.684 -50.951  0.00  0.00    -0.286 OA
BRANCH   6   8
ATOM      8  C12 X02 d   1      68.710 151.157 -48.649  0.00  0.00     0.015 A 
ATOM      9  C13 X02 d   1      67.770 150.483 -47.799  0.00  0.00    -0.069 A 
ATOM     10  C14 X02 d   1      68.224 149.751 -46.661  0.00  0.00    -0.082 A 
ATOM     11  H9  X02 d   1      66.710 150.530 -48.023  0.00  0.00     0.085 H 
ATOM     12  C15 X02 d   1      69.614 149.685 -46.367  0.00  0.00    -0.083 A 
ATOM     13  H10 X02 d   1      67.510 149.246 -46.021  0.00  0.00     0.083 H 
ATOM     14  C16 X02 d   1      70.553 150.350 -47.211  0.00  0.00    -0.082 A 
ATOM     15  H11 X02 d   1      69.960 149.130 -45.502  0.00  0.00     0.083 H 
ATOM     16  C17 X02 d   1      70.103 151.083 -48.350  0.00  0.00    -0.069 A 
ATOM     17  H12 X02 d   1      71.612 150.298 -46.986  0.00  0.00     0.083 H 
ATOM     18  H13 X02 d   1      70.821 151.584 -48.989  0.00  0.00     0.085 H 
ENDBRANCH   6   8
ENDBRANCH   4   6
BRANCH   3  19
ATOM     19  N10 X02 d   1      67.084 153.530 -52.131  0.00  0.00    -0.383 N 
ATOM     20  H7  X02 d   1      67.849 152.879 -52.360  0.00  0.00     0.157 HD
ATOM     21  H8  X02 d   1      66.649 154.095 -52.874  0.00  0.00     0.157 HD
ENDBRANCH   3  19
BRANCH   1  22
ATOM     22  N4  X02 d   1      64.331 155.273 -48.675  0.00  0.00    -0.365 N 
ATOM     23  H6  X02 d   1      63.682 155.843 -49.236  0.00  0.00     0.162 HD
BRANCH  22  24
ATOM     24  C3  X02 d   1      64.277 155.221 -47.190  0.00  0.00     0.009 C 
ATOM     25  H4  X02 d   1      65.092 154.584 -46.816  0.00  0.00     0.070 H 
ATOM     26  H5  X02 d   1      64.389 156.237 -46.783  0.00  0.00     0.070 H 
BRANCH  24  27
ATOM     27  C2  X02 d   1      62.949 154.647 -46.753  0.00  0.00    -0.095 C 
ATOM     28  C1  X02 d   1      62.609 153.367 -46.975  0.00  0.00    -0.123 C 
ATOM     29  H1  X02 d   1      61.641 152.995 -46.643  0.00  0.00     0.066 H 
ATOM     30  H2  X02 d   1      63.301 152.701 -47.487  0.00  0.00     0.066 H 
ATOM     31  H3  X02 d   1      62.241 155.296 -46.239  0.00  0.00     0.078 H 
ENDBRANCH  24  27
ENDBRANCH  22  24
ENDBRANCH   1  22
TORSDOF 6
