REMARK  7 active torsions:
REMARK  status: ('A' for Active; 'I' for Inactive)
REMARK    1  A    between atoms: C15_23  and  N1_2 
REMARK    2  A    between atoms: C18_26  and  N2_5 
REMARK    3  A    between atoms: N2_5  and  C24_32 
REMARK    4  A    between atoms: C14_22  and  O2_6 
REMARK    5  A    between atoms: O2_6  and  C17_25 
REMARK    6  A    between atoms: C4_9  and  N6_14 
REMARK    7  A    between atoms: N6_14  and  C12_20 
ROOT
ATOM      1  C11 01P d   1     -12.803  -3.348  -4.876  0.00  0.00    -0.054 A 
ATOM      2  C12 01P d   1     -11.792  -2.877  -3.957  0.00  0.00     0.052 A 
ATOM      3  C13 01P d   1     -10.889  -3.797  -3.357  0.00  0.00    -0.022 A 
ATOM      4  C14 01P d   1     -10.992  -5.179  -3.668  0.00  0.00     0.096 A 
ATOM      5  C15 01P d   1     -12.004  -5.655  -4.592  0.00  0.00     0.064 A 
ATOM      6  C16 01P d   1     -12.932  -4.739  -5.212  0.00  0.00    -0.052 A 
ATOM      7  H   01P d   1     -13.486  -2.628  -5.327  0.00  0.00     0.087 H 
ATOM      8  H   01P d   1     -10.124  -3.445  -2.664  0.00  0.00     0.091 H 
ATOM      9  H   01P d   1     -13.697  -5.088  -5.905  0.00  0.00     0.087 H 
ENDROOT
BRANCH   2  10
ATOM     10  N6  01P d   1     -11.716  -1.524  -3.685  0.00  0.00    -0.188 N 
ATOM     11  H   01P d   1     -11.877  -0.911  -4.484  0.00  0.00     0.184 HD
BRANCH  10  12
ATOM     12  C4  01P d   1     -11.455  -0.879  -2.493  0.00  0.00     0.728 A 
ATOM     13  N4  01P d   1     -11.345   0.469  -2.423  0.00  0.00    -0.075 NA
ATOM     14  C23 01P d   1     -11.078   1.159  -1.306  0.00  0.00     0.025 A 
ATOM     15  C1  01P d   1     -10.897   0.458  -0.109  0.00  0.00    -0.021 A 
ATOM     16  H   01P d   1     -11.003   2.246  -1.329  0.00  0.00     0.115 H 
ATOM     17  C24 01P d   1     -11.019  -0.959  -0.191  0.00  0.00     0.148 A 
ATOM     18  H   01P d   1     -10.676   0.966   0.830  0.00  0.00     0.091 H 
ATOM     19  N5  01P d   1     -11.291  -1.573  -1.376  0.00  0.00    -0.045 NA
BRANCH  17  20
ATOM     20  N2  01P d   1     -10.884  -1.695   0.979  0.00  0.00    -0.339 N 
ATOM     21  H   01P d   1     -10.749  -1.132   1.819  0.00  0.00     0.167 HD
BRANCH  20  22
ATOM     22  C18 01P d   1     -10.901  -3.059   1.202  0.00  0.00     0.052 A 
ATOM     23  C19 01P d   1     -11.570  -4.045   0.354  0.00  0.00    -0.044 A 
ATOM     24  C20 01P d   1     -11.557  -5.433   0.567  0.00  0.00    -0.005 A 
ATOM     25  H   01P d   1     -12.121  -3.674  -0.510  0.00  0.00     0.088 H 
ATOM     26  C7  01P d   1     -12.183  -6.420  -0.296  0.00  0.00    -0.071 A 
ATOM     27  C21 01P d   1     -10.770  -5.850   1.784  0.00  0.00     0.066 A 
ATOM     28  C8  01P d   1     -12.031  -7.850   0.027  0.00  0.00    -0.082 A 
ATOM     29  H   01P d   1     -12.756  -6.108  -1.169  0.00  0.00     0.084 H 
ATOM     30  C9  01P d   1     -11.267  -8.294   1.198  0.00  0.00    -0.081 A 
ATOM     31  H   01P d   1     -12.497  -8.594  -0.619  0.00  0.00     0.083 H 
ATOM     32  C10 01P d   1     -10.654  -7.294   2.057  0.00  0.00    -0.054 A 
ATOM     33  H   01P d   1     -11.161  -9.356   1.420  0.00  0.00     0.083 H 
ATOM     34  H   01P d   1     -10.091  -7.622   2.930  0.00  0.00     0.087 H 
ATOM     35  N3  01P d   1     -10.144  -4.849   2.588  0.00  0.00    -0.258 NA
ATOM     36  C22 01P d   1     -10.174  -3.509   2.356  0.00  0.00     0.029 A 
ATOM     37  H   01P d   1      -9.668  -2.806   3.018  0.00  0.00     0.118 H 
ENDBRANCH  20  22
ENDBRANCH  17  20
ENDBRANCH  10  12
ENDBRANCH   2  10
BRANCH   4  38
ATOM     38  O2  01P d   1     -10.116  -6.066  -3.051  0.00  0.00    -0.354 OA
BRANCH  38  39
ATOM     39  C17 01P d   1      -8.765  -5.689  -2.699  0.00  0.00     0.010 C 
ATOM     40  H   01P d   1      -8.224  -5.398  -3.599  0.00  0.00     0.066 H 
ATOM     41  H   01P d   1      -8.793  -4.850  -2.004  0.00  0.00     0.066 H 
ATOM     42  H   01P d   1      -8.264  -6.535  -2.229  0.00  0.00     0.066 H 
ENDBRANCH  38  39
ENDBRANCH   4  38
BRANCH   5  43
ATOM     43  N1  01P d   1     -12.077  -7.003  -4.925  0.00  0.00    -0.375 N 
ATOM     44  C3  01P d   1     -10.844  -7.795  -5.061  0.00  0.00     0.015 C 
ATOM     45  C2  01P d   1     -11.024  -9.293  -4.817  0.00  0.00     0.034 C 
ATOM     46  H   01P d   1     -10.146  -7.430  -4.308  0.00  0.00     0.067 H 
ATOM     47  H   01P d   1     -10.501  -7.678  -6.089  0.00  0.00     0.067 H 
ATOM     48  O1  01P d   1     -12.385  -9.747  -4.776  0.00  0.00    -0.388 OA
ATOM     49  H   01P d   1     -10.549  -9.805  -5.653  0.00  0.00     0.076 H 
ATOM     50  H   01P d   1     -10.594  -9.504  -3.838  0.00  0.00     0.076 H 
ATOM     51  C6  01P d   1     -13.197  -9.100  -5.717  0.00  0.00     0.034 C 
ATOM     52  C5  01P d   1     -13.358  -7.682  -5.188  0.00  0.00     0.015 C 
ATOM     53  H   01P d   1     -14.159  -9.600  -5.833  0.00  0.00     0.076 H 
ATOM     54  H   01P d   1     -12.752  -9.112  -6.712  0.00  0.00     0.076 H 
ATOM     55  H   01P d   1     -13.883  -7.106  -5.950  0.00  0.00     0.067 H 
ATOM     56  H   01P d   1     -13.896  -7.745  -4.242  0.00  0.00     0.067 H 
ENDBRANCH   5  43
TORSDOF 7
