REMARK  11 active torsions:
REMARK  status: ('A' for Active; 'I' for Inactive)
REMARK    1  A    between atoms: N49_26  and  C1_1 
REMARK    2  A    between atoms: C24_13  and  C70_34 
REMARK    3  A    between atoms: O65_32  and  C26_15 
REMARK    4  A    between atoms: C36_19  and  O65_32 
REMARK    5  A    between atoms: N60_30  and  C39_22 
REMARK    6  A    between atoms: C46_23  and  C79_38 
REMARK    7  A    between atoms: N56_28  and  C48_25 
REMARK       I    between atoms: C58_29  and  N56_28 
REMARK       I    between atoms: C58_29  and  N60_30 
REMARK       I    between atoms: C70_34  and  N74_36 
REMARK    8  A    between atoms: N74_36  and  C76_37 
REMARK    9  A    between atoms: C79_38  and  C81_39 
REMARK   10  A    between atoms: C79_38  and  C83_40 
REMARK   11  A    between atoms: C79_38  and  C85_41 
ROOT
ATOM      1  C46 919 d   1      25.505   9.567  25.991  0.00  0.00     0.066 A 
ATOM      2  C47 919 d   1      26.091  10.645  26.625  0.00  0.00    -0.012 A 
ATOM      3  C48 919 d   1      26.781  10.102  27.699  0.00  0.00     0.135 A 
ATOM      4  N49 919 d   1      26.457   8.788  27.717  0.00  0.00    -0.217 N 
ATOM      5  N50 919 d   1      25.659   8.411  26.640  0.00  0.00    -0.169 NA
ATOM      6  H13 919 d   1      26.026  11.695  26.343  0.00  0.00     0.092 H 
ENDROOT
BRANCH   3   7
ATOM      7  N56 919 d   1      27.522  10.607  28.733  0.00  0.00    -0.293 N 
ATOM      8  C58 919 d   1      27.600  11.919  29.040  0.00  0.00     0.326 C 
ATOM      9  N60 919 d   1      28.347  12.222  30.116  0.00  0.00    -0.306 N 
ATOM     10  O63 919 d   1      27.033  12.787  28.377  0.00  0.00    -0.247 OA
ATOM     11  H15 919 d   1      28.795  11.460  30.584  0.00  0.00     0.171 HD
ATOM     12  H14 919 d   1      28.039   9.963  29.297  0.00  0.00     0.172 HD
BRANCH   9  13
ATOM     13  C39 919 d   1      28.553  13.471  30.631  0.00  0.00     0.075 A 
ATOM     14  C34 919 d   1      27.622  14.502  30.466  0.00  0.00    -0.051 A 
ATOM     15  C35 919 d   1      27.855  15.750  31.045  0.00  0.00    -0.048 A 
ATOM     16  H10 919 d   1      26.720  14.332  29.889  0.00  0.00     0.087 H 
ATOM     17  C36 919 d   1      28.991  15.985  31.808  0.00  0.00     0.079 A 
ATOM     18  H11 919 d   1      27.137  16.549  30.897  0.00  0.00     0.087 H 
ATOM     19  C37 919 d   1      29.905  14.954  31.997  0.00  0.00    -0.011 A 
ATOM     20  C38 919 d   1      29.681  13.717  31.413  0.00  0.00     0.145 A 
ATOM     21  H12 919 d   1      30.791  15.117  32.600  0.00  0.00     0.092 H 
ATOM     22  F68 919 d   1      30.593  12.768  31.617  0.00  0.00    -0.204 F 
BRANCH  17  23
ATOM     23  O65 919 d   1      29.224  17.183  32.434  0.00  0.00    -0.311 OA
BRANCH  23  24
ATOM     24  C26 919 d   1      29.008  18.459  31.985  0.00  0.00     0.079 A 
ATOM     25  C25 919 d   1      28.531  19.410  32.876  0.00  0.00    -0.017 A 
ATOM     26  C24 919 d   1      28.331  20.722  32.446  0.00  0.00     0.126 A 
ATOM     27  H8  919 d   1      28.315  19.134  33.902  0.00  0.00     0.091 H 
ATOM     28  N23 919 d   1      28.633  21.058  31.180  0.00  0.00    -0.255 NA
ATOM     29  C22 919 d   1      29.089  20.152  30.300  0.00  0.00     0.006 A 
ATOM     30  C27 919 d   1      29.292  18.832  30.684  0.00  0.00    -0.033 A 
ATOM     31  H7  919 d   1      29.301  20.453  29.280  0.00  0.00     0.114 H 
ATOM     32  H9  919 d   1      29.668  18.105  29.974  0.00  0.00     0.090 H 
BRANCH  26  33
ATOM     33  C70 919 d   1      27.810  21.782  33.389  0.00  0.00     0.269 C 
ATOM     34  O72 919 d   1      27.414  21.453  34.496  0.00  0.00    -0.266 OA
ATOM     35  N74 919 d   1      27.805  23.051  32.993  0.00  0.00    -0.360 N 
ATOM     36  H16 919 d   1      27.956  23.264  32.028  0.00  0.00     0.162 HD
BRANCH  35  37
ATOM     37  C76 919 d   1      27.585  24.131  33.934  0.00  0.00    -0.018 C 
ATOM     38  H17 919 d   1      27.620  25.093  33.402  0.00  0.00     0.056 H 
ATOM     39  H18 919 d   1      28.368  24.110  34.706  0.00  0.00     0.056 H 
ATOM     40  H19 919 d   1      26.600  24.010  34.408  0.00  0.00     0.056 H 
ENDBRANCH  35  37
ENDBRANCH  26  33
ENDBRANCH  23  24
ENDBRANCH  17  23
ENDBRANCH   9  13
ENDBRANCH   3   7
BRANCH   4  41
ATOM     41  C1  919 d   1      26.540   7.935  28.759  0.00  0.00     0.061 C 
ATOM     42  C2  919 d   1      26.992   6.631  28.532  0.00  0.00    -0.053 C 
ATOM     43  C3  919 d   1      27.130   5.685  29.541  0.00  0.00    -0.052 C 
ATOM     44  H1  919 d   1      27.247   6.344  27.518  0.00  0.00     0.087 H 
ATOM     45  C4  919 d   1      26.892   6.036  30.863  0.00  0.00     0.066 C 
ATOM     46  H2  919 d   1      27.424   4.671  29.295  0.00  0.00     0.087 H 
ATOM     47  C5  919 d   1      26.350   7.282  31.125  0.00  0.00    -0.005 C 
ATOM     48  N10 919 d   1      26.980   5.104  31.839  0.00  0.00    -0.260 NA
ATOM     49  C6  919 d   1      26.224   8.225  30.090  0.00  0.00    -0.043 C 
ATOM     50  C13 919 d   1      26.030   7.611  32.442  0.00  0.00    -0.069 C 
ATOM     51  H3  919 d   1      25.867   9.219  30.334  0.00  0.00     0.088 H 
ATOM     52  C14 919 d   1      26.270   6.679  33.448  0.00  0.00    -0.065 C 
ATOM     53  H5  919 d   1      25.601   8.578  32.679  0.00  0.00     0.085 H 
ATOM     54  C9  919 d   1      26.548   5.360  33.087  0.00  0.00     0.003 C 
ATOM     55  H6  919 d   1      26.241   6.972  34.491  0.00  0.00     0.085 H 
ATOM     56  H4  919 d   1      26.418   4.555  33.801  0.00  0.00     0.114 H 
ENDBRANCH   4  41
BRANCH   1  57
ATOM     57  C79 919 d   1      24.490   9.705  24.886  0.00  0.00    -0.005 C 
BRANCH  57  58
ATOM     58  C81 919 d   1      25.269   9.569  23.581  0.00  0.00    -0.064 C 
ATOM     59  H20 919 d   1      24.578   9.662  22.730  0.00  0.00     0.028 H 
ATOM     60  H21 919 d   1      25.761   8.586  23.548  0.00  0.00     0.028 H 
ATOM     61  H22 919 d   1      26.029  10.362  23.524  0.00  0.00     0.028 H 
ENDBRANCH  57  58
BRANCH  57  62
ATOM     62  C83 919 d   1      23.779  11.062  24.943  0.00  0.00    -0.064 C 
ATOM     63  H23 919 d   1      23.223  11.145  25.888  0.00  0.00     0.028 H 
ATOM     64  H24 919 d   1      23.080  11.146  24.098  0.00  0.00     0.028 H 
ATOM     65  H25 919 d   1      24.524  11.869  24.884  0.00  0.00     0.028 H 
ENDBRANCH  57  62
BRANCH  57  66
ATOM     66  C85 919 d   1      23.464   8.579  24.989  0.00  0.00    -0.064 C 
ATOM     67  H26 919 d   1      23.980   7.608  24.948  0.00  0.00     0.028 H 
ATOM     68  H27 919 d   1      22.753   8.653  24.152  0.00  0.00     0.028 H 
ATOM     69  H28 919 d   1      22.920   8.665  25.941  0.00  0.00     0.028 H 
ENDBRANCH  57  66
ENDBRANCH   1  57
TORSDOF 11
