REMARK  11 active torsions:
REMARK  status: ('A' for Active; 'I' for Inactive)
REMARK    1  A    between atoms: N49_26  and  C1_1 
REMARK    2  A    between atoms: C24_13  and  C70_34 
REMARK    3  A    between atoms: O65_32  and  C26_15 
REMARK    4  A    between atoms: C36_19  and  O65_32 
REMARK    5  A    between atoms: N60_30  and  C39_22 
REMARK    6  A    between atoms: C46_23  and  C79_38 
REMARK    7  A    between atoms: N56_28  and  C48_25 
REMARK       I    between atoms: C58_29  and  N56_28 
REMARK       I    between atoms: C58_29  and  N60_30 
REMARK       I    between atoms: C70_34  and  N74_36 
REMARK    8  A    between atoms: N74_36  and  C76_37 
REMARK    9  A    between atoms: C79_38  and  C81_39 
REMARK   10  A    between atoms: C79_38  and  C83_40 
REMARK   11  A    between atoms: C79_38  and  C85_41 
ROOT
ATOM      1  C46 919 d   1       6.427  -9.238  24.325  0.00  0.00     0.066 A 
ATOM      2  C47 919 d   1       5.804 -10.241  25.004  0.00  0.00    -0.012 A 
ATOM      3  C48 919 d   1       5.400  -9.653  26.209  0.00  0.00     0.135 A 
ATOM      4  N49 919 d   1       5.699  -8.329  26.121  0.00  0.00    -0.217 N 
ATOM      5  N50 919 d   1       6.359  -8.012  24.909  0.00  0.00    -0.169 NA
ATOM      6  H   919 d   1       5.654 -11.271  24.681  0.00  0.00     0.092 H 
ENDROOT
BRANCH   3   7
ATOM      7  N56 919 d   1       4.723 -10.184  27.268  0.00  0.00    -0.293 N 
ATOM      8  C58 919 d   1       4.698 -11.507  27.541  0.00  0.00     0.326 C 
ATOM      9  N60 919 d   1       3.773 -11.909  28.438  0.00  0.00    -0.306 N 
ATOM     10  O63 919 d   1       5.458 -12.285  26.964  0.00  0.00    -0.247 OA
ATOM     11  H   919 d   1       3.085 -11.217  28.735  0.00  0.00     0.171 HD
ATOM     12  H   919 d   1       4.211  -9.552  27.883  0.00  0.00     0.172 HD
BRANCH   9  13
ATOM     13  C39 919 d   1       3.674 -13.161  28.986  0.00  0.00     0.075 A 
ATOM     14  C34 919 d   1       4.369 -14.304  28.568  0.00  0.00    -0.051 A 
ATOM     15  C35 919 d   1       4.214 -15.514  29.221  0.00  0.00    -0.048 A 
ATOM     16  H   919 d   1       5.043 -14.239  27.714  0.00  0.00     0.087 H 
ATOM     17  C36 919 d   1       3.333 -15.618  30.295  0.00  0.00     0.079 A 
ATOM     18  H   919 d   1       4.781 -16.386  28.895  0.00  0.00     0.087 H 
ATOM     19  C37 919 d   1       2.619 -14.508  30.688  0.00  0.00    -0.011 A 
ATOM     20  C38 919 d   1       2.792 -13.294  30.038  0.00  0.00     0.145 A 
ATOM     21  H   919 d   1       1.913 -14.583  31.515  0.00  0.00     0.092 H 
ATOM     22  F68 919 d   1       2.101 -12.212  30.432  0.00  0.00    -0.204 F 
BRANCH  17  23
ATOM     23  O65 919 d   1       3.143 -16.787  30.970  0.00  0.00    -0.311 OA
BRANCH  23  24
ATOM     24  C26 919 d   1       3.261 -18.069  30.451  0.00  0.00     0.079 A 
ATOM     25  C25 919 d   1       3.841 -19.069  31.231  0.00  0.00    -0.017 A 
ATOM     26  C24 919 d   1       3.938 -20.376  30.740  0.00  0.00     0.126 A 
ATOM     27  H   919 d   1       4.220 -18.832  32.225  0.00  0.00     0.091 H 
ATOM     28  N23 919 d   1       3.436 -20.700  29.509  0.00  0.00    -0.255 NA
ATOM     29  C22 919 d   1       2.877 -19.736  28.739  0.00  0.00     0.006 A 
ATOM     30  C27 919 d   1       2.763 -18.428  29.206  0.00  0.00    -0.033 A 
ATOM     31  H   919 d   1       2.512 -19.986  27.743  0.00  0.00     0.114 H 
ATOM     32  H   919 d   1       2.276 -17.676  28.585  0.00  0.00     0.090 H 
BRANCH  26  33
ATOM     33  C70 919 d   1       4.600 -21.423  31.584  0.00  0.00     0.269 C 
ATOM     34  O72 919 d   1       5.388 -21.056  32.467  0.00  0.00    -0.266 OA
ATOM     35  N74 919 d   1       4.249 -22.686  31.357  0.00  0.00    -0.360 N 
ATOM     36  H   919 d   1       3.752 -22.898  30.492  0.00  0.00     0.162 HD
BRANCH  35  37
ATOM     37  C76 919 d   1       4.533 -23.782  32.271  0.00  0.00    -0.018 C 
ATOM     38  H   919 d   1       5.611 -23.869  32.409  0.00  0.00     0.056 H 
ATOM     39  H   919 d   1       4.057 -23.585  33.232  0.00  0.00     0.056 H 
ATOM     40  H   919 d   1       4.143 -24.711  31.855  0.00  0.00     0.056 H 
ENDBRANCH  35  37
ENDBRANCH  26  33
ENDBRANCH  23  24
ENDBRANCH  17  23
ENDBRANCH   9  13
ENDBRANCH   3   7
BRANCH   4  41
ATOM     41  C1  919 d   1       5.469  -7.346  27.040  0.00  0.00     0.061 A 
ATOM     42  C2  919 d   1       4.936  -6.080  26.709  0.00  0.00    -0.053 A 
ATOM     43  C3  919 d   1       4.686  -5.081  27.666  0.00  0.00    -0.052 A 
ATOM     44  H   919 d   1       4.708  -5.868  25.664  0.00  0.00     0.087 H 
ATOM     45  C4  919 d   1       4.960  -5.319  29.005  0.00  0.00     0.066 A 
ATOM     46  H   919 d   1       4.277  -4.119  27.356  0.00  0.00     0.087 H 
ATOM     47  C5  919 d   1       5.491  -6.558  29.375  0.00  0.00    -0.005 A 
ATOM     48  N10 919 d   1       4.745  -4.374  29.944  0.00  0.00    -0.260 NA
ATOM     49  C6  919 d   1       5.732  -7.524  28.409  0.00  0.00    -0.043 A 
ATOM     50  C13 919 d   1       5.785  -6.837  30.708  0.00  0.00    -0.069 A 
ATOM     51  H   919 d   1       6.150  -8.478  28.731  0.00  0.00     0.088 H 
ATOM     52  C14 919 d   1       5.539  -5.846  31.656  0.00  0.00    -0.065 A 
ATOM     53  H   919 d   1       6.196  -7.803  31.001  0.00  0.00     0.085 H 
ATOM     54  C9  919 d   1       5.005  -4.622  31.246  0.00  0.00     0.003 A 
ATOM     55  H   919 d   1       5.761  -6.024  32.708  0.00  0.00     0.085 H 
ATOM     56  H   919 d   1       4.795  -3.854  31.990  0.00  0.00     0.114 H 
ENDBRANCH   4  41
BRANCH   1  57
ATOM     57  C79 919 d   1       7.011  -9.465  22.939  0.00  0.00    -0.005 C 
BRANCH  57  58
ATOM     58  C81 919 d   1       6.021 -10.131  22.005  0.00  0.00    -0.064 C 
ATOM     59  H   919 d   1       5.731 -11.099  22.415  0.00  0.00     0.028 H 
ATOM     60  H   919 d   1       5.138  -9.499  21.903  0.00  0.00     0.028 H 
ATOM     61  H   919 d   1       6.483 -10.272  21.028  0.00  0.00     0.028 H 
ENDBRANCH  57  58
BRANCH  57  62
ATOM     62  C83 919 d   1       8.204 -10.411  23.015  0.00  0.00    -0.064 C 
ATOM     63  H   919 d   1       8.970  -9.977  23.657  0.00  0.00     0.028 H 
ATOM     64  H   919 d   1       7.882 -11.367  23.427  0.00  0.00     0.028 H 
ATOM     65  H   919 d   1       8.610 -10.563  22.015  0.00  0.00     0.028 H 
ENDBRANCH  57  62
BRANCH  57  66
ATOM     66  C85 919 d   1       7.198  -8.107  22.307  0.00  0.00    -0.064 C 
ATOM     67  H   919 d   1       6.234  -7.603  22.240  0.00  0.00     0.028 H 
ATOM     68  H   919 d   1       7.878  -7.514  22.918  0.00  0.00     0.028 H 
ATOM     69  H   919 d   1       7.617  -8.227  21.308  0.00  0.00     0.028 H 
ENDBRANCH  57  66
ENDBRANCH   1  57
TORSDOF 11
