REMARK  8 active torsions:
REMARK  status: ('A' for Active; 'I' for Inactive)
REMARK    1  A    between atoms: N1_2  and  C6_16 
REMARK       I    between atoms: C7_17  and  N1_2 
REMARK       I    between atoms: N2_6  and  C7_17 
REMARK    2  A    between atoms: C8_18  and  N2_6 
REMARK    3  A    between atoms: C16_26  and  N4_13 
REMARK    4  A    between atoms: C10_20  and  C11_21 
REMARK    5  A    between atoms: C11_21  and  C12_22 
REMARK    6  A    between atoms: C11_21  and  C13_23 
REMARK    7  A    between atoms: C11_21  and  C14_24 
REMARK    8  A    between atoms: C22_32  and  C24_34 
ROOT
ATOM      1  N3  9DP d   1      21.173  25.217  13.341  0.00  0.00    -0.169 NA
ATOM      2  N4  9DP d   1      20.934  24.113  12.510  0.00  0.00    -0.217 N 
ATOM      3  C8  9DP d   1      19.648  23.727  12.492  0.00  0.00     0.135 A 
ATOM      4  C9  9DP d   1      18.957  24.563  13.376  0.00  0.00    -0.012 A 
ATOM      5  C10 9DP d   1      19.935  25.448  13.845  0.00  0.00     0.066 A 
ATOM      6  H8  9DP d   1      17.901  24.532  13.639  0.00  0.00     0.092 H 
ENDROOT
BRANCH   2   7
ATOM      7  C16 9DP d   1      21.968  23.620  11.824  0.00  0.00     0.061 A 
ATOM      8  C15 9DP d   1      23.156  23.309  12.483  0.00  0.00    -0.054 A 
ATOM      9  C18 9DP d   1      24.265  22.856  11.809  0.00  0.00    -0.072 A 
ATOM     10  H18 9DP d   1      23.207  23.428  13.559  0.00  0.00     0.087 H 
ATOM     11  C19 9DP d   1      24.229  22.679  10.443  0.00  0.00    -0.026 A 
ATOM     12  H20 9DP d   1      25.175  22.636  12.356  0.00  0.00     0.084 H 
ATOM     13  C20 9DP d   1      23.084  22.983   9.733  0.00  0.00    -0.045 A 
ATOM     14  C21 9DP d   1      25.472  22.151   9.782  0.00  0.00     0.107 C 
ATOM     15  C17 9DP d   1      21.981  23.444  10.434  0.00  0.00    -0.048 A 
ATOM     16  C23 9DP d   1      22.955  22.824   8.228  0.00  0.00    -0.004 C 
ATOM     17  H19 9DP d   1      21.081  23.681   9.878  0.00  0.00     0.087 H 
ATOM     18  C22 9DP d   1      24.127  22.068   7.605  0.00  0.00     0.188 C 
ATOM     19  H24 9DP d   1      22.902  23.824   7.773  0.00  0.00     0.044 H 
ATOM     20  H25 9DP d   1      22.028  22.273   8.012  0.00  0.00     0.044 H 
ATOM     21  N5  9DP d   1      25.333  22.363   8.357  0.00  0.00    -0.057 N 
ATOM     22  H23 9DP d   1      23.915  20.989   7.646  0.00  0.00     0.102 H 
ATOM     23  H6  9DP d   1      26.063  21.817   7.927  0.00  0.00     0.278 HD
ATOM     24  H7  9DP d   1      25.515  23.343   8.208  0.00  0.00     0.278 HD
ATOM     25  H21 9DP d   1      26.354  22.690  10.157  0.00  0.00     0.083 H 
ATOM     26  H22 9DP d   1      25.581  21.077   9.993  0.00  0.00     0.083 H 
BRANCH  18  27
ATOM     27  C24 9DP d   1      24.385  22.470   6.167  0.00  0.00     0.205 C 
ATOM     28  O2  9DP d   1      25.468  23.055   5.973  0.00  0.00    -0.646 OA
ATOM     29  O3  9DP d   1      23.581  22.242   5.224  0.00  0.00    -0.646 OA
ENDBRANCH  18  27
ENDBRANCH   2   7
BRANCH   3  30
ATOM     30  N2  9DP d   1      19.289  22.658  11.767  0.00  0.00    -0.293 N 
ATOM     31  C7  9DP d   1      18.007  22.446  11.454  0.00  0.00     0.326 C 
ATOM     32  N1  9DP d   1      17.713  21.349  10.734  0.00  0.00    -0.307 N 
ATOM     33  O1  9DP d   1      17.135  23.251  11.786  0.00  0.00    -0.247 OA
ATOM     34  H1  9DP d   1      18.477  20.768  10.452  0.00  0.00     0.170 HD
ATOM     35  H2  9DP d   1      19.987  22.013  11.457  0.00  0.00     0.172 HD
BRANCH  32  36
ATOM     36  C6  9DP d   1      16.454  20.960  10.354  0.00  0.00     0.059 A 
ATOM     37  C2  9DP d   1      16.168  19.597  10.390  0.00  0.00     0.082 A 
ATOM     38  C1  9DP d   1      14.947  19.020  10.059  0.00  0.00     0.058 A 
ATOM     39 CL2  9DP d   1      17.492  18.577  10.916  0.00  0.00    -0.080 Cl
ATOM     40 CL1  9DP d   1      14.668  17.221  10.110  0.00  0.00    -0.082 Cl
ATOM     41  C3  9DP d   1      13.935  19.890   9.666  0.00  0.00    -0.060 A 
ATOM     42  C4  9DP d   1      14.188  21.272   9.620  0.00  0.00    -0.079 A 
ATOM     43  H3  9DP d   1      12.958  19.505   9.397  0.00  0.00     0.086 H 
ATOM     44  C5  9DP d   1      15.429  21.819   9.959  0.00  0.00    -0.055 A 
ATOM     45  H4  9DP d   1      13.391  21.938   9.310  0.00  0.00     0.083 H 
ATOM     46  H5  9DP d   1      15.591  22.890   9.916  0.00  0.00     0.087 H 
ENDBRANCH  32  36
ENDBRANCH   3  30
BRANCH   5  47
ATOM     47  C11 9DP d   1      19.634  26.572  14.815  0.00  0.00    -0.005 C 
BRANCH  47  48
ATOM     48  C12 9DP d   1      19.242  25.995  16.171  0.00  0.00    -0.064 C 
ATOM     49  H9  9DP d   1      19.025  26.816  16.870  0.00  0.00     0.028 H 
ATOM     50  H10 9DP d   1      20.071  25.388  16.565  0.00  0.00     0.028 H 
ATOM     51  H11 9DP d   1      18.348  25.365  16.057  0.00  0.00     0.028 H 
ENDBRANCH  47  48
BRANCH  47  52
ATOM     52  C13 9DP d   1      18.511  27.432  14.246  0.00  0.00    -0.064 C 
ATOM     53  H12 9DP d   1      18.817  27.836  13.270  0.00  0.00     0.028 H 
ATOM     54  H13 9DP d   1      18.299  28.262  14.936  0.00  0.00     0.028 H 
ATOM     55  H14 9DP d   1      17.606  26.819  14.122  0.00  0.00     0.028 H 
ENDBRANCH  47  52
BRANCH  47  56
ATOM     56  C14 9DP d   1      20.825  27.490  15.004  0.00  0.00    -0.064 C 
ATOM     57  H15 9DP d   1      21.669  26.916  15.415  0.00  0.00     0.028 H 
ATOM     58  H16 9DP d   1      20.558  28.299  15.700  0.00  0.00     0.028 H 
ATOM     59  H17 9DP d   1      21.113  27.921  14.034  0.00  0.00     0.028 H 
ENDBRANCH  47  56
ENDBRANCH   5  47
TORSDOF 8
