REMARK  16 active torsions:
REMARK  status: ('A' for Active; 'I' for Inactive)
REMARK    1  A    between atoms: C20_2  and  N2_1 
REMARK       I    between atoms: N2_1  and  C48_35 
REMARK    2  A    between atoms: C20_2  and  C21_4 
REMARK    3  A    between atoms: C28_12  and  C20_2 
REMARK    4  A    between atoms: C28_12  and  O20_3 
REMARK    5  A    between atoms: C21_4  and  C22_6 
REMARK    6  A    between atoms: C29_13  and  C28_12 
REMARK       I    between atoms: N50_38  and  C29_13 
REMARK    7  A    between atoms: N30_14  and  C31_16 
REMARK       I    between atoms: C55_45  and  N30_14 
REMARK    8  A    between atoms: C35_20  and  O30_15 
REMARK    9  A    between atoms: O41_28  and  C45_32 
REMARK   10  A    between atoms: C49_36  and  O41_28 
REMARK   11  A    between atoms: C42_29  and  C43_30 
REMARK   12  A    between atoms: C46_33  and  C44_31 
REMARK   13  A    between atoms: C48_35  and  C49_36 
REMARK   14  A    between atoms: C51_41  and  C52_42 
REMARK   15  A    between atoms: C51_41  and  C53_43 
REMARK   16  A    between atoms: C54_44  and  C55_45 
ROOT
ATOM      1  C28 006 d   1      26.863  -8.305   4.151  0.00  0.00     0.132 C 
ATOM      2  H   006 d   1      27.744  -8.177   3.523  0.00  0.00     0.101 H 
ENDROOT
BRANCH   1   3
ATOM      3  C20 006 d   1      27.105  -9.359   5.174  0.00  0.00     0.049 C 
ATOM      4  H   006 d   1      26.658 -10.303   4.863  0.00  0.00     0.077 H 
BRANCH   3   5
ATOM      5  N2  006 d   1      28.528  -9.392   5.404  0.00  0.00    -0.351 N 
ATOM      6  C48 006 d   1      29.176 -10.531   5.160  0.00  0.00     0.242 C 
ATOM      7  O40 006 d   1      28.521 -11.500   4.724  0.00  0.00    -0.271 OA
ATOM      8  H   006 d   1      29.024  -8.568   5.743  0.00  0.00     0.163 HD
BRANCH   6   9
ATOM      9  C49 006 d   1      30.700 -10.616   5.442  0.00  0.00     0.099 C 
ATOM     10  H   006 d   1      30.782 -11.222   6.345  0.00  0.00     0.089 H 
ATOM     11  H   006 d   1      31.134 -10.981   4.511  0.00  0.00     0.089 H 
BRANCH   9  12
ATOM     12  O41 006 d   1      31.435  -9.407   5.742  0.00  0.00    -0.341 OA
BRANCH  12  13
ATOM     13  C45 006 d   1      32.837  -9.349   5.985  0.00  0.00     0.081 A 
ATOM     14  C42 006 d   1      33.752  -8.689   5.118  0.00  0.00    -0.028 A 
ATOM     15  C41 006 d   1      35.124  -8.625   5.363  0.00  0.00    -0.074 A 
ATOM     16  C40 006 d   1      35.654  -9.196   6.488  0.00  0.00    -0.082 A 
ATOM     17  H   006 d   1      35.778  -8.117   4.654  0.00  0.00     0.084 H 
ATOM     18  C47 006 d   1      34.794  -9.836   7.365  0.00  0.00    -0.074 A 
ATOM     19  H   006 d   1      36.724  -9.148   6.689  0.00  0.00     0.083 H 
ATOM     20  C46 006 d   1      33.419  -9.921   7.136  0.00  0.00    -0.028 A 
ATOM     21  H   006 d   1      35.205 -10.290   8.267  0.00  0.00     0.084 H 
BRANCH  14  22
ATOM     22  C43 006 d   1      33.339  -8.012   3.832  0.00  0.00    -0.049 C 
ATOM     23  H   006 d   1      32.881  -8.745   3.168  0.00  0.00     0.033 H 
ATOM     24  H   006 d   1      32.621  -7.222   4.053  0.00  0.00     0.033 H 
ATOM     25  H   006 d   1      34.218  -7.582   3.351  0.00  0.00     0.033 H 
ENDBRANCH  14  22
BRANCH  20  26
ATOM     26  C44 006 d   1      32.613 -10.647   8.189  0.00  0.00    -0.049 C 
ATOM     27  H   006 d   1      32.969 -11.674   8.274  0.00  0.00     0.033 H 
ATOM     28  H   006 d   1      32.729 -10.140   9.147  0.00  0.00     0.033 H 
ATOM     29  H   006 d   1      31.561 -10.649   7.903  0.00  0.00     0.033 H 
ENDBRANCH  20  26
ENDBRANCH  12  13
ENDBRANCH   9  12
ENDBRANCH   6   9
ENDBRANCH   3   5
BRANCH   3  30
ATOM     30  C21 006 d   1      26.611  -8.818   6.483  0.00  0.00    -0.019 C 
ATOM     31  H   006 d   1      25.574  -8.491   6.404  0.00  0.00     0.043 H 
ATOM     32  H   006 d   1      27.188  -7.945   6.787  0.00  0.00     0.043 H 
BRANCH  30  33
ATOM     33  C22 006 d   1      26.749  -9.923   7.477  0.00  0.00    -0.056 A 
ATOM     34  C23 006 d   1      27.540  -9.720   8.594  0.00  0.00    -0.077 A 
ATOM     35  C24 006 d   1      27.663 -10.776   9.490  0.00  0.00    -0.082 A 
ATOM     36  H   006 d   1      28.047  -8.770   8.765  0.00  0.00     0.084 H 
ATOM     37  C25 006 d   1      27.023 -12.009   9.289  0.00  0.00    -0.083 A 
ATOM     38  H   006 d   1      28.278 -10.642  10.380  0.00  0.00     0.083 H 
ATOM     39  C26 006 d   1      26.241 -12.200   8.169  0.00  0.00    -0.082 A 
ATOM     40  H   006 d   1      27.144 -12.813  10.015  0.00  0.00     0.083 H 
ATOM     41  C27 006 d   1      26.106 -11.154   7.254  0.00  0.00    -0.077 A 
ATOM     42  H   006 d   1      25.737 -13.152   8.001  0.00  0.00     0.083 H 
ATOM     43  H   006 d   1      25.498 -11.292   6.360  0.00  0.00     0.084 H 
ENDBRANCH  30  33
ENDBRANCH   3  30
ENDBRANCH   1   3
BRANCH   1  44
ATOM     44  O20 006 d   1      26.482  -7.128   4.849  0.00  0.00    -0.384 OA
ATOM     45  H   006 d   1      25.684  -7.301   5.354  0.00  0.00     0.210 HD
ENDBRANCH   1  44
BRANCH   1  46
ATOM     46  C29 006 d   1      25.660  -8.680   3.377  0.00  0.00     0.252 C 
ATOM     47  O21 006 d   1      24.626  -8.180   3.731  0.00  0.00    -0.270 OA
ATOM     48  N50 006 d   1      25.755  -9.531   2.372  0.00  0.00    -0.326 N 
ATOM     49  C50 006 d   1      26.964 -10.185   1.888  0.00  0.00     0.040 C 
ATOM     50  C54 006 d   1      24.566  -9.862   1.613  0.00  0.00     0.108 C 
ATOM     51  S50 006 d   1      26.573 -10.696   0.283  0.00  0.00    -0.137 SA
ATOM     52  H   006 d   1      27.255 -11.022   2.522  0.00  0.00     0.081 H 
ATOM     53  H   006 d   1      27.823  -9.515   1.904  0.00  0.00     0.081 H 
ATOM     54  C51 006 d   1      25.057  -9.808   0.147  0.00  0.00     0.032 C 
ATOM     55  H   006 d   1      23.720  -9.186   1.735  0.00  0.00     0.090 H 
BRANCH  54  56
ATOM     56  C52 006 d   1      24.162 -10.347  -0.986  0.00  0.00    -0.058 C 
ATOM     57  H   006 d   1      24.690 -10.262  -1.936  0.00  0.00     0.029 H 
ATOM     58  H   006 d   1      23.925 -11.393  -0.793  0.00  0.00     0.029 H 
ATOM     59  H   006 d   1      23.241  -9.766  -1.027  0.00  0.00     0.029 H 
ENDBRANCH  54  56
BRANCH  54  60
ATOM     60  C53 006 d   1      25.339  -8.346  -0.164  0.00  0.00    -0.058 C 
ATOM     61  H   006 d   1      25.938  -7.914   0.638  0.00  0.00     0.029 H 
ATOM     62  H   006 d   1      25.884  -8.275  -1.105  0.00  0.00     0.029 H 
ATOM     63  H   006 d   1      24.396  -7.805  -0.246  0.00  0.00     0.029 H 
ENDBRANCH  54  60
BRANCH  50  64
ATOM     64  C55 006 d   1      24.004 -11.156   2.080  0.00  0.00     0.242 C 
ATOM     65  N30 006 d   1      22.729 -11.297   2.347  0.00  0.00    -0.348 N 
ATOM     66  H   006 d   1      22.089 -10.509   2.249  0.00  0.00     0.163 HD
ATOM     67  O50 006 d   1      24.752 -12.055   2.205  0.00  0.00    -0.271 OA
BRANCH  65  68
ATOM     68  C31 006 d   1      22.239 -12.600   2.787  0.00  0.00     0.063 C 
ATOM     69  C32 006 d   1      21.991 -12.652   4.241  0.00  0.00    -0.027 A 
ATOM     70  C33 006 d   1      22.886 -12.267   5.269  0.00  0.00    -0.074 A 
ATOM     71  C36 006 d   1      20.740 -13.130   4.522  0.00  0.00    -0.047 A 
ATOM     72  C34 006 d   1      22.500 -12.357   6.605  0.00  0.00    -0.082 A 
ATOM     73  H   006 d   1      23.880 -11.899   5.014  0.00  0.00     0.084 H 
ATOM     74  C38 006 d   1      21.210 -12.828   6.879  0.00  0.00    -0.082 A 
ATOM     75  H   006 d   1      23.178 -12.071   7.409  0.00  0.00     0.083 H 
ATOM     76  C37 006 d   1      20.331 -13.216   5.854  0.00  0.00    -0.076 A 
ATOM     77  H   006 d   1      20.879 -12.895   7.915  0.00  0.00     0.083 H 
ATOM     78  H   006 d   1      19.334 -13.583   6.098  0.00  0.00     0.084 H 
ATOM     79  C39 006 d   1      19.944 -13.453   3.293  0.00  0.00    -0.014 C 
ATOM     80  C35 006 d   1      20.823 -12.747   2.260  0.00  0.00     0.063 C 
ATOM     81  H   006 d   1      19.779 -14.515   3.113  0.00  0.00     0.044 H 
ATOM     82  H   006 d   1      18.904 -13.129   3.316  0.00  0.00     0.044 H 
ATOM     83  H   006 d   1      20.765 -13.337   1.345  0.00  0.00     0.087 H 
ATOM     84  H   006 d   1      22.977 -13.333   2.462  0.00  0.00     0.084 H 
BRANCH  80  85
ATOM     85  O30 006 d   1      20.395 -11.402   2.088  0.00  0.00    -0.393 OA
ATOM     86  H   006 d   1      19.496 -11.394   1.752  0.00  0.00     0.210 HD
ENDBRANCH  80  85
ENDBRANCH  65  68
ENDBRANCH  50  64
ENDBRANCH   1  46
TORSDOF 16
