REMARK  4 active torsions:
REMARK  status: ('A' for Active; 'I' for Inactive)
REMARK    1  A    between atoms: N_1  and  CA_2 
REMARK    2  A    between atoms: CA_2  and  C_3 
REMARK    3  A    between atoms: CA_2  and  CB_5 
REMARK    4  A    between atoms: CB_5  and  CG_6 
ROOT
ATOM      1  CG  TRP d   1     -26.974  -5.179 -21.812  0.00  0.00    -0.028 A 
ATOM      2  CD1 TRP d   1     -26.175  -4.767 -22.839  0.00  0.00    -0.015 A 
ATOM      3  CD2 TRP d   1     -28.267  -4.616 -22.057  0.00  0.00    -0.002 A 
ATOM      4  NE1 TRP d   1     -26.894  -3.988 -23.713  0.00  0.00    -0.365 N 
ATOM      5  CE2 TRP d   1     -28.181  -3.878 -23.254  0.00  0.00     0.042 A 
ATOM      6  CE3 TRP d   1     -29.491  -4.665 -21.381  0.00  0.00    -0.070 A 
ATOM      7  CZ2 TRP d   1     -29.272  -3.196 -23.790  0.00  0.00    -0.056 A 
ATOM      8  CZ3 TRP d   1     -30.571  -3.987 -21.914  0.00  0.00    -0.082 A 
ATOM      9  CH2 TRP d   1     -30.455  -3.263 -23.106  0.00  0.00    -0.081 A 
ATOM     10  H   TRP d   1     -25.120  -5.019 -22.950  0.00  0.00     0.112 H 
ATOM     11  H   TRP d   1     -26.529  -3.561 -24.565  0.00  0.00     0.165 HD
ATOM     12  H   TRP d   1     -29.591  -5.227 -20.452  0.00  0.00     0.084 H 
ATOM     13  H   TRP d   1     -29.186  -2.631 -24.718  0.00  0.00     0.086 H 
ATOM     14  H   TRP d   1     -31.530  -4.017 -21.397  0.00  0.00     0.083 H 
ATOM     15  H   TRP d   1     -31.327  -2.740 -23.498  0.00  0.00     0.083 H 
ENDROOT
BRANCH   1  16
ATOM     16  CB  TRP d   1     -26.579  -6.035 -20.655  0.00  0.00    -0.003 C 
ATOM     17  H   TRP d   1     -27.248  -6.895 -20.641  0.00  0.00     0.044 H 
ATOM     18  H   TRP d   1     -25.530  -6.300 -20.788  0.00  0.00     0.044 H 
BRANCH  16  19
ATOM     19  CA  TRP d   1     -26.707  -5.333 -19.302  0.00  0.00     0.186 C 
ATOM     20  H   TRP d   1     -27.748  -5.051 -19.145  0.00  0.00     0.101 H 
BRANCH  19  21
ATOM     21  N   TRP d   1     -25.911  -4.110 -19.282  0.00  0.00    -0.065 N 
ATOM     22  H   TRP d   1     -26.009  -3.657 -18.373  0.00  0.00     0.275 HD
ATOM     23  H   TRP d   1     -24.931  -4.341 -19.444  0.00  0.00     0.275 HD
ATOM     24  H   TRP d   1     -26.239  -3.480 -20.014  0.00  0.00     0.275 HD
ENDBRANCH  19  21
BRANCH  19  25
ATOM     25  C   TRP d   1     -26.298  -6.281 -18.182  0.00  0.00     0.204 C 
ATOM     26  O   TRP d   1     -26.882  -7.349 -18.005  0.00  0.00    -0.646 OA
ATOM     27  OXT TRP d   1     -25.377  -5.999 -17.422  0.00  0.00    -0.646 OA
ENDBRANCH  19  25
ENDBRANCH  16  19
ENDBRANCH   1  16
TORSDOF 4
