REMARK  4 active torsions:
REMARK  status: ('A' for Active; 'I' for Inactive)
REMARK    1  A    between atoms: N_1  and  CA_2 
REMARK    2  A    between atoms: CA_2  and  C_3 
REMARK    3  A    between atoms: CA_2  and  CB_5 
REMARK    4  A    between atoms: CB_5  and  CG_6 
ROOT
ATOM      1  CG  TRP d   1      28.209  30.562  21.891  0.00  0.00    -0.028 A 
ATOM      2  CD1 TRP d   1      27.601  30.370  23.096  0.00  0.00    -0.015 A 
ATOM      3  CD2 TRP d   1      28.733  31.889  21.910  0.00  0.00    -0.002 A 
ATOM      4  NE1 TRP d   1      27.717  31.499  23.868  0.00  0.00    -0.365 N 
ATOM      5  CE2 TRP d   1      28.409  32.448  23.161  0.00  0.00     0.042 A 
ATOM      6  CE3 TRP d   1      29.446  32.661  20.988  0.00  0.00    -0.070 A 
ATOM      7  CZ2 TRP d   1      28.775  33.746  23.513  0.00  0.00    -0.056 A 
ATOM      8  CZ3 TRP d   1      29.809  33.947  21.338  0.00  0.00    -0.082 A 
ATOM      9  CH2 TRP d   1      29.473  34.478  22.589  0.00  0.00    -0.081 A 
ATOM     10  H   TRP d   1      27.096  29.453  23.402  0.00  0.00     0.112 H 
ATOM     11  H   TRP d   1      27.349  31.613  24.812  0.00  0.00     0.165 HD
ATOM     12  H   TRP d   1      29.710  32.256  20.011  0.00  0.00     0.084 H 
ATOM     13  H   TRP d   1      28.516  34.163  24.486  0.00  0.00     0.086 H 
ATOM     14  H   TRP d   1      30.366  34.559  20.628  0.00  0.00     0.083 H 
ATOM     15  H   TRP d   1      29.773  35.497  22.833  0.00  0.00     0.083 H 
ENDROOT
BRANCH   1  16
ATOM     16  CB  TRP d   1      28.319  29.582  20.776  0.00  0.00    -0.003 C 
ATOM     17  H   TRP d   1      29.380  29.408  20.596  0.00  0.00     0.044 H 
ATOM     18  H   TRP d   1      27.776  28.685  21.073  0.00  0.00     0.044 H 
BRANCH  16  19
ATOM     19  CA  TRP d   1      27.706  30.077  19.468  0.00  0.00     0.186 C 
ATOM     20  H   TRP d   1      28.394  30.786  19.007  0.00  0.00     0.101 H 
BRANCH  19  21
ATOM     21  N   TRP d   1      26.442  30.755  19.745  0.00  0.00    -0.065 N 
ATOM     22  H   TRP d   1      26.035  31.084  18.869  0.00  0.00     0.275 HD
ATOM     23  H   TRP d   1      25.800  30.103  20.196  0.00  0.00     0.275 HD
ATOM     24  H   TRP d   1      26.612  31.549  20.362  0.00  0.00     0.275 HD
ENDBRANCH  19  21
BRANCH  19  25
ATOM     25  C   TRP d   1      27.512  28.925  18.466  0.00  0.00     0.204 C 
ATOM     26  O   TRP d   1      28.375  28.100  18.139  0.00  0.00    -0.646 OA
ATOM     27  OXT TRP d   1      26.420  28.793  17.942  0.00  0.00    -0.646 OA
ENDBRANCH  19  25
ENDBRANCH  16  19
ENDBRANCH   1  16
TORSDOF 4
