REMARK  4 active torsions:
REMARK  status: ('A' for Active; 'I' for Inactive)
REMARK    1  A    between atoms: N_1  and  CA_2 
REMARK    2  A    between atoms: CA_2  and  C_3 
REMARK    3  A    between atoms: CA_2  and  CB_5 
REMARK    4  A    between atoms: CB_5  and  CG_6 
ROOT
ATOM      1  CG  TRP d   1      28.589  -0.202  21.665  0.00  0.00    -0.028 A 
ATOM      2  CD1 TRP d   1      27.886  -0.647  22.746  0.00  0.00    -0.015 A 
ATOM      3  CD2 TRP d   1      29.021   1.125  21.987  0.00  0.00    -0.002 A 
ATOM      4  NE1 TRP d   1      27.860   0.316  23.725  0.00  0.00    -0.365 N 
ATOM      5  CE2 TRP d   1      28.549   1.415  23.284  0.00  0.00     0.042 A 
ATOM      6  CE3 TRP d   1      29.764   2.096  21.308  0.00  0.00    -0.070 A 
ATOM      7  CZ2 TRP d   1      28.796   2.633  23.914  0.00  0.00    -0.056 A 
ATOM      8  CZ3 TRP d   1      30.007   3.304  21.934  0.00  0.00    -0.082 A 
ATOM      9  CH2 TRP d   1      29.526   3.562  23.224  0.00  0.00    -0.081 A 
ATOM     10  H   TRP d   1      27.413  -1.626  22.822  0.00  0.00     0.112 H 
ATOM     11  H   TRP d   1      27.402   0.227  24.632  0.00  0.00     0.165 HD
ATOM     12  H   TRP d   1      30.144   1.904  20.305  0.00  0.00     0.084 H 
ATOM     13  H   TRP d   1      28.422   2.838  24.917  0.00  0.00     0.086 H 
ATOM     14  H   TRP d   1      30.583   4.070  21.415  0.00  0.00     0.083 H 
ATOM     15  H   TRP d   1      29.738   4.525  23.689  0.00  0.00     0.083 H 
ENDROOT
BRANCH   1  16
ATOM     16  CB  TRP d   1      28.846  -0.947  20.386  0.00  0.00    -0.003 C 
ATOM     17  H   TRP d   1      29.908  -0.853  20.160  0.00  0.00     0.044 H 
ATOM     18  H   TRP d   1      28.523  -1.977  20.536  0.00  0.00     0.044 H 
BRANCH  16  19
ATOM     19  CA  TRP d   1      28.071  -0.392  19.192  0.00  0.00     0.186 C 
ATOM     20  H   TRP d   1      28.734   0.248  18.610  0.00  0.00     0.101 H 
BRANCH  19  21
ATOM     21  N   TRP d   1      26.941   0.401  19.647  0.00  0.00    -0.065 N 
ATOM     22  H   TRP d   1      26.435   0.764  18.839  0.00  0.00     0.275 HD
ATOM     23  H   TRP d   1      26.319  -0.184  20.205  0.00  0.00     0.275 HD
ATOM     24  H   TRP d   1      27.279   1.178  20.215  0.00  0.00     0.275 HD
ENDBRANCH  19  21
BRANCH  19  25
ATOM     25  C   TRP d   1      27.585  -1.535  18.314  0.00  0.00     0.204 C 
ATOM     26  O   TRP d   1      28.295  -2.517  18.114  0.00  0.00    -0.646 OA
ATOM     27  OXT TRP d   1      26.471  -1.506  17.793  0.00  0.00    -0.646 OA
ENDBRANCH  19  25
ENDBRANCH  16  19
ENDBRANCH   1  16
TORSDOF 4
