REMARK  3 active torsions:
REMARK  status: ('A' for Active; 'I' for Inactive)
REMARK    1  A    between atoms: CAL_12  and  CAN_14 
REMARK    2  A    between atoms: CAO_15  and  CAL_12 
REMARK    3  A    between atoms: CAM_13  and  CAP_16 
ROOT
ATOM      1  CAL 17D d   1       5.735 -11.700  31.860  0.00  0.00    -0.016 C 
ATOM      2  H   17D d   1       4.784 -11.645  31.331  0.00  0.00     0.047 H 
ATOM      3  H   17D d   1       5.899 -12.546  32.528  0.00  0.00     0.047 H 
ENDROOT
BRANCH   1   4
ATOM      4  CAN 17D d   1       5.775 -10.454  32.761  0.00  0.00    -0.054 A 
ATOM      5  CAH 17D d   1       4.757 -10.332  33.720  0.00  0.00    -0.077 A 
ATOM      6  CAD 17D d   1       4.723  -9.221  34.573  0.00  0.00    -0.082 A 
ATOM      7  H   17D d   1       3.991 -11.103  33.801  0.00  0.00     0.084 H 
ATOM      8  CAC 17D d   1       5.719  -8.250  34.462  0.00  0.00    -0.083 A 
ATOM      9  H   17D d   1       3.930  -9.117  35.313  0.00  0.00     0.083 H 
ATOM     10  CAE 17D d   1       6.737  -8.365  33.511  0.00  0.00    -0.082 A 
ATOM     11  H   17D d   1       5.703  -7.387  35.128  0.00  0.00     0.083 H 
ATOM     12  CAI 17D d   1       6.771  -9.462  32.655  0.00  0.00    -0.077 A 
ATOM     13  H   17D d   1       7.505  -7.595  33.440  0.00  0.00     0.083 H 
ATOM     14  H   17D d   1       7.561  -9.553  31.909  0.00  0.00     0.084 H 
ENDBRANCH   1   4
BRANCH   1  15
ATOM     15  CAO 17D d   1       6.816 -11.832  30.753  0.00  0.00    -0.037 A 
ATOM     16  CAJ 17D d   1       6.784 -10.911  29.702  0.00  0.00    -0.075 A 
ATOM     17  CAF 17D d   1       7.696 -10.997  28.652  0.00  0.00    -0.082 A 
ATOM     18  H   17D d   1       6.037 -10.117  29.704  0.00  0.00     0.084 H 
ATOM     19  CAG 17D d   1       8.652 -12.012  28.646  0.00  0.00    -0.082 A 
ATOM     20  H   17D d   1       7.662 -10.273  27.838  0.00  0.00     0.083 H 
ATOM     21  CAK 17D d   1       8.701 -12.957  29.669  0.00  0.00    -0.066 A 
ATOM     22  H   17D d   1       9.372 -12.067  27.829  0.00  0.00     0.083 H 
ATOM     23  CAP 17D d   1       7.783 -12.861  30.720  0.00  0.00     0.047 A 
ATOM     24  H   17D d   1       9.441 -13.757  29.651  0.00  0.00     0.085 H 
BRANCH  23  25
ATOM     25  CAM 17D d   1       7.873 -13.923  31.836  0.00  0.00     0.209 C 
ATOM     26  OAA 17D d   1       8.554 -14.931  31.570  0.00  0.00    -0.644 OA
ATOM     27  OAB 17D d   1       7.289 -13.740  32.941  0.00  0.00    -0.644 OA
ENDBRANCH  23  25
ENDBRANCH   1  15
TORSDOF 3
