REMARK  10 active torsions:
REMARK  status: ('A' for Active; 'I' for Inactive)
REMARK    1  A    between atoms: C4_5  and  C7_8 
REMARK    2  A    between atoms: C10_11  and  C13_14 
REMARK    3  A    between atoms: C13_14  and  O14_15 
REMARK    4  A    between atoms: O14_15  and  N15_16 
REMARK    5  A    between atoms: C16_17  and  C17_18 
REMARK    6  A    between atoms: C16_17  and  C26_30 
REMARK    7  A    between atoms: C20_22  and  C24_28 
REMARK    8  A    between atoms: C20_22  and  C25_29 
REMARK    9  A    between atoms: C26_30  and  C27_31 
REMARK   10  A    between atoms: C27_31  and  C28_32 
ROOT
ATOM      1  C17 743 d   1      58.647  14.653  43.771  0.00  0.00     0.103 C 
ATOM      2  C18 743 d   1      57.281  14.790  44.423  0.00  0.00     0.162 C 
ATOM      3  O18 743 d   1      56.465  15.630  44.021  0.00  0.00    -0.295 OA
ATOM      4  C19 743 d   1      57.052  13.924  45.645  0.00  0.00     0.096 C 
ATOM      5  C20 743 d   1      57.680  12.499  45.555  0.00  0.00    -0.018 C 
ATOM      6  C21 743 d   1      59.172  12.645  45.370  0.00  0.00    -0.001 C 
ATOM      7  C22 743 d   1      59.441  13.415  44.090  0.00  0.00     0.144 C 
ATOM      8  O22 743 d   1      60.419  13.141  43.429  0.00  0.00    -0.297 OA
ATOM      9  C23 743 d   1      55.647  13.797  46.128  0.00  0.00     0.072 C 
ATOM     10  N23 743 d   1      54.547  13.658  46.548  0.00  0.00    -0.196 NA
ATOM     11  H11 743 d   1      59.218  15.380  44.368  0.00  0.00     0.073 H 
ATOM     12  H12 743 d   1      57.593  14.442  46.451  0.00  0.00     0.076 H 
ATOM     13  H13 743 d   1      59.634  11.649  45.305  0.00  0.00     0.045 H 
ATOM     14  H14 743 d   1      59.597  13.191  46.225  0.00  0.00     0.045 H 
ENDROOT
BRANCH   5  15
ATOM     15  C24 743 d   1      57.382  11.796  46.874  0.00  0.00    -0.067 C 
ATOM     16  H15 743 d   1      56.294  11.695  46.998  0.00  0.00     0.028 H 
ATOM     17  H16 743 d   1      57.793  12.387  47.706  0.00  0.00     0.028 H 
ATOM     18  H17 743 d   1      57.844  10.798  46.870  0.00  0.00     0.028 H 
ENDBRANCH   5  15
BRANCH   5  19
ATOM     19  C25 743 d   1      57.140  11.623  44.394  0.00  0.00    -0.067 C 
ATOM     20  H18 743 d   1      57.348  12.118  43.434  0.00  0.00     0.028 H 
ATOM     21  H19 743 d   1      56.054  11.489  44.510  0.00  0.00     0.028 H 
ATOM     22  H20 743 d   1      57.635  10.641  44.415  0.00  0.00     0.028 H 
ENDBRANCH   5  19
BRANCH   1  23
ATOM     23  C16 743 d   1      58.763  15.308  42.405  0.00  0.00     0.058 C 
ATOM     24  N15 743 d   1      58.189  14.860  41.369  0.00  0.00    -0.141 NA
BRANCH  24  25
ATOM     25  O14 743 d   1      57.421  13.723  41.418  0.00  0.00    -0.252 OA
BRANCH  25  26
ATOM     26  C13 743 d   1      56.160  13.754  40.684  0.00  0.00     0.071 C 
ATOM     27  H9  743 d   1      55.739  14.768  40.748  0.00  0.00     0.085 H 
ATOM     28  H10 743 d   1      56.358  13.505  39.631  0.00  0.00     0.085 H 
BRANCH  26  29
ATOM     29  C10 743 d   1      55.141  12.763  41.240  0.00  0.00    -0.032 A 
ATOM     30  C9  743 d   1      54.407  13.043  42.387  0.00  0.00    -0.074 A 
ATOM     31  C8  743 d   1      53.498  12.126  42.932  0.00  0.00    -0.072 A 
ATOM     32  H6  743 d   1      54.542  14.001  42.875  0.00  0.00     0.084 H 
ATOM     33  C7  743 d   1      53.266  10.891  42.278  0.00  0.00    -0.026 A 
ATOM     34  H5  743 d   1      52.974  12.361  43.851  0.00  0.00     0.084 H 
ATOM     35  C12 743 d   1      53.969  10.624  41.112  0.00  0.00    -0.072 A 
ATOM     36  C11 743 d   1      54.909  11.551  40.588  0.00  0.00    -0.074 A 
ATOM     37  H8  743 d   1      53.797   9.689  40.590  0.00  0.00     0.084 H 
ATOM     38  H7  743 d   1      55.449  11.316  39.678  0.00  0.00     0.084 H 
BRANCH  33  39
ATOM     39  C4  743 d   1      52.334   9.981  42.782  0.00  0.00    -0.026 A 
ATOM     40  C3  743 d   1      51.643  10.290  43.953  0.00  0.00    -0.069 A 
ATOM     41  C2  743 d   1      50.711   9.400  44.519  0.00  0.00    -0.045 A 
ATOM     42  H2  743 d   1      51.828  11.241  44.440  0.00  0.00     0.085 H 
ATOM     43  C1  743 d   1      50.455   8.209  43.845  0.00  0.00     0.116 A 
ATOM     44  H1  743 d   1      50.208   9.634  45.450  0.00  0.00     0.088 H 
ATOM     45  F1  743 d   1      49.551   7.367  44.368  0.00  0.00    -0.206 F 
ATOM     46  C6  743 d   1      51.079   7.917  42.617  0.00  0.00    -0.045 A 
ATOM     47  C5  743 d   1      52.014   8.778  42.080  0.00  0.00    -0.069 A 
ATOM     48  H4  743 d   1      50.822   7.006  42.088  0.00  0.00     0.088 H 
ATOM     49  H3  743 d   1      52.499   8.545  41.139  0.00  0.00     0.085 H 
ENDBRANCH  33  39
ENDBRANCH  26  29
ENDBRANCH  25  26
ENDBRANCH  24  25
BRANCH  23  50
ATOM     50  C26 743 d   1      59.506  16.620  42.299  0.00  0.00    -0.025 C 
ATOM     51  H21 743 d   1      59.645  17.003  43.321  0.00  0.00     0.042 H 
ATOM     52  H22 743 d   1      58.869  17.314  41.731  0.00  0.00     0.042 H 
BRANCH  50  53
ATOM     53  C27 743 d   1      60.869  16.604  41.630  0.00  0.00    -0.064 C 
ATOM     54  H23 743 d   1      60.766  16.323  40.572  0.00  0.00     0.032 H 
ATOM     55  H24 743 d   1      61.529  15.885  42.137  0.00  0.00     0.032 H 
BRANCH  53  56
ATOM     56  C28 743 d   1      61.443  18.004  41.742  0.00  0.00    -0.076 C 
ATOM     57  H25 743 d   1      62.435  18.033  41.267  0.00  0.00     0.027 H 
ATOM     58  H26 743 d   1      61.537  18.278  42.803  0.00  0.00     0.027 H 
ATOM     59  H27 743 d   1      60.774  18.716  41.237  0.00  0.00     0.027 H 
ENDBRANCH  53  56
ENDBRANCH  50  53
ENDBRANCH  23  50
ENDBRANCH   1  23
TORSDOF 10
