REMARK  14 active torsions:
REMARK  status: ('A' for Active; 'I' for Inactive)
REMARK    1  A    between atoms: C1_1  and  C2_2 
REMARK    2  A    between atoms: C2_2  and  C3_3 
REMARK    3  A    between atoms: C3_3  and  N1_4 
REMARK       I    between atoms: N1_4  and  C4_5 
REMARK    4  A    between atoms: C4_5  and  C5_7 
REMARK    5  A    between atoms: C5_7  and  O2_8 
REMARK    6  A    between atoms: C5_7  and  C6_9 
REMARK    7  A    between atoms: C6_9  and  C7_10 
REMARK       I    between atoms: C7_10  and  N2_12 
REMARK    8  A    between atoms: N2_12  and  C8_13 
REMARK    9  A    between atoms: C8_13  and  C13_14 
REMARK   10  A    between atoms: C8_13  and  C9_16 
REMARK       I    between atoms: C13_14  and  N3_20 
REMARK   11  A    between atoms: C9_16  and  C11_17 
REMARK   12  A    between atoms: C9_16  and  C10_18 
REMARK   13  A    between atoms: C11_17  and  C12_19 
REMARK   14  A    between atoms: C17_21  and  C18_22 
ROOT
ATOM      1  C8  074 d   1      17.334  17.403  20.354  0.00  0.00     0.092 C 
ATOM      2  H   074 d   1      17.549  17.430  21.422  0.00  0.00     0.088 H 
ENDROOT
BRANCH   1   3
ATOM      3  N2  074 d   1      17.358  16.008  19.997  0.00  0.00    -0.347 N 
ATOM      4  C7  074 d   1      16.793  15.069  20.743  0.00  0.00     0.221 C 
ATOM      5  O3  074 d   1      16.051  15.334  21.695  0.00  0.00    -0.273 OA
ATOM      6  H   074 d   1      17.829  15.731  19.135  0.00  0.00     0.163 HD
BRANCH   4   7
ATOM      7  C6  074 d   1      17.230  13.696  20.377  0.00  0.00     0.041 C 
ATOM      8  H   074 d   1      16.383  13.022  20.247  0.00  0.00     0.051 H 
ATOM      9  H   074 d   1      17.751  13.678  19.420  0.00  0.00     0.051 H 
BRANCH   7  10
ATOM     10  C5  074 d   1      18.151  13.247  21.544  0.00  0.00     0.120 C 
ATOM     11  H   074 d   1      17.640  13.396  22.495  0.00  0.00     0.098 H 
BRANCH  10  12
ATOM     12  C4  074 d   1      18.525  11.808  21.421  0.00  0.00     0.246 C 
ATOM     13  N1  074 d   1      19.262  11.356  20.403  0.00  0.00    -0.359 N 
ATOM     14  H   074 d   1      19.542  12.017  19.679  0.00  0.00     0.162 HD
ATOM     15  O1  074 d   1      18.187  11.044  22.364  0.00  0.00    -0.271 OA
BRANCH  13  16
ATOM     16  C3  074 d   1      19.694   9.945  20.270  0.00  0.00    -0.005 C 
ATOM     17  H   074 d   1      20.612   9.909  19.684  0.00  0.00     0.064 H 
ATOM     18  H   074 d   1      19.861   9.530  21.264  0.00  0.00     0.064 H 
BRANCH  16  19
ATOM     19  C2  074 d   1      18.627   9.129  19.567  0.00  0.00    -0.054 C 
ATOM     20  H   074 d   1      17.758   9.075  20.223  0.00  0.00     0.034 H 
ATOM     21  H   074 d   1      18.404   9.615  18.617  0.00  0.00     0.034 H 
BRANCH  19  22
ATOM     22  C1  074 d   1      19.075   7.723  19.275  0.00  0.00    -0.075 C 
ATOM     23  H   074 d   1      19.955   7.750  18.633  0.00  0.00     0.027 H 
ATOM     24  H   074 d   1      19.321   7.220  20.210  0.00  0.00     0.027 H 
ATOM     25  H   074 d   1      18.272   7.184  18.771  0.00  0.00     0.027 H 
ENDBRANCH  19  22
ENDBRANCH  16  19
ENDBRANCH  13  16
ENDBRANCH  10  12
BRANCH  10  26
ATOM     26  O2  074 d   1      19.368  14.011  21.404  0.00  0.00    -0.386 OA
ATOM     27  H   074 d   1      19.167  14.947  21.478  0.00  0.00     0.210 HD
ENDBRANCH  10  26
ENDBRANCH   7  10
ENDBRANCH   4   7
ENDBRANCH   1   3
BRANCH   1  28
ATOM     28  C13 074 d   1      16.028  18.106  20.229  0.00  0.00     0.243 C 
ATOM     29  O4  074 d   1      15.198  17.691  19.426  0.00  0.00    -0.271 OA
ATOM     30  N3  074 d   1      15.868  19.184  20.993  0.00  0.00    -0.336 N 
ATOM     31  C17 074 d   1      14.708  20.017  20.788  0.00  0.00     0.098 C 
ATOM     32  C14 074 d   1      16.769  19.683  22.028  0.00  0.00    -0.001 C 
ATOM     33  C16 074 d   1      14.641  20.876  22.029  0.00  0.00    -0.035 C 
ATOM     34  H   074 d   1      13.812  19.427  20.597  0.00  0.00     0.089 H 
ATOM     35  C15 074 d   1      16.075  20.947  22.474  0.00  0.00    -0.048 C 
ATOM     36  H   074 d   1      13.983  20.461  22.793  0.00  0.00     0.036 H 
ATOM     37  H   074 d   1      14.210  21.859  21.838  0.00  0.00     0.036 H 
ATOM     38  H   074 d   1      16.127  21.041  23.559  0.00  0.00     0.035 H 
ATOM     39  H   074 d   1      16.562  21.817  22.034  0.00  0.00     0.035 H 
ATOM     40  H   074 d   1      17.784  19.854  21.668  0.00  0.00     0.064 H 
ATOM     41  H   074 d   1      16.928  18.972  22.838  0.00  0.00     0.064 H 
BRANCH  31  42
ATOM     42  C18 074 d   1      14.971  20.979  19.603  0.00  0.00     0.196 C 
ATOM     43  O   074 d   1      16.124  21.077  19.043  0.00  0.00    -0.646 OA
ATOM     44  OT  074 d   1      14.034  21.712  19.210  0.00  0.00    -0.646 OA
ENDBRANCH  31  42
ENDBRANCH   1  28
BRANCH   1  45
ATOM     45  C9  074 d   1      18.416  18.155  19.468  0.00  0.00    -0.030 C 
ATOM     46  H   074 d   1      18.402  19.227  19.662  0.00  0.00     0.043 H 
BRANCH  45  47
ATOM     47  C11 074 d   1      18.091  18.006  17.975  0.00  0.00    -0.063 C 
ATOM     48  H   074 d   1      17.030  18.190  17.808  0.00  0.00     0.033 H 
ATOM     49  H   074 d   1      18.329  16.995  17.645  0.00  0.00     0.033 H 
BRANCH  47  50
ATOM     50  C12 074 d   1      18.917  19.012  17.190  0.00  0.00    -0.076 C 
ATOM     51  H   074 d   1      18.671  20.020  17.523  0.00  0.00     0.027 H 
ATOM     52  H   074 d   1      19.977  18.820  17.358  0.00  0.00     0.027 H 
ATOM     53  H   074 d   1      18.693  18.914  16.128  0.00  0.00     0.027 H 
ENDBRANCH  47  50
ENDBRANCH  45  47
BRANCH  45  54
ATOM     54  C10 074 d   1      19.832  17.615  19.857  0.00  0.00    -0.071 C 
ATOM     55  H   074 d   1      20.015  17.807  20.914  0.00  0.00     0.028 H 
ATOM     56  H   074 d   1      19.875  16.542  19.669  0.00  0.00     0.028 H 
ATOM     57  H   074 d   1      20.589  18.121  19.258  0.00  0.00     0.028 H 
ENDBRANCH  45  54
ENDBRANCH   1  45
TORSDOF 14
