REMARK  5 active torsions:
REMARK  status: ('A' for Active; 'I' for Inactive)
REMARK    1  A    between atoms: C1_1  and  C2_2 
REMARK    2  A    between atoms: C8_10  and  C10_12 
REMARK    3  A    between atoms: C8_10  and  C11_13 
REMARK    4  A    between atoms: C15_17  and  C24_28 
REMARK    5  A    between atoms: C18_21  and  C23_27 
REMARK       I    between atoms: C24_28  and  N4_30 
ROOT
ATOM      1  C2  05S d   1      39.826  10.368  23.545  0.00  0.00    -0.023 A 
ATOM      2  C3  05S d   1      38.478   9.998  23.632  0.00  0.00     0.024 A 
ATOM      3  N1  05S d   1      37.770  11.113  24.097  0.00  0.00    -0.318 N 
ATOM      4  C4  05S d   1      38.656  12.150  24.297  0.00  0.00     0.032 A 
ATOM      5  C5  05S d   1      39.926  11.708  24.014  0.00  0.00     0.041 A 
ATOM      6  C6  05S d   1      41.075  12.599  24.156  0.00  0.00     0.162 C 
ATOM      7  O1  05S d   1      42.225  12.161  24.154  0.00  0.00    -0.292 OA
ATOM      8  C7  05S d   1      40.808  14.017  24.666  0.00  0.00     0.002 C 
ATOM      9  C8  05S d   1      39.528  14.153  25.531  0.00  0.00    -0.036 C 
ATOM     10  C9  05S d   1      38.309  13.511  24.814  0.00  0.00    -0.019 C 
ATOM     11  C12 05S d   1      36.383  11.219  24.339  0.00  0.00     0.041 A 
ATOM     12  C13 05S d   1      35.567  12.132  23.677  0.00  0.00    -0.056 A 
ATOM     13  C14 05S d   1      34.187  12.085  23.900  0.00  0.00    -0.063 A 
ATOM     14  C15 05S d   1      33.623  11.134  24.780  0.00  0.00     0.058 A 
ATOM     15  C16 05S d   1      34.449  10.211  25.467  0.00  0.00     0.046 A 
ATOM     16  C17 05S d   1      35.828  10.319  25.251  0.00  0.00    -0.030 A 
ATOM     17  N2  05S d   1      33.942   9.280  26.370  0.00  0.00    -0.383 N 
ATOM     18  C18 05S d   1      34.725   8.335  27.173  0.00  0.00     0.029 C 
ATOM     19  C19 05S d   1      35.163   7.111  26.349  0.00  0.00     0.100 C 
ATOM     20  N3  05S d   1      35.773   7.470  25.027  0.00  0.00    -0.073 N 
ATOM     21  C20 05S d   1      36.920   6.623  24.542  0.00  0.00     0.082 C 
ATOM     22  C21 05S d   1      38.106   7.487  24.108  0.00  0.00    -0.038 C 
ATOM     23  C22 05S d   1      37.827   8.701  23.200  0.00  0.00    -0.024 C 
ATOM     24  H4  05S d   1      40.709  14.683  23.796  0.00  0.00     0.046 H 
ATOM     25  H5  05S d   1      41.669  14.333  25.273  0.00  0.00     0.046 H 
ATOM     26  H6  05S d   1      37.475  13.425  25.526  0.00  0.00     0.043 H 
ATOM     27  H7  05S d   1      38.007  14.151  23.972  0.00  0.00     0.043 H 
ATOM     28  H14 05S d   1      35.993  12.865  23.002  0.00  0.00     0.087 H 
ATOM     29  H15 05S d   1      33.540  12.789  23.390  0.00  0.00     0.085 H 
ATOM     30  H16 05S d   1      36.493   9.676  25.816  0.00  0.00     0.090 H 
ATOM     31  H17 05S d   1      32.919   9.252  26.485  0.00  0.00     0.160 HD
ATOM     32  H18 05S d   1      35.622   8.842  27.558  0.00  0.00     0.074 H 
ATOM     33  H19 05S d   1      34.281   6.480  26.166  0.00  0.00     0.078 H 
ATOM     34  H20 05S d   1      35.904   6.545  26.933  0.00  0.00     0.078 H 
ATOM     35  H21 05S d   1      36.105   8.419  25.095  0.00  0.00     0.277 HD
ATOM     36  H22 05S d   1      35.044   7.418  24.333  0.00  0.00     0.277 HD
ATOM     37  H23 05S d   1      36.583   6.021  23.685  0.00  0.00     0.075 H 
ATOM     38  H24 05S d   1      37.242   5.956  25.355  0.00  0.00     0.075 H 
ATOM     39  H25 05S d   1      38.808   6.832  23.571  0.00  0.00     0.035 H 
ATOM     40  H26 05S d   1      38.585   7.867  25.022  0.00  0.00     0.035 H 
ATOM     41  H27 05S d   1      38.189   8.460  22.190  0.00  0.00     0.042 H 
ATOM     42  H28 05S d   1      36.739   8.860  23.171  0.00  0.00     0.042 H 
ENDROOT
BRANCH   9  43
ATOM     43  C10 05S d   1      39.229  15.636  25.852  0.00  0.00    -0.069 C 
ATOM     44  H8  05S d   1      40.096  16.083  26.359  0.00  0.00     0.028 H 
ATOM     45  H9  05S d   1      38.348  15.699  26.508  0.00  0.00     0.028 H 
ATOM     46  H10 05S d   1      39.030  16.181  24.917  0.00  0.00     0.028 H 
ENDBRANCH   9  43
BRANCH   9  47
ATOM     47  C11 05S d   1      39.760  13.412  26.859  0.00  0.00    -0.069 C 
ATOM     48  H11 05S d   1      39.975  12.353  26.655  0.00  0.00     0.028 H 
ATOM     49  H12 05S d   1      38.858  13.489  27.484  0.00  0.00     0.028 H 
ATOM     50  H13 05S d   1      40.612  13.864  27.387  0.00  0.00     0.028 H 
ENDBRANCH   9  47
BRANCH   1  51
ATOM     51  C1  05S d   1      40.967   9.516  23.094  0.00  0.00    -0.048 C 
ATOM     52  H1  05S d   1      40.589   8.530  22.787  0.00  0.00     0.033 H 
ATOM     53  H2  05S d   1      41.682   9.394  23.921  0.00  0.00     0.033 H 
ATOM     54  H3  05S d   1      41.470   9.997  22.242  0.00  0.00     0.033 H 
ENDBRANCH   1  51
BRANCH  14  55
ATOM     55  C24 05S d   1      32.152  11.136  25.001  0.00  0.00     0.251 C 
ATOM     56  O2  05S d   1      31.691  10.661  26.029  0.00  0.00    -0.268 OA
ATOM     57  N4  05S d   1      31.374  11.705  24.017  0.00  0.00    -0.366 N 
ATOM     58  H32 05S d   1      30.380  11.731  24.119  0.00  0.00     0.159 HD
ATOM     59  H33 05S d   1      31.804  12.092  23.201  0.00  0.00     0.159 HD
ENDBRANCH  14  55
BRANCH  18  60
ATOM     60  C23 05S d   1      33.841   7.884  28.348  0.00  0.00    -0.056 C 
ATOM     61  H29 05S d   1      34.398   7.172  28.974  0.00  0.00     0.030 H 
ATOM     62  H30 05S d   1      32.934   7.399  27.959  0.00  0.00     0.030 H 
ATOM     63  H31 05S d   1      33.559   8.759  28.951  0.00  0.00     0.030 H 
ENDBRANCH  18  60
TORSDOF 5
