REMARK  4 active torsions:
REMARK  status: ('A' for Active; 'I' for Inactive)
REMARK    1  A    between atoms: C5_9  and  C4_7 
REMARK    2  A    between atoms: C6_11  and  C5_9 
REMARK    3  A    between atoms: N5_10  and  C11_17 
REMARK    4  A    between atoms: C8_14  and  C7_13 
ROOT
ATOM      1  N2  3QT d   1      16.228  22.633 -17.601  0.00  0.00    -0.218 N 
ATOM      2  N3  3QT d   1      17.111  23.531 -17.070  0.00  0.00    -0.165 NA
ATOM      3  C6  3QT d   1      15.178  22.941 -18.443  0.00  0.00     0.060 A 
ATOM      4  N6  3QT d   1      15.180  20.693 -18.070  0.00  0.00    -0.239 NA
ATOM      5  C7  3QT d   1      18.045  22.974 -16.277  0.00  0.00     0.090 A 
ATOM      6  C12 3QT d   1      18.113  21.567 -16.008  0.00  0.00    -0.049 A 
ATOM      7  C13 3QT d   1      17.198  20.703 -16.562  0.00  0.00    -0.035 A 
ATOM      8  C14 3QT d   1      16.187  21.234 -17.402  0.00  0.00     0.150 A 
ATOM      9  C15 3QT d   1      14.549  21.755 -18.707  0.00  0.00     0.029 A 
ATOM     10  H10 3QT d   1      18.897  21.179 -15.359  0.00  0.00     0.087 H 
ATOM     11  H11 3QT d   1      17.249  19.634 -16.360  0.00  0.00     0.089 H 
ATOM     12  H12 3QT d   1      13.666  21.656 -19.336  0.00  0.00     0.118 H 
ENDROOT
BRANCH   3  13
ATOM     13  C5  3QT d   1      14.848  24.329 -18.894  0.00  0.00     0.001 C 
ATOM     14  H3  3QT d   1      15.777  24.840 -19.187  0.00  0.00     0.049 H 
ATOM     15  H4  3QT d   1      14.172  24.272 -19.760  0.00  0.00     0.049 H 
BRANCH  13  16
ATOM     16  C4  3QT d   1      14.171  25.129 -17.790  0.00  0.00    -0.051 A 
ATOM     17  C3  3QT d   1      12.831  24.861 -17.404  0.00  0.00    -0.074 A 
ATOM     18  C2  3QT d   1      12.210  25.626 -16.387  0.00  0.00    -0.054 A 
ATOM     19  H2  3QT d   1      12.280  24.065 -17.891  0.00  0.00     0.084 H 
ATOM     20  C1  3QT d   1      12.895  26.701 -15.768  0.00  0.00     0.066 A 
ATOM     21  H1  3QT d   1      11.199  25.387 -16.078  0.00  0.00     0.087 H 
ATOM     22  N1  3QT d   1      12.271  27.433 -14.803  0.00  0.00    -0.260 NA
ATOM     23  C17 3QT d   1      14.254  26.965 -16.160  0.00  0.00    -0.007 A 
ATOM     24  C20 3QT d   1      12.966  28.418 -14.181  0.00  0.00     0.003 A 
ATOM     25  C19 3QT d   1      14.315  28.730 -14.481  0.00  0.00    -0.065 A 
ATOM     26  H16 3QT d   1      12.463  28.997 -13.415  0.00  0.00     0.114 H 
ATOM     27  C18 3QT d   1      14.967  27.988 -15.496  0.00  0.00    -0.069 A 
ATOM     28  H15 3QT d   1      14.835  29.517 -13.947  0.00  0.00     0.085 H 
ATOM     29  H14 3QT d   1      15.997  28.202 -15.759  0.00  0.00     0.085 H 
ATOM     30  C16 3QT d   1      14.891  26.179 -17.157  0.00  0.00    -0.064 A 
ATOM     31  H13 3QT d   1      15.920  26.378 -17.434  0.00  0.00     0.085 H 
ENDBRANCH  13  16
ENDBRANCH   3  13
BRANCH   5  32
ATOM     32  C8  3QT d   1      19.032  23.919 -15.736  0.00  0.00     0.031 A 
ATOM     33  C9  3QT d   1      19.155  25.307 -16.028  0.00  0.00     0.035 A 
ATOM     34  N4  3QT d   1      20.179  25.843 -15.380  0.00  0.00    -0.185 NA
ATOM     35  H5  3QT d   1      18.494  25.856 -16.697  0.00  0.00     0.118 H 
ATOM     36  N5  3QT d   1      20.755  24.817 -14.714  0.00  0.00    -0.285 N 
ATOM     37  C10 3QT d   1      20.093  23.630 -14.922  0.00  0.00     0.011 A 
ATOM     38  H6  3QT d   1      20.360  22.654 -14.519  0.00  0.00     0.115 H 
BRANCH  36  39
ATOM     39  C11 3QT d   1      21.952  25.055 -13.938  0.00  0.00     0.002 C 
ATOM     40  H7  3QT d   1      22.278  24.115 -13.469  0.00  0.00     0.059 H 
ATOM     41  H8  3QT d   1      21.741  25.800 -13.157  0.00  0.00     0.059 H 
ATOM     42  H9  3QT d   1      22.748  25.431 -14.598  0.00  0.00     0.059 H 
ENDBRANCH  36  39
ENDBRANCH   5  32
TORSDOF 4
