REMARK  8 active torsions:
REMARK  status: ('A' for Active; 'I' for Inactive)
REMARK    1  A    between atoms: C2_2  and  N3_3 
REMARK    2  A    between atoms: C4_4  and  C5_5 
REMARK    3  A    between atoms: C5_5  and  C6_6 
REMARK    4  A    between atoms: C5_5  and  O12_12 
REMARK    5  A    between atoms: C14_14  and  N15_15 
REMARK    6  A    between atoms: N15_15  and  C16_16 
REMARK    7  A    between atoms: C16_16  and  C17_17 
REMARK    8  A    between atoms: C17_17  and  C18_18 
ROOT
ATOM      1  N1  X35 d   1     -65.326 -82.001 -86.060  0.00  0.00    -0.206 NA
ATOM      2  C2  X35 d   1     -66.328 -81.160 -86.410  0.00  0.00     0.140 A 
ATOM      3  C4  X35 d   1     -66.849 -80.405 -85.351  0.00  0.00     0.065 A 
ATOM      4  S13 X35 d   1     -66.034 -80.810 -83.876  0.00  0.00    -0.050 SA
ATOM      5  C14 X35 d   1     -65.059 -81.925 -84.751  0.00  0.00     0.169 A 
ENDROOT
BRANCH   3   6
ATOM      6  C5  X35 d   1     -67.869 -79.457 -85.453  0.00  0.00     0.097 C 
ATOM      7  H3  X35 d   1     -68.604 -80.244 -85.228  0.00  0.00     0.099 H 
BRANCH   6   8
ATOM      8  C6  X35 d   1     -68.394 -78.632 -84.309  0.00  0.00    -0.007 A 
ATOM      9  C7  X35 d   1     -69.789 -78.478 -84.078  0.00  0.00     0.011 A 
ATOM     10  N8  X35 d   1     -70.225 -77.700 -83.013  0.00  0.00    -0.272 NA
ATOM     11  H4  X35 d   1     -70.507 -78.964 -84.728  0.00  0.00     0.115 H 
ATOM     12  C9  X35 d   1     -69.351 -77.055 -82.147  0.00  0.00     0.002 A 
ATOM     13  C10 X35 d   1     -67.959 -77.172 -82.337  0.00  0.00    -0.065 A 
ATOM     14  H5  X35 d   1     -69.739 -76.463 -81.326  0.00  0.00     0.114 H 
ATOM     15  C11 X35 d   1     -67.487 -77.964 -83.426  0.00  0.00    -0.071 A 
ATOM     16  H6  X35 d   1     -67.264 -76.672 -81.672  0.00  0.00     0.085 H 
ATOM     17  H7  X35 d   1     -66.420 -78.062 -83.588  0.00  0.00     0.084 H 
ENDBRANCH   6   8
BRANCH   6  18
ATOM     18  O12 X35 d   1     -68.448 -79.216 -86.648  0.00  0.00    -0.385 OA
ATOM     19  H8  X35 d   1     -68.314 -78.306 -86.886  0.00  0.00     0.210 HD
ENDBRANCH   6  18
ENDBRANCH   3   6
BRANCH   2  20
ATOM     20  N3  X35 d   1     -66.739 -81.089 -87.684  0.00  0.00    -0.383 N 
ATOM     21  H1  X35 d   1     -67.502 -80.447 -87.944  0.00  0.00     0.157 HD
ATOM     22  H2  X35 d   1     -66.292 -81.676 -88.403  0.00  0.00     0.157 HD
ENDBRANCH   2  20
BRANCH   5  23
ATOM     23  N15 X35 d   1     -64.084 -82.685 -84.197  0.00  0.00    -0.369 N 
ATOM     24  H9  X35 d   1     -63.558 -83.349 -84.783  0.00  0.00     0.161 HD
BRANCH  23  25
ATOM     25  C16 X35 d   1     -63.774 -82.569 -82.776  0.00  0.00    -0.006 C 
ATOM     26  H10 X35 d   1     -63.803 -83.568 -82.317  0.00  0.00     0.064 H 
ATOM     27  H11 X35 d   1     -64.522 -81.922 -82.294  0.00  0.00     0.064 H 
BRANCH  25  28
ATOM     28  C17 X35 d   1     -62.410 -81.976 -82.580  0.00  0.00    -0.054 C 
ATOM     29  H12 X35 d   1     -61.789 -82.352 -83.406  0.00  0.00     0.034 H 
ATOM     30  H13 X35 d   1     -62.034 -82.376 -81.627  0.00  0.00     0.034 H 
BRANCH  28  31
ATOM     31  C18 X35 d   1     -62.195 -80.531 -82.531  0.00  0.00    -0.075 C 
ATOM     32  H14 X35 d   1     -61.125 -80.324 -82.381  0.00  0.00     0.027 H 
ATOM     33  H15 X35 d   1     -62.772 -80.103 -81.698  0.00  0.00     0.027 H 
ATOM     34  H16 X35 d   1     -62.526 -80.079 -83.477  0.00  0.00     0.027 H 
ENDBRANCH  28  31
ENDBRANCH  25  28
ENDBRANCH  23  25
ENDBRANCH   5  23
TORSDOF 8
