REMARK  6 active torsions:
REMARK  status: ('A' for Active; 'I' for Inactive)
REMARK    1  A    between atoms: C2_2  and  N3_3 
REMARK    2  A    between atoms: C4_4  and  C5_5 
REMARK    3  A    between atoms: C5_5  and  C6_6 
REMARK    4  A    between atoms: C5_5  and  O12_12 
REMARK    5  A    between atoms: C14_14  and  N15_15 
REMARK    6  A    between atoms: N15_15  and  C16_16 
ROOT
ATOM      1  N1  X36 d   1      91.738  81.875 -51.002  0.00  0.00    -0.206 NA
ATOM      2  C2  X36 d   1      92.821  81.121 -51.300  0.00  0.00     0.140 A 
ATOM      3  C4  X36 d   1      93.310  80.355 -50.231  0.00  0.00     0.065 A 
ATOM      4  S13 X36 d   1      92.340  80.644 -48.852  0.00  0.00    -0.050 SA
ATOM      5  C14 X36 d   1      91.362  81.722 -49.737  0.00  0.00     0.173 A 
ENDROOT
BRANCH   3   6
ATOM      6  C5  X36 d   1      94.416  79.466 -50.244  0.00  0.00     0.096 C 
ATOM      7  H3  X36 d   1      95.068  80.292 -49.924  0.00  0.00     0.099 H 
BRANCH   6   8
ATOM      8  C6  X36 d   1      94.876  78.639 -49.058  0.00  0.00    -0.025 A 
ATOM      9  C7  X36 d   1      93.921  77.867 -48.220  0.00  0.00    -0.074 A 
ATOM     10  C8  X36 d   1      94.393  77.108 -47.118  0.00  0.00    -0.082 A 
ATOM     11  H4  X36 d   1      92.862  77.884 -48.451  0.00  0.00     0.084 H 
ATOM     12  C9  X36 d   1      95.765  77.049 -46.769  0.00  0.00    -0.083 A 
ATOM     13  H5  X36 d   1      93.678  76.553 -46.521  0.00  0.00     0.083 H 
ATOM     14  C10 X36 d   1      96.744  77.780 -47.556  0.00  0.00    -0.082 A 
ATOM     15  H6  X36 d   1      96.084  76.460 -45.917  0.00  0.00     0.083 H 
ATOM     16  C11 X36 d   1      96.304  78.569 -48.694  0.00  0.00    -0.074 A 
ATOM     17  H7  X36 d   1      97.795  77.737 -47.296  0.00  0.00     0.083 H 
ATOM     18  H8  X36 d   1      97.034  79.113 -49.283  0.00  0.00     0.084 H 
ENDBRANCH   6   8
BRANCH   6  19
ATOM     19  O12 X36 d   1      95.130  79.306 -51.382  0.00  0.00    -0.386 OA
ATOM     20  H9  X36 d   1      95.087  78.398 -51.657  0.00  0.00     0.210 HD
ENDBRANCH   6  19
ENDBRANCH   3   6
BRANCH   2  21
ATOM     21  N3  X36 d   1      93.329  81.137 -52.537  0.00  0.00    -0.383 N 
ATOM     22  H1  X36 d   1      94.154  80.562 -52.763  0.00  0.00     0.157 HD
ATOM     23  H2  X36 d   1      92.896  81.724 -53.264  0.00  0.00     0.157 HD
ENDBRANCH   2  21
BRANCH   5  24
ATOM     24  N15 X36 d   1      90.265  82.410 -49.273  0.00  0.00    -0.335 N 
ATOM     25  H10 X36 d   1      89.834  83.039 -49.966  0.00  0.00     0.168 HD
BRANCH  24  26
ATOM     26  C16 X36 d   1      89.640  82.406 -48.043  0.00  0.00     0.034 A 
ATOM     27  C17 X36 d   1      88.492  83.312 -47.878  0.00  0.00    -0.057 A 
ATOM     28  C18 X36 d   1      87.779  83.371 -46.624  0.00  0.00    -0.081 A 
ATOM     29  H11 X36 d   1      88.179  83.940 -48.705  0.00  0.00     0.086 H 
ATOM     30  C19 X36 d   1      88.179  82.531 -45.501  0.00  0.00    -0.083 A 
ATOM     31  H12 X36 d   1      86.938  84.046 -46.516  0.00  0.00     0.083 H 
ATOM     32  C20 X36 d   1      89.306  81.614 -45.616  0.00  0.00    -0.081 A 
ATOM     33  H13 X36 d   1      87.630  82.589 -44.568  0.00  0.00     0.083 H 
ATOM     34  C21 X36 d   1      90.032  81.546 -46.865  0.00  0.00    -0.057 A 
ATOM     35  H14 X36 d   1      89.596  80.992 -44.777  0.00  0.00     0.083 H 
ATOM     36  H15 X36 d   1      90.871  80.866 -46.957  0.00  0.00     0.086 H 
ENDBRANCH  24  26
ENDBRANCH   5  24
TORSDOF 6
