REMARK  8 active torsions:
REMARK  status: ('A' for Active; 'I' for Inactive)
REMARK    1  A    between atoms: C2_4  and  O6_11 
REMARK    2  A    between atoms: C13_16  and  N2_5 
REMARK    3  A    between atoms: C14_17  and  N3_7 
REMARK    4  A    between atoms: N3_7  and  C15_18 
REMARK    5  A    between atoms: C11_14  and  O3_8 
REMARK    6  A    between atoms: O6_11  and  C7_12 
REMARK    7  A    between atoms: C11_14  and  C10_13 
REMARK    8  A    between atoms: C11_14  and  C12_15 
ROOT
ATOM      1  N1  X46 d   1      91.588  81.767 -51.021  0.00  0.00    -0.206 NA
ATOM      2  S1  X46 d   1      91.999  80.725 -48.697  0.00  0.00    -0.050 SA
ATOM      3  C12 X46 d   1      92.919  80.185 -49.998  0.00  0.00     0.065 A 
ATOM      4  C13 X46 d   1      92.584  80.846 -51.172  0.00  0.00     0.140 A 
ATOM      5  C14 X46 d   1      91.166  81.813 -49.736  0.00  0.00     0.173 A 
ENDROOT
BRANCH   3   6
ATOM      6  C11 X46 d   1      93.956  79.104 -49.833  0.00  0.00     0.096 C 
ATOM      7  H12 X46 d   1      94.719  79.863 -49.606  0.00  0.00     0.099 H 
BRANCH   6   8
ATOM      8  O3  X46 d   1      94.647  78.715 -50.912  0.00  0.00    -0.386 OA
ATOM      9  H6  X46 d   1      94.367  79.222 -51.665  0.00  0.00     0.210 HD
ENDBRANCH   6   8
BRANCH   6  10
ATOM     10  C10 X46 d   1      94.206  78.458 -48.501  0.00  0.00    -0.022 A 
ATOM     11  C3  X46 d   1      94.407  79.260 -47.261  0.00  0.00    -0.042 A 
ATOM     12  C2  X46 d   1      94.649  78.604 -45.985  0.00  0.00     0.068 A 
ATOM     13  H4  X46 d   1      94.373  80.342 -47.310  0.00  0.00     0.088 H 
ATOM     14  C1  X46 d   1      94.697  77.115 -45.928  0.00  0.00    -0.051 A 
ATOM     15  C5  X46 d   1      94.501  76.310 -47.156  0.00  0.00    -0.080 A 
ATOM     16  H1  X46 d   1      94.876  76.618 -44.981  0.00  0.00     0.087 H 
ATOM     17  C4  X46 d   1      94.259  76.984 -48.413  0.00  0.00    -0.074 A 
ATOM     18  H8  X46 d   1      94.538  75.228 -47.113  0.00  0.00     0.083 H 
ATOM     19  H7  X46 d   1      94.113  76.394 -49.311  0.00  0.00     0.084 H 
BRANCH  12  20
ATOM     20  O6  X46 d   1      94.831  79.429 -44.839  0.00  0.00    -0.356 OA
BRANCH  20  21
ATOM     21  C7  X46 d   1      95.062  79.002 -43.590  0.00  0.00     0.010 C 
ATOM     22  H9  X46 d   1      95.159  79.868 -42.919  0.00  0.00     0.066 H 
ATOM     23  H10 X46 d   1      95.992  78.416 -43.569  0.00  0.00     0.066 H 
ATOM     24  H11 X46 d   1      94.224  78.372 -43.257  0.00  0.00     0.066 H 
ENDBRANCH  20  21
ENDBRANCH  12  20
ENDBRANCH   6  10
ENDBRANCH   3   6
BRANCH   4  25
ATOM     25  N2  X46 d   1      93.173  80.596 -52.366  0.00  0.00    -0.383 N 
ATOM     26  H2  X46 d   1      93.921  79.892 -52.434  0.00  0.00     0.157 HD
ATOM     27  H3  X46 d   1      92.872  81.110 -53.206  0.00  0.00     0.157 HD
ENDBRANCH   4  25
BRANCH   5  28
ATOM     28  N3  X46 d   1      90.147  82.680 -49.343  0.00  0.00    -0.335 N 
ATOM     29  H5  X46 d   1      89.920  83.431 -50.010  0.00  0.00     0.168 HD
BRANCH  28  30
ATOM     30  C15 X46 d   1      89.387  82.667 -48.158  0.00  0.00     0.034 A 
ATOM     31  C16 X46 d   1      89.538  81.648 -47.032  0.00  0.00    -0.057 A 
ATOM     32  C17 X46 d   1      88.729  81.705 -45.845  0.00  0.00    -0.081 A 
ATOM     33  H13 X46 d   1      90.275  80.860 -47.130  0.00  0.00     0.086 H 
ATOM     34  C18 X46 d   1      87.736  82.771 -45.711  0.00  0.00    -0.083 A 
ATOM     35  H14 X46 d   1      88.853  80.968 -45.060  0.00  0.00     0.083 H 
ATOM     36  C19 X46 d   1      87.568  83.771 -46.792  0.00  0.00    -0.081 A 
ATOM     37  H15 X46 d   1      87.122  82.830 -44.819  0.00  0.00     0.083 H 
ATOM     38  C20 X46 d   1      88.373  83.720 -47.987  0.00  0.00    -0.057 A 
ATOM     39  H16 X46 d   1      86.827  84.554 -46.682  0.00  0.00     0.083 H 
ATOM     40  H17 X46 d   1      88.231  84.462 -48.764  0.00  0.00     0.086 H 
ENDBRANCH  28  30
ENDBRANCH   5  28
TORSDOF 8
