REMARK  8 active torsions:
REMARK  status: ('A' for Active; 'I' for Inactive)
REMARK    1  A    between atoms: C08_8  and  N02_2 
REMARK    2  A    between atoms: N02_2  and  C09_9 
REMARK    3  A    between atoms: S28_28  and  N04_4 
REMARK    4  A    between atoms: S29_29  and  N05_5 
REMARK    5  A    between atoms: C10_10  and  C06_6 
REMARK    6  A    between atoms: C11_11  and  C10_10 
REMARK    7  A    between atoms: C14_14  and  S28_28 
REMARK    8  A    between atoms: C19_19  and  S29_29 
ROOT
ATOM      1  N01 X44 d   1     119.099  10.072 -50.893  0.00  0.00    -0.205 NA
ATOM      2  N03 X44 d   1     120.509   9.144 -52.473  0.00  0.00    -0.383 N 
ATOM      3  C06 X44 d   1     120.735   8.523 -50.226  0.00  0.00     0.104 A 
ATOM      4  C07 X44 d   1     120.135   9.242 -51.258  0.00  0.00     0.145 A 
ATOM      5  C08 X44 d   1     118.899  10.010 -49.608  0.00  0.00     0.174 A 
ATOM      6  S27 X44 d   1     119.955   8.930 -48.747  0.00  0.00    -0.044 SA
ATOM      7  H2  X44 d   1     121.287   8.517 -52.724  0.00  0.00     0.157 HD
ATOM      8  H3  X44 d   1     120.034   9.692 -53.204  0.00  0.00     0.157 HD
ENDROOT
BRANCH   3   9
ATOM      9  C10 X44 d   1     121.791   7.617 -50.373  0.00  0.00     0.203 C 
ATOM     10  O22 X44 d   1     122.311   7.467 -51.465  0.00  0.00    -0.286 OA
BRANCH   9  11
ATOM     11  C11 X44 d   1     122.248   6.863 -49.310  0.00  0.00     0.015 A 
ATOM     12  C17 X44 d   1     123.647   6.818 -49.027  0.00  0.00    -0.068 A 
ATOM     13  C18 X44 d   1     124.120   6.050 -47.941  0.00  0.00    -0.059 A 
ATOM     14  H12 X44 d   1     124.344   7.372 -49.645  0.00  0.00     0.085 H 
ATOM     15  C19 X44 d   1     123.210   5.323 -47.127  0.00  0.00     0.079 A 
ATOM     16  H13 X44 d   1     125.182   6.015 -47.727  0.00  0.00     0.085 H 
ATOM     17  C20 X44 d   1     121.821   5.355 -47.394  0.00  0.00    -0.059 A 
ATOM     18  C21 X44 d   1     121.339   6.122 -48.486  0.00  0.00    -0.068 A 
ATOM     19  H14 X44 d   1     121.131   4.798 -46.770  0.00  0.00     0.085 H 
ATOM     20  H15 X44 d   1     120.276   6.148 -48.699  0.00  0.00     0.085 H 
BRANCH  15  21
ATOM     21  S29 X44 d   1     123.831   4.356 -45.757  0.00  0.00     0.256 S 
ATOM     22  O25 X44 d   1     125.116   4.904 -45.371  0.00  0.00    -0.201 OA
ATOM     23  O26 X44 d   1     122.897   4.411 -44.660  0.00  0.00    -0.201 OA
BRANCH  21  24
ATOM     24  N05 X44 d   1     124.033   2.755 -46.264  0.00  0.00    -0.324 N 
ATOM     25  H6  X44 d   1     124.375   2.067 -45.624  0.00  0.00     0.169 HD
ATOM     26  H7  X44 d   1     123.810   2.496 -47.204  0.00  0.00     0.169 HD
ENDBRANCH  21  24
ENDBRANCH  15  21
ENDBRANCH   9  11
ENDBRANCH   3   9
BRANCH   5  27
ATOM     27  N02 X44 d   1     117.968  10.743 -49.078  0.00  0.00    -0.335 N 
ATOM     28  H1  X44 d   1     117.800  11.643 -49.549  0.00  0.00     0.168 HD
BRANCH  27  29
ATOM     29  C09 X44 d   1     117.220  10.515 -48.049  0.00  0.00     0.034 A 
ATOM     30  C12 X44 d   1     116.211  11.483 -47.749  0.00  0.00    -0.056 A 
ATOM     31  C13 X44 d   1     115.352  11.296 -46.646  0.00  0.00    -0.058 A 
ATOM     32  H8  X44 d   1     116.106  12.364 -48.372  0.00  0.00     0.087 H 
ATOM     33  C14 X44 d   1     115.498  10.137 -45.833  0.00  0.00     0.079 A 
ATOM     34  H9  X44 d   1     114.587  12.029 -46.419  0.00  0.00     0.086 H 
ATOM     35  C15 X44 d   1     116.491   9.180 -46.117  0.00  0.00    -0.058 A 
ATOM     36  C16 X44 d   1     117.348   9.361 -47.211  0.00  0.00    -0.056 A 
ATOM     37  H10 X44 d   1     116.593   8.302 -45.489  0.00  0.00     0.086 H 
ATOM     38  H11 X44 d   1     118.113   8.623 -47.424  0.00  0.00     0.087 H 
BRANCH  33  39
ATOM     39  S28 X44 d   1     114.414   9.883 -44.477  0.00  0.00     0.256 S 
ATOM     40  O23 X44 d   1     113.299   9.117 -44.971  0.00  0.00    -0.201 OA
ATOM     41  O24 X44 d   1     113.953  11.163 -43.980  0.00  0.00    -0.201 OA
BRANCH  39  42
ATOM     42  N04 X44 d   1     115.173   8.997 -43.268  0.00  0.00    -0.324 N 
ATOM     43  H4  X44 d   1     114.679   8.772 -42.428  0.00  0.00     0.169 HD
ATOM     44  H5  X44 d   1     116.119   8.695 -43.388  0.00  0.00     0.169 HD
ENDBRANCH  39  42
ENDBRANCH  33  39
ENDBRANCH  27  29
ENDBRANCH   5  27
TORSDOF 8
