REMARK  6 active torsions:
REMARK  status: ('A' for Active; 'I' for Inactive)
REMARK    1  A    between atoms: C2_2  and  N3_3 
REMARK    2  A    between atoms: C4_4  and  C5_5 
REMARK    3  A    between atoms: C5_5  and  C6_6 
REMARK    4  A    between atoms: C5_5  and  O12_12 
REMARK    5  A    between atoms: C14_14  and  N15_15 
REMARK    6  A    between atoms: N15_15  and  C16_16 
ROOT
ATOM      1  N1  X3A d   1      92.370  10.370 -86.976  0.00  0.00    -0.206 NA
ATOM      2  C2  X3A d   1      93.435   9.637 -87.325  0.00  0.00     0.140 A 
ATOM      3  C4  X3A d   1      93.952   8.832 -86.300  0.00  0.00     0.065 A 
ATOM      4  S13 X3A d   1      93.033   9.057 -84.874  0.00  0.00    -0.050 SA
ATOM      5  C14 X3A d   1      92.025  10.175 -85.700  0.00  0.00     0.173 A 
ENDROOT
BRANCH   3   6
ATOM      6  C5  X3A d   1      95.047   7.960 -86.389  0.00  0.00     0.097 C 
ATOM      7  H3  X3A d   1      95.705   8.773 -86.049  0.00  0.00     0.099 H 
BRANCH   6   8
ATOM      8  C6  X3A d   1      95.555   7.072 -85.275  0.00  0.00    -0.007 A 
ATOM      9  C7  X3A d   1      96.963   6.897 -84.971  0.00  0.00     0.011 A 
ATOM     10  N8  X3A d   1      97.335   6.039 -83.924  0.00  0.00    -0.272 NA
ATOM     11  H4  X3A d   1      97.718   7.422 -85.545  0.00  0.00     0.115 H 
ATOM     12  C9  X3A d   1      96.410   5.328 -83.140  0.00  0.00     0.002 A 
ATOM     13  C10 X3A d   1      95.013   5.460 -83.399  0.00  0.00    -0.065 A 
ATOM     14  H5  X3A d   1      96.757   4.682 -82.342  0.00  0.00     0.114 H 
ATOM     15  C11 X3A d   1      94.592   6.328 -84.465  0.00  0.00    -0.071 A 
ATOM     16  H6  X3A d   1      94.286   4.918 -82.805  0.00  0.00     0.085 H 
ATOM     17  H7  X3A d   1      93.534   6.433 -84.673  0.00  0.00     0.084 H 
ENDBRANCH   6   8
BRANCH   6  18
ATOM     18  O12 X3A d   1      95.719   7.853 -87.546  0.00  0.00    -0.385 OA
ATOM     19  H8  X3A d   1      95.664   6.959 -87.862  0.00  0.00     0.210 HD
ENDBRANCH   6  18
ENDBRANCH   3   6
BRANCH   2  20
ATOM     20  N3  X3A d   1      93.908   9.710 -88.575  0.00  0.00    -0.383 N 
ATOM     21  H1  X3A d   1      94.727   9.149 -88.849  0.00  0.00     0.157 HD
ATOM     22  H2  X3A d   1      93.453  10.328 -89.263  0.00  0.00     0.157 HD
ENDBRANCH   2  20
BRANCH   5  23
ATOM     23  N15 X3A d   1      90.939  10.867 -85.192  0.00  0.00    -0.335 N 
ATOM     24  H9  X3A d   1      90.492  11.505 -85.865  0.00  0.00     0.168 HD
BRANCH  23  25
ATOM     25  C16 X3A d   1      90.344  10.855 -83.937  0.00  0.00     0.034 A 
ATOM     26  C17 X3A d   1      89.211  11.745 -83.724  0.00  0.00    -0.057 A 
ATOM     27  C18 X3A d   1      88.546  11.792 -82.452  0.00  0.00    -0.081 A 
ATOM     28  H10 X3A d   1      88.866  12.378 -84.534  0.00  0.00     0.086 H 
ATOM     29  C19 X3A d   1      88.994  10.948 -81.365  0.00  0.00    -0.083 A 
ATOM     30  H11 X3A d   1      87.706  12.461 -82.306  0.00  0.00     0.083 H 
ATOM     31  C20 X3A d   1      90.108  10.055 -81.545  0.00  0.00    -0.081 A 
ATOM     32  H12 X3A d   1      88.487  10.989 -80.408  0.00  0.00     0.083 H 
ATOM     33  C21 X3A d   1      90.777  10.007 -82.809  0.00  0.00    -0.057 A 
ATOM     34  H13 X3A d   1      90.438   9.423 -80.729  0.00  0.00     0.083 H 
ATOM     35  H14 X3A d   1      91.618   9.335 -82.941  0.00  0.00     0.086 H 
ENDBRANCH  23  25
ENDBRANCH   5  23
TORSDOF 6
