REMARK  9 active torsions:
REMARK  status: ('A' for Active; 'I' for Inactive)
REMARK    1  A    between atoms: C2_2  and  N3_3 
REMARK    2  A    between atoms: C4_4  and  C5_5 
REMARK    3  A    between atoms: C5_5  and  C6_6 
REMARK    4  A    between atoms: C5_5  and  O12_12 
REMARK    5  A    between atoms: C8_8  and  N17_17 
REMARK    6  A    between atoms: C14_14  and  N15_15 
REMARK    7  A    between atoms: N15_15  and  C16_16 
REMARK    8  A    between atoms: C22_22  and  S25_25 
REMARK    9  A    between atoms: S25_25  and  N28_28 
ROOT
ATOM      1  N1  X43 d   1     -11.914 -82.073 -86.736  0.00  0.00    -0.206 NA
ATOM      2  C2  X43 d   1     -12.981 -81.312 -87.017  0.00  0.00     0.140 A 
ATOM      3  C4  X43 d   1     -13.391 -80.484 -85.964  0.00  0.00     0.065 A 
ATOM      4  S13 X43 d   1     -12.374 -80.718 -84.589  0.00  0.00    -0.050 SA
ATOM      5  C14 X43 d   1     -11.450 -81.860 -85.501  0.00  0.00     0.173 A 
ENDROOT
BRANCH   5   6
ATOM      6  N15 X43 d   1     -10.337 -82.556 -85.084  0.00  0.00    -0.335 N 
ATOM      7  H9  X43 d   1     -10.007 -83.307 -85.706  0.00  0.00     0.168 HD
BRANCH   6   8
ATOM      8  C16 X43 d   1      -9.617 -82.358 -83.926  0.00  0.00     0.034 A 
ATOM      9  C20 X43 d   1      -8.462 -83.173 -83.723  0.00  0.00    -0.056 A 
ATOM     10  C21 X43 d   1      -7.631 -82.970 -82.598  0.00  0.00    -0.058 A 
ATOM     11  H10 X43 d   1      -8.221 -83.953 -84.437  0.00  0.00     0.087 H 
ATOM     12  C22 X43 d   1      -7.929 -81.959 -81.651  0.00  0.00     0.079 A 
ATOM     13  H11 X43 d   1      -6.756 -83.594 -82.458  0.00  0.00     0.086 H 
ATOM     14  C23 X43 d   1      -9.075 -81.146 -81.813  0.00  0.00    -0.058 A 
ATOM     15  C24 X43 d   1      -9.907 -81.336 -82.942  0.00  0.00    -0.056 A 
ATOM     16  H12 X43 d   1      -9.314 -80.385 -81.079  0.00  0.00     0.086 H 
ATOM     17  H13 X43 d   1     -10.778 -80.704 -83.073  0.00  0.00     0.087 H 
BRANCH  12  18
ATOM     18  S25 X43 d   1      -6.856 -81.717 -80.301  0.00  0.00     0.256 S 
ATOM     19  O26 X43 d   1      -5.489 -81.091 -80.954  0.00  0.00    -0.201 OA
ATOM     20  O27 X43 d   1      -6.504 -83.014 -79.612  0.00  0.00    -0.201 OA
BRANCH  18  21
ATOM     21  N28 X43 d   1      -7.382 -80.606 -79.342  0.00  0.00    -0.324 N 
ATOM     22  H14 X43 d   1      -6.861 -80.365 -78.523  0.00  0.00     0.169 HD
ATOM     23  H15 X43 d   1      -8.240 -80.135 -79.546  0.00  0.00     0.169 HD
ENDBRANCH  18  21
ENDBRANCH  12  18
ENDBRANCH   6   8
ENDBRANCH   5   6
BRANCH   2  24
ATOM     24  N3  X43 d   1     -13.554 -81.382 -88.241  0.00  0.00    -0.383 N 
ATOM     25  H1  X43 d   1     -14.374 -80.798 -88.460  0.00  0.00     0.157 HD
ATOM     26  H2  X43 d   1     -13.170 -82.019 -88.954  0.00  0.00     0.157 HD
ENDBRANCH   2  24
BRANCH   3  27
ATOM     27  C5  X43 d   1     -14.448 -79.590 -85.984  0.00  0.00     0.096 C 
ATOM     28  H3  X43 d   1     -15.111 -80.385 -85.611  0.00  0.00     0.099 H 
BRANCH  27  29
ATOM     29  C6  X43 d   1     -14.828 -78.720 -84.824  0.00  0.00    -0.022 A 
ATOM     30  C7  X43 d   1     -16.167 -78.716 -84.319  0.00  0.00    -0.042 A 
ATOM     31  C8  X43 d   1     -16.541 -77.880 -83.197  0.00  0.00     0.103 A 
ATOM     32  H4  X43 d   1     -16.914 -79.349 -84.784  0.00  0.00     0.088 H 
ATOM     33  C9  X43 d   1     -15.518 -77.047 -82.602  0.00  0.00    -0.051 A 
ATOM     34  C10 X43 d   1     -14.190 -77.046 -83.104  0.00  0.00    -0.080 A 
ATOM     35  H5  X43 d   1     -15.770 -76.413 -81.759  0.00  0.00     0.087 H 
ATOM     36  C11 X43 d   1     -13.844 -77.875 -84.206  0.00  0.00    -0.074 A 
ATOM     37  H6  X43 d   1     -13.439 -76.412 -82.647  0.00  0.00     0.083 H 
ATOM     38  H7  X43 d   1     -12.828 -77.870 -84.584  0.00  0.00     0.084 H 
BRANCH  31  39
ATOM     39  N17 X43 d   1     -17.795 -77.888 -82.726  0.00  0.00    -0.116 N 
ATOM     40  O18 X43 d   1     -18.736 -78.653 -83.272  0.00  0.00    -0.532 OA
ATOM     41  O19 X43 d   1     -18.125 -77.198 -81.783  0.00  0.00    -0.532 OA
ENDBRANCH  31  39
ENDBRANCH  27  29
BRANCH  27  42
ATOM     42  O12 X43 d   1     -15.208 -79.448 -87.101  0.00  0.00    -0.386 OA
ATOM     43  H8  X43 d   1     -15.151 -78.551 -87.410  0.00  0.00     0.210 HD
ENDBRANCH  27  42
ENDBRANCH   3  27
TORSDOF 9
