REMARK  7 active torsions:
REMARK  status: ('A' for Active; 'I' for Inactive)
REMARK    1  A    between atoms: N02_2  and  C07_7 
REMARK    2  A    between atoms: C08_8  and  N02_2 
REMARK    3  A    between atoms: C06_6  and  N03_3 
REMARK    4  A    between atoms: S26_26  and  N04_4 
REMARK    5  A    between atoms: C05_5  and  C09_9 
REMARK    6  A    between atoms: C09_9  and  C10_10 
REMARK    7  A    between atoms: C18_18  and  S26_26 
ROOT
ATOM      1  N01 X42 d   1     -65.097  25.440 -86.307  0.00  0.00    -0.205 NA
ATOM      2  C05 X42 d   1     -66.752  26.971 -85.602  0.00  0.00     0.104 A 
ATOM      3  C06 X42 d   1     -66.179  26.231 -86.646  0.00  0.00     0.145 A 
ATOM      4  C07 X42 d   1     -64.835  25.560 -85.027  0.00  0.00     0.174 A 
ATOM      5  S25 X42 d   1     -65.872  26.638 -84.157  0.00  0.00    -0.044 SA
ENDROOT
BRANCH   4   6
ATOM      6  N02 X42 d   1     -63.867  24.882 -84.512  0.00  0.00    -0.335 N 
ATOM      7  H1  X42 d   1     -63.631  24.011 -85.008  0.00  0.00     0.168 HD
BRANCH   6   8
ATOM      8  C08 X42 d   1     -63.148  25.130 -83.468  0.00  0.00     0.034 A 
ATOM      9  C16 X42 d   1     -62.154  24.161 -83.128  0.00  0.00    -0.056 A 
ATOM     10  C17 X42 d   1     -61.311  24.368 -82.013  0.00  0.00    -0.058 A 
ATOM     11  H10 X42 d   1     -62.046  23.264 -83.728  0.00  0.00     0.087 H 
ATOM     12  C18 X42 d   1     -61.459  25.549 -81.228  0.00  0.00     0.079 A 
ATOM     13  H11 X42 d   1     -60.556  23.633 -81.756  0.00  0.00     0.086 H 
ATOM     14  C19 X42 d   1     -62.444  26.512 -81.547  0.00  0.00    -0.058 A 
ATOM     15  C20 X42 d   1     -63.286  26.309 -82.659  0.00  0.00    -0.056 A 
ATOM     16  H12 X42 d   1     -62.551  27.403 -80.939  0.00  0.00     0.086 H 
ATOM     17  H13 X42 d   1     -64.042  27.046 -82.905  0.00  0.00     0.087 H 
BRANCH  12  18
ATOM     18  S26 X42 d   1     -60.381  25.828 -79.864  0.00  0.00     0.256 S 
ATOM     19  O22 X42 d   1     -59.281  26.619 -80.340  0.00  0.00    -0.201 OA
ATOM     20  O23 X42 d   1     -59.881  24.557 -79.369  0.00  0.00    -0.201 OA
BRANCH  18  21
ATOM     21  N04 X42 d   1     -61.161  26.690 -78.633  0.00  0.00    -0.324 N 
ATOM     22  H4  X42 d   1     -60.668  26.921 -77.794  0.00  0.00     0.169 HD
ATOM     23  H5  X42 d   1     -62.115  26.968 -78.745  0.00  0.00     0.169 HD
ENDBRANCH  18  21
ENDBRANCH  12  18
ENDBRANCH   6   8
ENDBRANCH   4   6
BRANCH   3  24
ATOM     24  N03 X42 d   1     -66.612  26.271 -87.839  0.00  0.00    -0.383 N 
ATOM     25  H2  X42 d   1     -67.419  26.866 -88.074  0.00  0.00     0.157 HD
ATOM     26  H3  X42 d   1     -66.156  25.709 -88.572  0.00  0.00     0.157 HD
ENDBRANCH   3  24
BRANCH   2  27
ATOM     27  C09 X42 d   1     -67.849  27.835 -85.712  0.00  0.00     0.203 C 
ATOM     28  O21 X42 d   1     -68.461  27.897 -86.778  0.00  0.00    -0.286 OA
BRANCH  27  29
ATOM     29  C10 X42 d   1     -68.271  28.627 -84.641  0.00  0.00     0.018 A 
ATOM     30  C11 X42 d   1     -67.339  29.439 -83.894  0.00  0.00    -0.069 A 
ATOM     31  C12 X42 d   1     -67.790  30.234 -82.806  0.00  0.00    -0.079 A 
ATOM     32  H6  X42 d   1     -66.289  29.442 -84.165  0.00  0.00     0.085 H 
ATOM     33  C13 X42 d   1     -69.162  30.239 -82.445  0.00  0.00    -0.046 A 
ATOM     34  H7  X42 d   1     -67.083  30.839 -82.250  0.00  0.00     0.083 H 
ATOM     35  C14 X42 d   1     -70.092  29.453 -83.171  0.00  0.00     0.117 A 
ATOM     36  H8  X42 d   1     -69.500  30.845 -81.612  0.00  0.00     0.088 H 
ATOM     37  C15 X42 d   1     -69.656  28.646 -84.267  0.00  0.00    -0.032 A 
ATOM     38  F24 X42 d   1     -71.374  29.467 -82.824  0.00  0.00    -0.206 F 
ATOM     39  H9  X42 d   1     -70.373  28.047 -84.817  0.00  0.00     0.089 H 
ENDBRANCH  27  29
ENDBRANCH   2  27
TORSDOF 7
