REMARK  6 active torsions:
REMARK  status: ('A' for Active; 'I' for Inactive)
REMARK    1  A    between atoms: N02_2  and  C08_8 
REMARK    2  A    between atoms: C09_9  and  N02_2 
REMARK    3  A    between atoms: S25_25  and  N05_5 
REMARK    4  A    between atoms: C06_6  and  C10_10 
REMARK    5  A    between atoms: C10_10  and  C11_11 
REMARK    6  A    between atoms: C18_18  and  S25_25 
ROOT
ATOM      1  N01 X40 d   1     -38.661 -81.965 -50.608  0.00  0.00    -0.205 NA
ATOM      2  N04 X40 d   1     -40.191 -81.121 -52.101  0.00  0.00    -0.383 N 
ATOM      3  C06 X40 d   1     -40.248 -80.386 -49.887  0.00  0.00     0.104 A 
ATOM      4  C07 X40 d   1     -39.727 -81.155 -50.927  0.00  0.00     0.145 A 
ATOM      5  C08 X40 d   1     -38.354 -81.839 -49.348  0.00  0.00     0.174 A 
ATOM      6  S24 X40 d   1     -39.345 -80.730 -48.460  0.00  0.00    -0.044 SA
ATOM      7  H2  X40 d   1     -40.989 -80.509 -52.322  0.00  0.00     0.157 HD
ATOM      8  H3  X40 d   1     -39.771 -81.706 -52.838  0.00  0.00     0.157 HD
ENDROOT
BRANCH   5   9
ATOM      9  N02 X40 d   1     -37.358 -82.535 -48.845  0.00  0.00    -0.335 N 
ATOM     10  H1  X40 d   1     -37.122 -83.401 -49.350  0.00  0.00     0.168 HD
BRANCH   9  11
ATOM     11  C09 X40 d   1     -36.627 -82.280 -47.793  0.00  0.00     0.034 A 
ATOM     12  C16 X40 d   1     -36.664 -81.035 -47.057  0.00  0.00    -0.056 A 
ATOM     13  C17 X40 d   1     -35.824 -80.842 -45.932  0.00  0.00    -0.058 A 
ATOM     14  H10 X40 d   1     -37.338 -80.245 -47.368  0.00  0.00     0.087 H 
ATOM     15  C18 X40 d   1     -34.937 -81.878 -45.522  0.00  0.00     0.079 A 
ATOM     16  H11 X40 d   1     -35.857 -79.907 -45.384  0.00  0.00     0.086 H 
ATOM     17  C19 X40 d   1     -34.890 -83.111 -46.233  0.00  0.00    -0.058 A 
ATOM     18  C20 X40 d   1     -35.730 -83.308 -47.358  0.00  0.00    -0.056 A 
ATOM     19  H12 X40 d   1     -34.214 -83.897 -45.915  0.00  0.00     0.086 H 
ATOM     20  H13 X40 d   1     -35.693 -84.249 -47.896  0.00  0.00     0.087 H 
BRANCH  15  21
ATOM     21  S25 X40 d   1     -33.864 -81.635 -44.143  0.00  0.00     0.256 S 
ATOM     22  O22 X40 d   1     -32.788 -80.796 -44.577  0.00  0.00    -0.201 OA
ATOM     23  O23 X40 d   1     -33.347 -82.920 -43.701  0.00  0.00    -0.201 OA
BRANCH  21  24
ATOM     24  N05 X40 d   1     -34.658 -80.871 -42.868  0.00  0.00    -0.324 N 
ATOM     25  H4  X40 d   1     -34.166 -80.671 -42.021  0.00  0.00     0.169 HD
ATOM     26  H5  X40 d   1     -35.621 -80.618 -42.959  0.00  0.00     0.169 HD
ENDBRANCH  21  24
ENDBRANCH  15  21
ENDBRANCH   9  11
ENDBRANCH   5   9
BRANCH   3  27
ATOM     27  C10 X40 d   1     -41.317 -79.495 -49.996  0.00  0.00     0.204 C 
ATOM     28  O21 X40 d   1     -41.969 -79.470 -51.043  0.00  0.00    -0.286 OA
BRANCH  27  29
ATOM     29  C11 X40 d   1     -41.658 -78.614 -48.969  0.00  0.00     0.033 A 
ATOM     30  C12 X40 d   1     -40.677 -77.923 -48.181  0.00  0.00    -0.066 A 
ATOM     31  C13 X40 d   1     -41.064 -77.043 -47.146  0.00  0.00    -0.065 A 
ATOM     32  H6  X40 d   1     -39.623 -78.079 -48.383  0.00  0.00     0.085 H 
ATOM     33  C14 X40 d   1     -42.437 -76.862 -46.918  0.00  0.00     0.002 A 
ATOM     34  H7  X40 d   1     -40.324 -76.524 -46.547  0.00  0.00     0.085 H 
ATOM     35  N03 X40 d   1     -43.412 -77.501 -47.661  0.00  0.00    -0.272 NA
ATOM     36  H8  X40 d   1     -42.746 -76.192 -46.124  0.00  0.00     0.114 H 
ATOM     37  C15 X40 d   1     -43.009 -78.359 -48.661  0.00  0.00     0.015 A 
ATOM     38  H9  X40 d   1     -43.772 -78.865 -49.242  0.00  0.00     0.116 H 
ENDBRANCH  27  29
ENDBRANCH   3  27
TORSDOF 6
