REMARK  8 active torsions:
REMARK  status: ('A' for Active; 'I' for Inactive)
REMARK    1  A    between atoms: CAO_15  and  OAB_2 
REMARK    2  A    between atoms: CBE_31  and  OAC_3 
REMARK    3  A    between atoms: CBE_31  and  CAO_15 
REMARK    4  A    between atoms: OAT_20  and  CAR_18 
REMARK    5  A    between atoms: CAR_18  and  CBE_31 
REMARK    6  A    between atoms: CAW_23  and  NAS_19 
REMARK    7  A    between atoms: NAS_19  and  CBB_28 
REMARK    8  A    between atoms: CAY_25  and  OAT_20 
ROOT
ATOM      1  OAA 3FF d   1       2.318   3.946  23.019  0.00  0.00    -0.287 OA
ATOM      2  CAG 3FF d   1       3.389   1.164  20.150  0.00  0.00    -0.056 A 
ATOM      3  CAH 3FF d   1       1.444   1.666  27.369  0.00  0.00    -0.050 A 
ATOM      4  CAI 3FF d   1       0.665   0.999  26.407  0.00  0.00    -0.073 A 
ATOM      5  CAK 3FF d   1       3.075   2.075  21.138  0.00  0.00    -0.067 A 
ATOM      6  CAM 3FF d   1       2.209  -0.556  21.326  0.00  0.00    -0.050 A 
ATOM      7  CAN 3FF d   1       2.535   2.943  25.632  0.00  0.00    -0.036 A 
ATOM      8  CAP 3FF d   1      -0.014   0.561  24.113  0.00  0.00    -0.036 C 
ATOM      9  CAQ 3FF d   1       1.008  -0.334  23.413  0.00  0.00    -0.036 C 
ATOM     10  CAU 3FF d   1       2.072   2.762  23.255  0.00  0.00     0.193 C 
ATOM     11  CAW 3FF d   1       2.973  -0.155  20.239  0.00  0.00     0.033 A 
ATOM     12  CAY 3FF d   1       2.378   2.624  26.972  0.00  0.00     0.069 A 
ATOM     13  CAZ 3FF d   1       0.841   1.345  25.064  0.00  0.00    -0.043 A 
ATOM     14  CBA 3FF d   1       1.873   0.346  22.327  0.00  0.00    -0.042 A 
ATOM     15  CBC 3FF d   1       2.307   1.667  22.220  0.00  0.00     0.021 A 
ATOM     16  CBD 3FF d   1       1.761   2.311  24.683  0.00  0.00     0.024 A 
ATOM     17  H   3FF d   1       3.972   1.486  19.288  0.00  0.00     0.086 H 
ATOM     18  H   3FF d   1       1.318   1.434  28.427  0.00  0.00     0.087 H 
ATOM     19  H   3FF d   1      -0.055   0.235  26.700  0.00  0.00     0.084 H 
ATOM     20  H   3FF d   1       3.426   3.104  21.069  0.00  0.00     0.085 H 
ATOM     21  H   3FF d   1       1.869  -1.589  21.395  0.00  0.00     0.087 H 
ATOM     22  H   3FF d   1       3.268   3.691  25.330  0.00  0.00     0.089 H 
ATOM     23  H   3FF d   1      -0.804  -0.001  24.612  0.00  0.00     0.040 H 
ATOM     24  H   3FF d   1      -0.574   1.191  23.423  0.00  0.00     0.040 H 
ATOM     25  H   3FF d   1       0.437  -1.113  22.907  0.00  0.00     0.040 H 
ATOM     26  H   3FF d   1       1.698  -0.673  24.186  0.00  0.00     0.040 H 
ENDROOT
BRANCH  11  27
ATOM     27  NAS 3FF d   1       3.284  -1.043  19.280  0.00  0.00    -0.354 N 
ATOM     28  H   3FF d   1       2.977  -2.013  19.356  0.00  0.00     0.166 HD
BRANCH  27  29
ATOM     29  CBB 3FF d   1       3.997  -0.645  18.230  0.00  0.00     0.071 A 
ATOM     30  CAJ 3FF d   1       3.413  -0.755  16.986  0.00  0.00    -0.051 A 
ATOM     31  CAF 3FF d   1       4.094  -0.352  15.831  0.00  0.00    -0.043 A 
ATOM     32  H   3FF d   1       2.405  -1.162  16.900  0.00  0.00     0.087 H 
ATOM     33  CAV 3FF d   1       5.373   0.189  15.949  0.00  0.00     0.119 A 
ATOM     34  H   3FF d   1       3.629  -0.460  14.851  0.00  0.00     0.088 H 
ATOM     35  FAD 3FF d   1       6.059   0.614  14.861  0.00  0.00    -0.206 F 
ATOM     36  CAL 3FF d   1       5.968   0.302  17.205  0.00  0.00    -0.006 A 
ATOM     37  CAX 3FF d   1       5.296  -0.106  18.342  0.00  0.00     0.145 A 
ATOM     38  H   3FF d   1       6.973   0.716  17.291  0.00  0.00     0.093 H 
ATOM     39  FAE 3FF d   1       5.952   0.061  19.523  0.00  0.00    -0.204 F 
ENDBRANCH  27  29
ENDBRANCH  11  27
BRANCH  12  40
ATOM     40  OAT 3FF d   1       3.161   3.318  27.847  0.00  0.00    -0.349 OA
BRANCH  40  41
ATOM     41  CAR 3FF d   1       3.460   2.809  29.176  0.00  0.00     0.052 C 
ATOM     42  H   3FF d   1       3.810   1.779  29.110  0.00  0.00     0.079 H 
ATOM     43  H   3FF d   1       2.562   2.830  29.793  0.00  0.00     0.079 H 
BRANCH  41  44
ATOM     44  CBE 3FF d   1       4.564   3.707  29.812  0.00  0.00     0.076 C 
ATOM     45  H   3FF d   1       5.483   3.479  29.272  0.00  0.00     0.089 H 
BRANCH  44  46
ATOM     46  OAC 3FF d   1       4.664   3.405  31.201  0.00  0.00    -0.391 OA
ATOM     47  H   3FF d   1       3.850   3.660  31.642  0.00  0.00     0.210 HD
ENDBRANCH  44  46
BRANCH  44  48
ATOM     48  CAO 3FF d   1       4.333   5.226  29.651  0.00  0.00     0.042 C 
ATOM     49  H   3FF d   1       5.258   5.761  29.869  0.00  0.00     0.078 H 
ATOM     50  H   3FF d   1       4.024   5.442  28.628  0.00  0.00     0.078 H 
BRANCH  48  51
ATOM     51  OAB 3FF d   1       3.305   5.650  30.564  0.00  0.00    -0.398 OA
ATOM     52  H   3FF d   1       3.579   5.460  31.464  0.00  0.00     0.209 HD
ENDBRANCH  48  51
ENDBRANCH  44  48
ENDBRANCH  41  44
ENDBRANCH  40  41
ENDBRANCH  12  40
TORSDOF 8
