REMARK  2 active torsions:
REMARK  status: ('A' for Active; 'I' for Inactive)
REMARK       I    between atoms: N8_8  and  C13_13 
REMARK    1  A    between atoms: N9_9  and  C14_14 
REMARK    2  A    between atoms: C13_13  and  C16_16 
ROOT
ATOM      1  C1  LUN d   1      10.411  -7.633  14.651  0.00  0.00     0.031 A 
ATOM      2  C2  LUN d   1       9.060  -7.027  14.881  0.00  0.00    -0.019 A 
ATOM      3  C3  LUN d   1      10.114  -9.122  14.786  0.00  0.00     0.016 A 
ATOM      4  C4  LUN d   1      11.031  -7.366  13.294  0.00  0.00     0.096 C 
ATOM      5  C5  LUN d   1      11.401  -7.181  15.674  0.00  0.00    -0.028 C 
ATOM      6  C6  LUN d   1       8.140  -7.994  15.202  0.00  0.00     0.044 A 
ATOM      7  C7  LUN d   1       8.674  -5.704  14.803  0.00  0.00    -0.074 A 
ATOM      8  N8  LUN d   1       8.730  -9.263  15.212  0.00  0.00    -0.311 N 
ATOM      9  N9  LUN d   1      12.450  -6.977  13.548  0.00  0.00    -0.064 N 
ATOM     10  C10 LUN d   1      12.751  -7.127  14.992  0.00  0.00     0.085 C 
ATOM     11  C11 LUN d   1       6.825  -7.685  15.446  0.00  0.00    -0.056 A 
ATOM     12  C12 LUN d   1       7.354  -5.373  15.049  0.00  0.00    -0.082 A 
ATOM     13  C13 LUN d   1       7.951 -10.429  15.124  0.00  0.00     0.275 C 
ATOM     14  C15 LUN d   1       6.434  -6.365  15.365  0.00  0.00    -0.081 A 
ATOM     15  O17 LUN d   1       6.756 -10.427  15.413  0.00  0.00    -0.265 OA
ATOM     16  H1  LUN d   1      10.783  -9.571  15.535  0.00  0.00     0.066 H 
ATOM     17  H2  LUN d   1      10.260  -9.622  13.817  0.00  0.00     0.066 H 
ATOM     18  H3  LUN d   1      10.498  -6.549  12.786  0.00  0.00     0.077 H 
ATOM     19  H4  LUN d   1      10.991  -8.273  12.672  0.00  0.00     0.077 H 
ATOM     20  H5  LUN d   1      11.430  -7.893  16.512  0.00  0.00     0.037 H 
ATOM     21  H6  LUN d   1      11.127  -6.184  16.049  0.00  0.00     0.037 H 
ATOM     22  H7  LUN d   1       9.396  -4.935  14.552  0.00  0.00     0.084 H 
ATOM     23  H8  LUN d   1      12.505  -5.990  13.349  0.00  0.00     0.280 HD
ATOM     24  H9  LUN d   1      13.313  -8.055  15.175  0.00  0.00     0.076 H 
ATOM     25  H10 LUN d   1      13.333  -6.268  15.356  0.00  0.00     0.076 H 
ATOM     26  H11 LUN d   1       6.110  -8.461  15.697  0.00  0.00     0.086 H 
ATOM     27  H12 LUN d   1       7.037  -4.338  14.995  0.00  0.00     0.083 H 
ATOM     28  H14 LUN d   1       5.399  -6.099  15.550  0.00  0.00     0.083 H 
ENDROOT
BRANCH   9  29
ATOM     29  C14 LUN d   1      13.464  -7.610  12.655  0.00  0.00     0.127 C 
ATOM     30  C18 LUN d   1      14.846  -7.042  12.964  0.00  0.00    -0.035 C 
ATOM     31  C22 LUN d   1      15.863  -7.551  11.946  0.00  0.00    -0.041 C 
ATOM     32  H15 LUN d   1      15.152  -7.358  13.972  0.00  0.00     0.036 H 
ATOM     33  H16 LUN d   1      14.806  -5.944  12.920  0.00  0.00     0.036 H 
ATOM     34  C26 LUN d   1      15.413  -7.216  10.533  0.00  0.00     0.082 C 
ATOM     35  H21 LUN d   1      15.961  -8.642  12.046  0.00  0.00     0.035 H 
ATOM     36  H22 LUN d   1      16.837  -7.077  12.138  0.00  0.00     0.035 H 
ATOM     37  N23 LUN d   1      14.082  -7.790  10.298  0.00  0.00    -0.073 N 
ATOM     38  H25 LUN d   1      16.127  -7.637   9.810  0.00  0.00     0.075 H 
ATOM     39  H26 LUN d   1      15.369  -6.124  10.411  0.00  0.00     0.075 H 
ATOM     40  C19 LUN d   1      13.127  -7.205  11.240  0.00  0.00     0.108 C 
ATOM     41  H23 LUN d   1      13.790  -7.588   9.354  0.00  0.00     0.277 HD
ATOM     42  H24 LUN d   1      14.118  -8.788  10.432  0.00  0.00     0.277 HD
ATOM     43  H17 LUN d   1      13.164  -6.109  11.159  0.00  0.00     0.078 H 
ATOM     44  H18 LUN d   1      12.114  -7.557  10.994  0.00  0.00     0.078 H 
ATOM     45  H13 LUN d   1      13.457  -8.704  12.770  0.00  0.00     0.087 H 
ENDBRANCH   9  29
BRANCH  13  46
ATOM     46  C16 LUN d   1       8.543 -11.645  14.662  0.00  0.00     0.102 A 
ATOM     47  C20 LUN d   1       9.832 -12.149  14.640  0.00  0.00    -0.040 A 
ATOM     48  C24 LUN d   1       9.809 -13.437  14.036  0.00  0.00    -0.004 A 
ATOM     49  H19 LUN d   1      10.717 -11.643  15.022  0.00  0.00     0.088 H 
ATOM     50  C25 LUN d   1       8.495 -13.698  13.699  0.00  0.00     0.043 A 
ATOM     51  C27 LUN d   1      10.779 -14.392  13.752  0.00  0.00    -0.034 A 
ATOM     52  N21 LUN d   1       7.768 -12.611  14.091  0.00  0.00    -0.351 N 
ATOM     53  C28 LUN d   1       8.061 -14.854  13.085  0.00  0.00    -0.053 A 
ATOM     54  H20 LUN d   1       6.748 -12.530  13.969  0.00  0.00     0.166 HD
ATOM     55  C30 LUN d   1       9.042 -15.782  12.819  0.00  0.00    -0.043 A 
ATOM     56  H28 LUN d   1       7.021 -15.020  12.830  0.00  0.00     0.087 H 
ATOM     57  C29 LUN d   1      10.360 -15.562  13.145  0.00  0.00     0.117 A 
ATOM     58  H29 LUN d   1       8.768 -16.714  12.338  0.00  0.00     0.088 H 
ATOM     59  F31 LUN d   1      11.270 -16.529  12.846  0.00  0.00    -0.206 F 
ATOM     60  H27 LUN d   1      11.822 -14.226  13.997  0.00  0.00     0.089 H 
ENDBRANCH  13  46
TORSDOF 2
