REMARK  2 active torsions:
REMARK  status: ('A' for Active; 'I' for Inactive)
REMARK    1  A    between atoms: C1_1  and  N1_8 
REMARK    2  A    between atoms: C4_4  and  OH_7 
ROOT
ATOM      1  C1  NPO d   1     -26.264  -0.026  -5.027  0.00  0.00     0.103 A 
ATOM      2  C2  NPO d   1     -25.885   1.238  -4.584  0.00  0.00    -0.048 A 
ATOM      3  C3  NPO d   1     -24.537   1.561  -4.469  0.00  0.00    -0.049 A 
ATOM      4  C4  NPO d   1     -23.567   0.620  -4.799  0.00  0.00     0.065 A 
ATOM      5  C5  NPO d   1     -23.945  -0.643  -5.243  0.00  0.00    -0.049 A 
ATOM      6  C6  NPO d   1     -25.293  -0.965  -5.356  0.00  0.00    -0.048 A 
ATOM      7  H   NPO d   1     -26.645   1.976  -4.327  0.00  0.00     0.087 H 
ATOM      8  H   NPO d   1     -24.241   2.550  -4.121  0.00  0.00     0.087 H 
ATOM      9  H   NPO d   1     -23.185  -1.380  -5.502  0.00  0.00     0.087 H 
ATOM     10  H   NPO d   1     -25.589  -1.955  -5.703  0.00  0.00     0.087 H 
ENDROOT
BRANCH   1  11
ATOM     11  N1  NPO d   1     -27.621  -0.359  -5.142  0.00  0.00    -0.116 N 
ATOM     12  O2  NPO d   1     -28.485   0.469  -4.905  0.00  0.00    -0.532 OA
ATOM     13  O3  NPO d   1     -27.942  -1.488  -5.476  0.00  0.00    -0.532 OA
ENDBRANCH   1  11
BRANCH   4  14
ATOM     14  OH  NPO d   1     -22.246   0.934  -4.688  0.00  0.00    -0.361 OA
ATOM     15  H   NPO d   1     -21.826   0.333  -4.068  0.00  0.00     0.217 HD
ENDBRANCH   4  14
TORSDOF 2
