REMARK  1 active torsions:
REMARK  status: ('A' for Active; 'I' for Inactive)
REMARK    1  A    between atoms: C1_1  and  O1_3 
ROOT
ATOM      1  C1  3QV d   1       2.122  12.118  12.742  0.00  0.00     0.068 A 
ATOM      2  N1  3QV d   1       4.513   5.118  11.626  0.00  0.00    -0.191 NA
ATOM      3  C2  3QV d   1       3.361  12.127  12.113  0.00  0.00    -0.050 A 
ATOM      4  O2  3QV d   1       1.585   6.314  13.097  0.00  0.00    -0.258 OA
ATOM      5  C3  3QV d   1       3.994  10.927  11.818  0.00  0.00    -0.068 A 
ATOM      6  O3  3QV d   1       1.509   8.548  13.119  0.00  0.00    -0.273 OA
ATOM      7  C4  3QV d   1       3.384   9.724  12.151  0.00  0.00    -0.000 A 
ATOM      8  C5  3QV d   1       4.016   8.530  11.851  0.00  0.00    -0.044 A 
ATOM      9  C6  3QV d   1       3.377   7.348  12.184  0.00  0.00     0.120 A 
ATOM     10  C7  3QV d   1       3.995   6.098  11.881  0.00  0.00     0.105 C 
ATOM     11  C8  3QV d   1       2.136   7.376  12.810  0.00  0.00     0.309 A 
ATOM     12  C9  3QV d   1       2.141   9.710  12.778  0.00  0.00     0.092 A 
ATOM     13  C10 3QV d   1       1.514  10.914  13.073  0.00  0.00    -0.017 A 
ATOM     14  H   3QV d   1       3.835  13.073  11.852  0.00  0.00     0.087 H 
ATOM     15  H   3QV d   1       4.967  10.929  11.326  0.00  0.00     0.085 H 
ATOM     16  H   3QV d   1       4.992   8.521  11.365  0.00  0.00     0.087 H 
ATOM     17  H   3QV d   1       0.542  10.914  13.566  0.00  0.00     0.092 H 
ENDROOT
BRANCH   1  18
ATOM     18  O1  3QV d   1       1.503  13.290  13.035  0.00  0.00    -0.361 OA
ATOM     19  H   3QV d   1       1.350  13.781  12.224  0.00  0.00     0.217 HD
ENDBRANCH   1  18
TORSDOF 1
