REMARK  17 active torsions:
REMARK  status: ('A' for Active; 'I' for Inactive)
REMARK    1  A    between atoms: N_1  and  CA_2 
REMARK    2  A    between atoms: CA_2  and  C_3 
REMARK    3  A    between atoms: CA_2  and  CB_5 
REMARK       I    between atoms: C_3  and  N_12 
REMARK    4  A    between atoms: CB_5  and  CG_6 
REMARK    5  A    between atoms: CG_6  and  CD_7 
REMARK    6  A    between atoms: CD_7  and  NE_8 
REMARK       I    between atoms: NE_8  and  CZ_9 
REMARK       I    between atoms: CZ_9  and  NH1_10 
REMARK    7  A    between atoms: N_12  and  CA_13 
REMARK    8  A    between atoms: CA_13  and  C_14 
REMARK    9  A    between atoms: CA_13  and  CB_16 
REMARK       I    between atoms: C_14  and  N_24 
REMARK   10  A    between atoms: CB_16  and  CG_17 
REMARK   11  A    between atoms: CZ_22  and  OH_23 
REMARK   12  A    between atoms: N_24  and  CA_25 
REMARK   13  A    between atoms: CA_25  and  C_26 
REMARK       I    between atoms: C_26  and  N_28 
REMARK   14  A    between atoms: N_28  and  CA_29 
REMARK   15  A    between atoms: CA_29  and  C_30 
REMARK   16  A    between atoms: CA_29  and  CB_32 
REMARK       I    between atoms: C_30  and  N_34 
REMARK   17  A    between atoms: CB_32  and  SG_33 
ROOT
ATOM      1  CA  TYR d   1      24.496  24.142  54.636  0.00  0.00     0.093 C 
ATOM      2  H17 TYR d   1      23.865  24.984  54.956  0.00  0.00     0.088 H 
ENDROOT
BRANCH   1   3
ATOM      3  N   TYR d   1      25.530  24.652  53.737  0.00  0.00    -0.346 N 
ATOM      4  C   ARG d   1      26.367  25.623  54.087  0.00  0.00     0.249 C 
ATOM      5  O   ARG d   1      26.338  26.168  55.189  0.00  0.00    -0.271 OA
ATOM      6  H16 TYR d   1      25.610  24.255  52.823  0.00  0.00     0.163 HD
BRANCH   4   7
ATOM      7  CA  ARG d   1      27.384  26.048  53.032  0.00  0.00     0.176 C 
ATOM      8  H4  ARG d   1      27.028  25.727  52.042  0.00  0.00     0.099 H 
BRANCH   7   9
ATOM      9  N   ARG d   1      27.540  27.530  53.028  0.00  0.00    -0.067 N 
ATOM     10  H1  ARG d   1      28.214  27.795  52.327  0.00  0.00     0.275 HD
ATOM     11  H2  ARG d   1      27.859  27.837  53.934  0.00  0.00     0.275 HD
ATOM     12  H3  ARG d   1      26.653  27.961  52.821  0.00  0.00     0.275 HD
ENDBRANCH   7   9
BRANCH   7  13
ATOM     13  CB  ARG d   1      28.725  25.373  53.322  0.00  0.00    -0.029 C 
ATOM     14  H5  ARG d   1      28.573  24.284  53.298  0.00  0.00     0.036 H 
ATOM     15  H6  ARG d   1      29.050  25.675  54.328  0.00  0.00     0.036 H 
BRANCH  13  16
ATOM     16  CG  ARG d   1      29.835  25.718  52.342  0.00  0.00    -0.047 C 
ATOM     17  H7  ARG d   1      30.119  26.773  52.471  0.00  0.00     0.035 H 
ATOM     18  H8  ARG d   1      29.476  25.558  51.315  0.00  0.00     0.035 H 
BRANCH  16  19
ATOM     19  CD  ARG d   1      31.049  24.835  52.594  0.00  0.00     0.009 C 
ATOM     20  H9  ARG d   1      30.757  23.785  52.446  0.00  0.00     0.064 H 
ATOM     21  H10 ARG d   1      31.380  24.980  53.633  0.00  0.00     0.064 H 
BRANCH  19  22
ATOM     22  NE  ARG d   1      32.166  25.139  51.702  0.00  0.00    -0.227 N 
ATOM     23  CZ  ARG d   1      32.930  26.223  51.799  0.00  0.00     0.665 C 
ATOM     24  NH1 ARG d   1      32.701  27.115  52.754  0.00  0.00    -0.235 N 
ATOM     25  NH2 ARG d   1      33.928  26.414  50.944  0.00  0.00    -0.235 N 
ATOM     26  H12 ARG d   1      33.294  27.954  52.828  0.00  0.00     0.174 HD
ATOM     27  H13 ARG d   1      31.930  26.968  53.422  0.00  0.00     0.174 HD
ATOM     28  H14 ARG d   1      34.109  25.724  50.201  0.00  0.00     0.174 HD
ATOM     29  H15 ARG d   1      34.521  27.252  51.024  0.00  0.00     0.174 HD
ATOM     30  H11 ARG d   1      32.375  24.469  50.948  0.00  0.00     0.177 HD
ENDBRANCH  19  22
ENDBRANCH  16  19
ENDBRANCH  13  16
ENDBRANCH   7  13
ENDBRANCH   4   7
ENDBRANCH   1   3
BRANCH   1  31
ATOM     31  C   TYR d   1      25.105  23.488  55.878  0.00  0.00     0.241 C 
ATOM     32  O   TYR d   1      24.556  23.588  56.978  0.00  0.00    -0.271 OA
ATOM     33  N   GLY d   1      26.236  22.812  55.697  0.00  0.00    -0.351 N 
ATOM     34  H25 GLY d   1      26.637  22.746  54.783  0.00  0.00     0.163 HD
BRANCH  33  35
ATOM     35  CA  GLY d   1      26.890  22.170  56.824  0.00  0.00     0.069 C 
ATOM     36  H26 GLY d   1      26.737  22.802  57.711  0.00  0.00     0.078 H 
ATOM     37  H27 GLY d   1      27.965  22.104  56.601  0.00  0.00     0.078 H 
BRANCH  35  38
ATOM     38  C   GLY d   1      26.392  20.774  57.151  0.00  0.00     0.236 C 
ATOM     39  O   GLY d   1      25.563  20.210  56.432  0.00  0.00    -0.272 OA
ATOM     40  N   CYS d   1      26.902  20.230  58.255  0.00  0.00    -0.346 N 
ATOM     41  H28 CYS d   1      27.553  20.769  58.790  0.00  0.00     0.163 HD
BRANCH  40  42
ATOM     42  CA  CYS d   1      26.562  18.888  58.728  0.00  0.00     0.097 C 
ATOM     43  H29 CYS d   1      26.541  18.222  57.853  0.00  0.00     0.088 H 
BRANCH  42  44
ATOM     44  C   CYS d   1      25.202  18.803  59.411  0.00  0.00     0.239 C 
ATOM     45  O   CYS d   1      24.642  17.685  59.446  0.00  0.00    -0.271 OA
ATOM     46  N   NH2 d   1      24.714  19.920  59.972  0.00  0.00    -0.368 N 
ATOM     47  H33 NH2 d   1      23.825  19.903  60.429  0.00  0.00     0.159 HD
ATOM     48  H34 NH2 d   1      25.240  20.770  59.933  0.00  0.00     0.159 HD
ENDBRANCH  42  44
BRANCH  42  49
ATOM     49  CB  CYS d   1      27.639  18.386  59.697  0.00  0.00     0.001 C 
ATOM     50  H30 CYS d   1      27.388  17.355  59.988  0.00  0.00     0.052 H 
ATOM     51  H31 CYS d   1      27.629  19.031  60.588  0.00  0.00     0.052 H 
BRANCH  49  52
ATOM     52  SG  CYS d   1      29.309  18.391  59.013  0.00  0.00    -0.180 SA
ATOM     53  H32 CYS d   1      29.561  19.331  58.751  0.00  0.00     0.101 HD
ENDBRANCH  49  52
ENDBRANCH  42  49
ENDBRANCH  40  42
ENDBRANCH  35  38
ENDBRANCH  33  35
ENDBRANCH   1  31
BRANCH   1  54
ATOM     54  CB  TYR d   1      23.625  23.119  53.899  0.00  0.00    -0.014 C 
ATOM     55  H18 TYR d   1      24.195  22.183  53.804  0.00  0.00     0.043 H 
ATOM     56  H19 TYR d   1      23.399  23.514  52.898  0.00  0.00     0.043 H 
BRANCH  54  57
ATOM     57  CG  TYR d   1      22.318  22.811  54.596  0.00  0.00    -0.056 A 
ATOM     58  CD1 TYR d   1      21.263  23.720  54.565  0.00  0.00    -0.074 A 
ATOM     59  CE1 TYR d   1      20.055  23.456  55.217  0.00  0.00    -0.051 A 
ATOM     60  H20 TYR d   1      21.381  24.652  54.024  0.00  0.00     0.084 H 
ATOM     61  CZ  TYR d   1      19.895  22.269  55.912  0.00  0.00     0.065 A 
ATOM     62  H22 TYR d   1      19.247  24.177  55.179  0.00  0.00     0.087 H 
ATOM     63  CE2 TYR d   1      20.930  21.341  55.961  0.00  0.00    -0.051 A 
ATOM     64  CD2 TYR d   1      22.139  21.619  55.300  0.00  0.00    -0.074 A 
ATOM     65  H23 TYR d   1      20.805  20.411  56.504  0.00  0.00     0.087 H 
ATOM     66  H21 TYR d   1      22.946  20.896  55.338  0.00  0.00     0.084 H 
BRANCH  61  67
ATOM     67  OH  TYR d   1      18.704  22.021  56.558  0.00  0.00    -0.361 OA
ATOM     68  H24 TYR d   1      18.866  21.912  57.488  0.00  0.00     0.217 HD
ENDBRANCH  61  67
ENDBRANCH  54  57
ENDBRANCH   1  54
TORSDOF 17
