REMARK  20 active torsions:
REMARK  status: ('A' for Active; 'I' for Inactive)
REMARK    1  A    between atoms: N_1  and  CA_2 
REMARK    2  A    between atoms: CA_2  and  C_3 
REMARK    3  A    between atoms: CA_2  and  CB_5 
REMARK       I    between atoms: C_3  and  N_12 
REMARK    4  A    between atoms: CB_5  and  CG_6 
REMARK    5  A    between atoms: CG_6  and  CD_7 
REMARK    6  A    between atoms: CD_7  and  NE_8 
REMARK       I    between atoms: NE_8  and  CZ_9 
REMARK       I    between atoms: CZ_9  and  NH1_10 
REMARK       I    between atoms: CZ_9  and  NH2_11 
REMARK    7  A    between atoms: N_12  and  CA_13 
REMARK    8  A    between atoms: CA_13  and  C_14 
REMARK    9  A    between atoms: CA_13  and  CB_16 
REMARK       I    between atoms: C_14  and  N_23 
REMARK   10  A    between atoms: CB_16  and  CG_17 
REMARK   11  A    between atoms: CG_17  and  CD_18 
REMARK   12  A    between atoms: CD_18  and  NE_19 
REMARK       I    between atoms: NE_19  and  CZ_20 
REMARK       I    between atoms: CZ_20  and  NH1_21 
REMARK   13  A    between atoms: N_23  and  CA_24 
REMARK   14  A    between atoms: CA_24  and  C_25 
REMARK   15  A    between atoms: CA_24  and  CB_27 
REMARK       I    between atoms: C_25  and  N_34 
REMARK   16  A    between atoms: CB_27  and  CG_28 
REMARK   17  A    between atoms: N_34  and  CA_35 
REMARK   18  A    between atoms: CA_35  and  C_36 
REMARK   19  A    between atoms: CA_35  and  CB_38 
REMARK       I    between atoms: C_36  and  N_40 
REMARK   20  A    between atoms: CB_38  and  SG_39 
ROOT
ATOM      1  CA  ARG d   1      25.592  23.910  55.516  0.00  0.00     0.089 C 
ATOM      2  H17 ARG d   1      25.370  24.696  56.253  0.00  0.00     0.087 H 
ENDROOT
BRANCH   1   3
ATOM      3  N   ARG d   1      26.189  24.491  54.325  0.00  0.00    -0.346 N 
ATOM      4  C   ARG d   1      26.542  25.771  54.322  0.00  0.00     0.248 C 
ATOM      5  O   ARG d   1      26.324  26.530  55.269  0.00  0.00    -0.271 OA
ATOM      6  H16 ARG d   1      26.333  23.929  53.511  0.00  0.00     0.163 HD
BRANCH   4   7
ATOM      7  CA  ARG d   1      27.236  26.278  53.075  0.00  0.00     0.176 C 
ATOM      8  H4  ARG d   1      26.791  25.831  52.174  0.00  0.00     0.099 H 
BRANCH   7   9
ATOM      9  N   ARG d   1      27.090  27.761  53.024  0.00  0.00    -0.067 N 
ATOM     10  H1  ARG d   1      27.547  28.115  52.199  0.00  0.00     0.275 HD
ATOM     11  H2  ARG d   1      27.513  28.169  53.843  0.00  0.00     0.275 HD
ATOM     12  H3  ARG d   1      26.111  28.002  52.996  0.00  0.00     0.275 HD
ENDBRANCH   7   9
BRANCH   7  13
ATOM     13  CB  ARG d   1      28.704  25.862  53.198  0.00  0.00    -0.029 C 
ATOM     14  H5  ARG d   1      28.737  24.763  53.171  0.00  0.00     0.036 H 
ATOM     15  H6  ARG d   1      29.065  26.216  54.175  0.00  0.00     0.036 H 
BRANCH  13  16
ATOM     16  CG  ARG d   1      29.666  26.366  52.155  0.00  0.00    -0.047 C 
ATOM     17  H7  ARG d   1      29.868  27.435  52.320  0.00  0.00     0.035 H 
ATOM     18  H8  ARG d   1      29.236  26.225  51.153  0.00  0.00     0.035 H 
BRANCH  16  19
ATOM     19  CD  ARG d   1      30.965  25.569  52.278  0.00  0.00     0.009 C 
ATOM     20  H9  ARG d   1      30.759  24.522  52.009  0.00  0.00     0.064 H 
ATOM     21  H10 ARG d   1      31.308  25.619  53.322  0.00  0.00     0.064 H 
BRANCH  19  22
ATOM     22  NE  ARG d   1      32.031  26.067  51.417  0.00  0.00    -0.227 N 
ATOM     23  CZ  ARG d   1      32.752  27.153  51.668  0.00  0.00     0.665 C 
ATOM     24  NH1 ARG d   1      32.527  27.867  52.764  0.00  0.00    -0.235 N 
ATOM     25  NH2 ARG d   1      33.705  27.525  50.824  0.00  0.00    -0.235 N 
ATOM     26  H12 ARG d   1      33.089  28.709  52.955  0.00  0.00     0.174 HD
ATOM     27  H13 ARG d   1      31.790  27.579  53.424  0.00  0.00     0.174 HD
ATOM     28  H14 ARG d   1      33.883  26.974  49.972  0.00  0.00     0.174 HD
ATOM     29  H15 ARG d   1      34.267  28.365  51.020  0.00  0.00     0.174 HD
ATOM     30  H11 ARG d   1      32.239  25.541  50.556  0.00  0.00     0.177 HD
ENDBRANCH  19  22
ENDBRANCH  16  19
ENDBRANCH  13  16
ENDBRANCH   7  13
ENDBRANCH   4   7
ENDBRANCH   1   3
BRANCH   1  31
ATOM     31  C   ARG d   1      26.683  22.983  56.053  0.00  0.00     0.241 C 
ATOM     32  O   ARG d   1      27.639  22.675  55.342  0.00  0.00    -0.271 OA
ATOM     33  N   PHE d   1      26.567  22.562  57.304  0.00  0.00    -0.346 N 
ATOM     34  H29 PHE d   1      25.770  22.832  57.843  0.00  0.00     0.163 HD
BRANCH  33  35
ATOM     35  CA  PHE d   1      27.584  21.712  57.903  0.00  0.00     0.093 C 
ATOM     36  H30 PHE d   1      28.475  21.724  57.258  0.00  0.00     0.088 H 
BRANCH  35  37
ATOM     37  C   PHE d   1      27.111  20.271  58.025  0.00  0.00     0.241 C 
ATOM     38  O   PHE d   1      27.507  19.409  57.236  0.00  0.00    -0.271 OA
ATOM     39  N   CYS d   1      26.264  20.007  59.014  0.00  0.00    -0.345 N 
ATOM     40  H38 CYS d   1      25.979  20.741  59.631  0.00  0.00     0.163 HD
BRANCH  39  41
ATOM     41  CA  CYS d   1      25.745  18.658  59.209  0.00  0.00     0.097 C 
ATOM     42  H39 CYS d   1      26.436  17.942  58.740  0.00  0.00     0.088 H 
BRANCH  41  43
ATOM     43  C   CYS d   1      24.376  18.533  58.552  0.00  0.00     0.239 C 
ATOM     44  O   CYS d   1      23.499  17.848  59.125  0.00  0.00    -0.271 OA
ATOM     45  N   NH2 d   1      24.283  19.083  57.286  0.00  0.00    -0.368 N 
ATOM     46  H43 NH2 d   1      23.418  19.043  56.786  0.00  0.00     0.159 HD
ATOM     47  H44 NH2 d   1      25.081  19.521  56.871  0.00  0.00     0.159 HD
ENDBRANCH  41  43
BRANCH  41  48
ATOM     48  CB  CYS d   1      25.624  18.325  60.700  0.00  0.00     0.001 C 
ATOM     49  H40 CYS d   1      25.195  17.317  60.795  0.00  0.00     0.052 H 
ATOM     50  H41 CYS d   1      24.947  19.057  61.164  0.00  0.00     0.052 H 
BRANCH  48  51
ATOM     51  SG  CYS d   1      27.199  18.360  61.595  0.00  0.00    -0.180 SA
ATOM     52  H42 CYS d   1      27.829  17.686  61.190  0.00  0.00     0.101 HD
ENDBRANCH  48  51
ENDBRANCH  41  48
ENDBRANCH  39  41
ENDBRANCH  35  37
BRANCH  35  53
ATOM     53  CB  PHE d   1      27.963  22.291  59.271  0.00  0.00    -0.014 C 
ATOM     54  H31 PHE d   1      27.108  22.157  59.950  0.00  0.00     0.043 H 
ATOM     55  H32 PHE d   1      28.167  23.365  59.146  0.00  0.00     0.043 H 
BRANCH  53  56
ATOM     56  CG  PHE d   1      29.165  21.655  59.899  0.00  0.00    -0.056 A 
ATOM     57  CD1 PHE d   1      30.387  21.620  59.233  0.00  0.00    -0.077 A 
ATOM     58  CE1 PHE d   1      31.510  21.051  59.834  0.00  0.00    -0.082 A 
ATOM     59  H33 PHE d   1      30.467  22.039  58.237  0.00  0.00     0.084 H 
ATOM     60  CZ  PHE d   1      31.410  20.504  61.110  0.00  0.00    -0.083 A 
ATOM     61  H35 PHE d   1      32.458  21.035  59.309  0.00  0.00     0.083 H 
ATOM     62  CE2 PHE d   1      30.192  20.534  61.782  0.00  0.00    -0.082 A 
ATOM     63  H37 PHE d   1      32.279  20.056  61.579  0.00  0.00     0.083 H 
ATOM     64  CD2 PHE d   1      29.078  21.104  61.170  0.00  0.00    -0.077 A 
ATOM     65  H36 PHE d   1      30.110  20.115  62.779  0.00  0.00     0.083 H 
ATOM     66  H34 PHE d   1      28.129  21.117  61.694  0.00  0.00     0.084 H 
ENDBRANCH  53  56
ENDBRANCH  35  53
ENDBRANCH  33  35
ENDBRANCH   1  31
BRANCH   1  67
ATOM     67  CB  ARG d   1      24.284  23.164  55.189  0.00  0.00    -0.036 C 
ATOM     68  H18 ARG d   1      23.608  23.878  54.697  0.00  0.00     0.036 H 
ATOM     69  H19 ARG d   1      23.841  22.836  56.141  0.00  0.00     0.036 H 
BRANCH  67  70
ATOM     70  CG  ARG d   1      24.395  21.953  54.297  0.00  0.00    -0.048 C 
ATOM     71  H20 ARG d   1      24.762  21.101  54.889  0.00  0.00     0.035 H 
ATOM     72  H21 ARG d   1      25.104  22.168  53.484  0.00  0.00     0.035 H 
BRANCH  70  73
ATOM     73  CD  ARG d   1      23.025  21.594  53.691  0.00  0.00     0.009 C 
ATOM     74  H22 ARG d   1      23.125  20.636  53.160  0.00  0.00     0.064 H 
ATOM     75  H23 ARG d   1      22.748  22.383  52.976  0.00  0.00     0.064 H 
BRANCH  73  76
ATOM     76  NE  ARG d   1      21.940  21.463  54.672  0.00  0.00    -0.227 N 
ATOM     77  CZ  ARG d   1      20.967  22.356  54.855  0.00  0.00     0.665 C 
ATOM     78  NH1 ARG d   1      20.924  23.468  54.130  0.00  0.00    -0.235 N 
ATOM     79  NH2 ARG d   1      20.020  22.131  55.756  0.00  0.00    -0.235 N 
ATOM     80  H25 ARG d   1      20.168  24.151  54.279  0.00  0.00     0.174 HD
ATOM     81  H26 ARG d   1      21.647  23.647  53.418  0.00  0.00     0.174 HD
ATOM     82  H27 ARG d   1      20.043  21.272  56.324  0.00  0.00     0.174 HD
ATOM     83  H28 ARG d   1      19.261  22.815  55.888  0.00  0.00     0.174 HD
ATOM     84  H24 ARG d   1      21.930  20.619  55.262  0.00  0.00     0.177 HD
ENDBRANCH  73  76
ENDBRANCH  70  73
ENDBRANCH  67  70
ENDBRANCH   1  67
TORSDOF 20
