REMARK  16 active torsions:
REMARK  status: ('A' for Active; 'I' for Inactive)
REMARK    1  A    between atoms: N_1  and  CA_2 
REMARK    2  A    between atoms: CA_2  and  C_3 
REMARK    3  A    between atoms: CA_2  and  CB_5 
REMARK       I    between atoms: C_3  and  N_7 
REMARK    4  A    between atoms: CB_5  and  SG_6 
REMARK    5  A    between atoms: N_7  and  CA_8 
REMARK    6  A    between atoms: CA_8  and  C_9 
REMARK    7  A    between atoms: CA_8  and  CB_11 
REMARK       I    between atoms: C_9  and  N_18 
REMARK    8  A    between atoms: CB_11  and  CG_12 
REMARK    9  A    between atoms: CG_12  and  CD_13 
REMARK   10  A    between atoms: CD_13  and  NE_14 
REMARK       I    between atoms: NE_14  and  CZ_15 
REMARK       I    between atoms: CZ_15  and  NH1_16 
REMARK   11  A    between atoms: N_18  and  CA_19 
REMARK   12  A    between atoms: CA_19  and  C_20 
REMARK       I    between atoms: C_20  and  N_22 
REMARK   13  A    between atoms: N_22  and  CA_23 
REMARK   14  A    between atoms: CA_23  and  C_24 
REMARK   15  A    between atoms: CA_23  and  CB_26 
REMARK       I    between atoms: C_24  and  N_28 
REMARK   16  A    between atoms: CB_26  and  SG_27 
ROOT
ATOM      1  CA  ARG d   1      24.799  24.054  54.669  0.00  0.00     0.089 C 
ATOM      2  H9  ARG d   1      24.108  24.870  54.927  0.00  0.00     0.087 H 
ENDROOT
BRANCH   1   3
ATOM      3  N   ARG d   1      25.844  24.613  53.813  0.00  0.00    -0.346 N 
ATOM      4  C   CYS d   1      26.528  25.709  54.130  0.00  0.00     0.249 C 
ATOM      5  O   CYS d   1      26.366  26.335  55.177  0.00  0.00    -0.271 OA
ATOM      6  H8  ARG d   1      26.054  24.151  52.951  0.00  0.00     0.163 HD
BRANCH   4   7
ATOM      7  CA  CYS d   1      27.565  26.160  53.116  0.00  0.00     0.183 C 
ATOM      8  H4  CYS d   1      27.324  25.728  52.134  0.00  0.00     0.100 H 
BRANCH   7   9
ATOM      9  N   CYS d   1      27.554  27.648  53.007  0.00  0.00    -0.066 N 
ATOM     10  H1  CYS d   1      28.244  27.941  52.333  0.00  0.00     0.275 HD
ATOM     11  H2  CYS d   1      27.769  28.052  53.905  0.00  0.00     0.275 HD
ATOM     12  H3  CYS d   1      26.642  27.956  52.709  0.00  0.00     0.275 HD
ENDBRANCH   7   9
BRANCH   7  13
ATOM     13  CB  CYS d   1      28.941  25.665  53.557  0.00  0.00     0.009 C 
ATOM     14  H5  CYS d   1      28.851  24.608  53.849  0.00  0.00     0.052 H 
ATOM     15  H6  CYS d   1      29.260  26.259  54.426  0.00  0.00     0.052 H 
BRANCH  13  16
ATOM     16  SG  CYS d   1      30.208  25.794  52.291  0.00  0.00    -0.180 SA
ATOM     17  H7  CYS d   1      31.082  25.450  52.656  0.00  0.00     0.101 HD
ENDBRANCH  13  16
ENDBRANCH   7  13
ENDBRANCH   4   7
ENDBRANCH   1   3
BRANCH   1  18
ATOM     18  C   ARG d   1      25.314  23.453  55.974  0.00  0.00     0.240 C 
ATOM     19  O   ARG d   1      24.645  23.528  57.007  0.00  0.00    -0.271 OA
ATOM     20  N   GLY d   1      26.499  22.855  55.928  0.00  0.00    -0.351 N 
ATOM     21  H21 GLY d   1      27.009  22.827  55.069  0.00  0.00     0.163 HD
BRANCH  20  22
ATOM     22  CA  GLY d   1      27.057  22.241  57.121  0.00  0.00     0.069 C 
ATOM     23  H22 GLY d   1      26.797  22.859  57.993  0.00  0.00     0.078 H 
ATOM     24  H23 GLY d   1      28.151  22.194  57.018  0.00  0.00     0.078 H 
BRANCH  22  25
ATOM     25  C   GLY d   1      26.525  20.836  57.340  0.00  0.00     0.236 C 
ATOM     26  O   GLY d   1      25.895  20.265  56.450  0.00  0.00    -0.272 OA
ATOM     27  N   CYS d   1      26.778  20.284  58.526  0.00  0.00    -0.346 N 
ATOM     28  H24 CYS d   1      27.293  20.813  59.200  0.00  0.00     0.163 HD
BRANCH  27  29
ATOM     29  CA  CYS d   1      26.333  18.934  58.884  0.00  0.00     0.097 C 
ATOM     30  H25 CYS d   1      26.563  18.264  58.043  0.00  0.00     0.088 H 
BRANCH  29  31
ATOM     31  C   CYS d   1      24.831  18.881  59.147  0.00  0.00     0.239 C 
ATOM     32  O   CYS d   1      24.237  17.794  58.964  0.00  0.00    -0.271 OA
ATOM     33  N   NH2 d   1      24.179  19.970  59.606  0.00  0.00    -0.368 N 
ATOM     34  H29 NH2 d   1      23.195  19.928  59.776  0.00  0.00     0.159 HD
ATOM     35  H30 NH2 d   1      24.680  20.818  59.776  0.00  0.00     0.159 HD
ENDBRANCH  29  31
BRANCH  29  36
ATOM     36  CB  CYS d   1      27.076  18.431  60.132  0.00  0.00     0.001 C 
ATOM     37  H26 CYS d   1      26.605  17.489  60.450  0.00  0.00     0.052 H 
ATOM     38  H27 CYS d   1      26.957  19.186  60.923  0.00  0.00     0.052 H 
BRANCH  36  39
ATOM     39  SG  CYS d   1      28.851  18.122  59.918  0.00  0.00    -0.180 SA
ATOM     40  H28 CYS d   1      29.242  17.798  60.789  0.00  0.00     0.101 HD
ENDBRANCH  36  39
ENDBRANCH  29  36
ENDBRANCH  27  29
ENDBRANCH  22  25
ENDBRANCH  20  22
ENDBRANCH   1  18
BRANCH   1  41
ATOM     41  CB  ARG d   1      24.024  22.985  53.895  0.00  0.00    -0.036 C 
ATOM     42  H10 ARG d   1      23.592  22.282  54.622  0.00  0.00     0.036 H 
ATOM     43  H11 ARG d   1      24.733  22.451  53.245  0.00  0.00     0.036 H 
BRANCH  41  44
ATOM     44  CG  ARG d   1      22.898  23.520  53.028  0.00  0.00    -0.048 C 
ATOM     45  H12 ARG d   1      22.660  22.782  52.248  0.00  0.00     0.035 H 
ATOM     46  H13 ARG d   1      23.220  24.461  52.557  0.00  0.00     0.035 H 
BRANCH  44  47
ATOM     47  CD  ARG d   1      21.654  23.780  53.868  0.00  0.00     0.009 C 
ATOM     48  H14 ARG d   1      20.805  23.986  53.199  0.00  0.00     0.064 H 
ATOM     49  H15 ARG d   1      21.832  24.653  54.514  0.00  0.00     0.064 H 
BRANCH  47  50
ATOM     50  NE  ARG d   1      21.334  22.625  54.704  0.00  0.00    -0.227 N 
ATOM     51  CZ  ARG d   1      20.231  22.501  55.440  0.00  0.00     0.665 C 
ATOM     52  NH1 ARG d   1      19.314  23.457  55.460  0.00  0.00    -0.235 N 
ATOM     53  NH2 ARG d   1      20.047  21.413  56.173  0.00  0.00    -0.235 N 
ATOM     54  H17 ARG d   1      18.466  23.346  56.035  0.00  0.00     0.174 HD
ATOM     55  H18 ARG d   1      19.449  24.312  54.901  0.00  0.00     0.174 HD
ATOM     56  H19 ARG d   1      20.752  20.662  56.166  0.00  0.00     0.174 HD
ATOM     57  H20 ARG d   1      19.199  21.318  56.749  0.00  0.00     0.174 HD
ATOM     58  H16 ARG d   1      22.012  21.849  54.726  0.00  0.00     0.177 HD
ENDBRANCH  47  50
ENDBRANCH  44  47
ENDBRANCH  41  44
ENDBRANCH   1  41
TORSDOF 16
