REMARK  19 active torsions:
REMARK  status: ('A' for Active; 'I' for Inactive)
REMARK    1  A    between atoms: PA_1  and  O3A_4 
REMARK    2  A    between atoms: O5D_21  and  PA_1 
REMARK    3  A    between atoms: O3A_4  and  PB_5 
REMARK    4  A    between atoms: PB_5  and  O3B_8 
REMARK    5  A    between atoms: O3B_8  and  PG_30 
REMARK    6  A    between atoms: C1D_29  and  N9A_9 
REMARK    7  A    between atoms: N7A_11  and  C7X_12 
REMARK    8  A    between atoms: C2A_17  and  N2A_18 
REMARK    9  A    between atoms: C5D_22  and  O5D_21 
REMARK   10  A    between atoms: C4D_23  and  C5D_22 
REMARK   11  A    between atoms: C3D_25  and  O3D_26 
REMARK   12  A    between atoms: C2D_27  and  O2D_28 
REMARK   13  A    between atoms: PG_30  and  O5E_33 
REMARK   14  A    between atoms: O5E_33  and  C5E_34 
REMARK   15  A    between atoms: C5E_34  and  C4E_35 
REMARK   16  A    between atoms: C3E_37  and  O3E_38 
REMARK   17  A    between atoms: C2E_39  and  O2E_40 
REMARK   18  A    between atoms: C1E_41  and  N9B_42 
REMARK   19  A    between atoms: C2B_49  and  N2B_50 
ROOT
ATOM      1  O3A GTG d   1      19.845   2.575 -22.778  0.00  0.00    -0.180 OA
ENDROOT
BRANCH   1   2
ATOM      2  PA  GTG d   1      18.907   3.218 -21.564  0.00  0.00     0.417 P 
ATOM      3  O1A GTG d   1      18.793   2.066 -20.631  0.00  0.00    -0.624 OA
ATOM      4  O2A GTG d   1      17.399   3.605 -22.012  0.00  0.00    -0.624 OA
BRANCH   2   5
ATOM      5  O5D GTG d   1      19.604   4.358 -20.617  0.00  0.00    -0.287 OA
BRANCH   5   6
ATOM      6  C5D GTG d   1      18.578   4.970 -19.776  0.00  0.00     0.058 C 
ATOM      7  H9  GTG d   1      17.873   4.192 -19.449  0.00  0.00     0.079 H 
ATOM      8  H10 GTG d   1      18.040   5.729 -20.363  0.00  0.00     0.079 H 
BRANCH   6   9
ATOM      9  C4D GTG d   1      19.193   5.642 -18.535  0.00  0.00     0.089 C 
ATOM     10  O4D GTG d   1      20.387   6.427 -18.545  0.00  0.00    -0.353 OA
ATOM     11  C1D GTG d   1      20.494   6.332 -17.109  0.00  0.00     0.139 C 
ATOM     12  C2D GTG d   1      19.233   7.071 -16.610  0.00  0.00     0.105 C 
ATOM     13  H16 GTG d   1      20.311   5.270 -16.889  0.00  0.00     0.122 H 
ATOM     14  C3D GTG d   1      18.228   6.500 -17.654  0.00  0.00     0.091 C 
ATOM     15  H14 GTG d   1      19.346   8.161 -16.704  0.00  0.00     0.093 H 
ATOM     16  H12 GTG d   1      17.798   7.318 -18.250  0.00  0.00     0.091 H 
ATOM     17  H11 GTG d   1      19.456   4.768 -17.922  0.00  0.00     0.090 H 
BRANCH  11  18
ATOM     18  N9A GTG d   1      21.757   6.564 -16.418  0.00  0.00    -0.296 N 
ATOM     19  C8A GTG d   1      21.996   6.153 -15.143  0.00  0.00     0.049 A 
ATOM     20  N7A GTG d   1      23.192   6.449 -14.777  0.00  0.00    -0.340 N 
ATOM     21  H1  GTG d   1      21.269   5.640 -14.515  0.00  0.00     0.141 H 
ATOM     22  C5A GTG d   1      23.829   7.075 -15.797  0.00  0.00     0.149 A 
ATOM     23  C6A GTG d   1      25.146   7.626 -15.990  0.00  0.00     0.290 A 
ATOM     24  C4A GTG d   1      22.898   7.168 -16.872  0.00  0.00     0.159 A 
ATOM     25  O6A GTG d   1      25.988   7.570 -15.104  0.00  0.00    -0.265 OA
ATOM     26  N1A GTG d   1      25.443   8.206 -17.204  0.00  0.00    -0.154 N 
ATOM     27  C2A GTG d   1      24.494   8.266 -18.213  0.00  0.00     0.680 A 
ATOM     28  H5  GTG d   1      26.354   8.588 -17.359  0.00  0.00     0.187 HD
ATOM     29  N3A GTG d   1      23.268   7.757 -18.045  0.00  0.00    -0.174 N 
ATOM     30  H8  GTG d   1      22.589   7.811 -18.818  0.00  0.00     0.186 HD
BRANCH  20  31
ATOM     31  C7X GTG d   1      23.754   6.129 -13.480  0.00  0.00    -0.013 C 
ATOM     32  H2  GTG d   1      22.995   5.622 -12.866  0.00  0.00     0.057 H 
ATOM     33  H3  GTG d   1      24.071   7.056 -12.979  0.00  0.00     0.057 H 
ATOM     34  H4  GTG d   1      24.622   5.467 -13.610  0.00  0.00     0.057 H 
ENDBRANCH  20  31
BRANCH  27  35
ATOM     35  N2A GTG d   1      24.817   8.852 -19.411  0.00  0.00    -0.234 N 
ATOM     36  H6  GTG d   1      24.118   8.901 -20.166  0.00  0.00     0.174 HD
ATOM     37  H7  GTG d   1      25.759   9.243 -19.556  0.00  0.00     0.174 HD
ENDBRANCH  27  35
ENDBRANCH  11  18
BRANCH  12  38
ATOM     38  O2D GTG d   1      18.845   6.768 -15.262  0.00  0.00    -0.388 OA
ATOM     39  H15 GTG d   1      18.805   5.825 -15.149  0.00  0.00     0.210 HD
ENDBRANCH  12  38
BRANCH  14  40
ATOM     40  O3D GTG d   1      17.141   5.765 -17.091  0.00  0.00    -0.390 OA
ATOM     41  H13 GTG d   1      17.482   5.072 -16.538  0.00  0.00     0.210 HD
ENDBRANCH  14  40
ENDBRANCH   6   9
ENDBRANCH   5   6
ENDBRANCH   2   5
ENDBRANCH   1   2
BRANCH   1  42
ATOM     42  PB  GTG d   1      20.784   3.672 -23.660  0.00  0.00     0.427 P 
ATOM     43  O1B GTG d   1      22.165   3.944 -22.828  0.00  0.00    -0.624 OA
ATOM     44  O2B GTG d   1      21.181   2.979 -24.878  0.00  0.00    -0.624 OA
BRANCH  42  45
ATOM     45  O3B GTG d   1      20.038   5.152 -24.219  0.00  0.00    -0.180 OA
BRANCH  45  46
ATOM     46  PG  GTG d   1      19.999   5.306 -25.762  0.00  0.00     0.417 P 
ATOM     47  O1G GTG d   1      21.484   4.876 -26.493  0.00  0.00    -0.624 OA
ATOM     48  O2G GTG d   1      18.880   4.501 -26.394  0.00  0.00    -0.624 OA
BRANCH  46  49
ATOM     49  O5E GTG d   1      20.073   6.905 -26.134  0.00  0.00    -0.287 OA
BRANCH  49  50
ATOM     50  C5E GTG d   1      19.645   7.164 -27.493  0.00  0.00     0.058 C 
ATOM     51  H17 GTG d   1      18.589   6.887 -27.631  0.00  0.00     0.079 H 
ATOM     52  H18 GTG d   1      20.267   6.611 -28.212  0.00  0.00     0.079 H 
BRANCH  50  53
ATOM     53  C4E GTG d   1      19.835   8.641 -27.648  0.00  0.00     0.089 C 
ATOM     54  O4E GTG d   1      21.163   8.708 -28.403  0.00  0.00    -0.353 OA
ATOM     55  C1E GTG d   1      21.246   9.736 -29.527  0.00  0.00     0.139 C 
ATOM     56  C2E GTG d   1      19.761   9.773 -29.904  0.00  0.00     0.105 C 
ATOM     57  H24 GTG d   1      21.701  10.671 -29.169  0.00  0.00     0.122 H 
ATOM     58  C3E GTG d   1      18.991   9.292 -28.708  0.00  0.00     0.091 C 
ATOM     59  H22 GTG d   1      19.579   9.107 -30.760  0.00  0.00     0.093 H 
ATOM     60  H20 GTG d   1      18.171   8.634 -29.033  0.00  0.00     0.091 H 
ATOM     61  H19 GTG d   1      19.799   9.168 -26.683  0.00  0.00     0.090 H 
BRANCH  55  62
ATOM     62  N9B GTG d   1      21.688   9.403 -30.911  0.00  0.00    -0.295 N 
ATOM     63  C8B GTG d   1      22.050   8.205 -31.452  0.00  0.00     0.071 A 
ATOM     64  N7B GTG d   1      22.281   8.364 -32.746  0.00  0.00    -0.234 NA
ATOM     65  H25 GTG d   1      22.136   7.266 -30.906  0.00  0.00     0.144 H 
ATOM     66  C5B GTG d   1      22.078   9.686 -33.094  0.00  0.00     0.171 A 
ATOM     67  C6B GTG d   1      22.136  10.466 -34.328  0.00  0.00     0.292 A 
ATOM     68  C4B GTG d   1      21.727  10.362 -31.914  0.00  0.00     0.161 A 
ATOM     69  O6B GTG d   1      22.408   9.943 -35.407  0.00  0.00    -0.265 OA
ATOM     70  N1B GTG d   1      21.871  11.818 -34.272  0.00  0.00    -0.154 N 
ATOM     71  C2B GTG d   1      21.553  12.415 -33.069  0.00  0.00     0.680 A 
ATOM     72  H26 GTG d   1      21.909  12.368 -35.106  0.00  0.00     0.187 HD
ATOM     73  N3B GTG d   1      21.472  11.703 -31.938  0.00  0.00    -0.174 N 
ATOM     74  H29 GTG d   1      21.210  12.180 -31.063  0.00  0.00     0.186 HD
BRANCH  71  75
ATOM     75  N2B GTG d   1      21.312  13.770 -33.030  0.00  0.00    -0.234 N 
ATOM     76  H27 GTG d   1      21.074  14.225 -32.137  0.00  0.00     0.174 HD
ATOM     77  H28 GTG d   1      21.370  14.328 -33.894  0.00  0.00     0.174 HD
ENDBRANCH  71  75
ENDBRANCH  55  62
BRANCH  56  78
ATOM     78  O2E GTG d   1      19.348  11.107 -30.249  0.00  0.00    -0.388 OA
ATOM     79  H23 GTG d   1      19.513  11.688 -29.516  0.00  0.00     0.210 HD
ENDBRANCH  56  78
BRANCH  58  80
ATOM     80  O3E GTG d   1      18.529  10.433 -27.969  0.00  0.00    -0.390 OA
ATOM     81  H21 GTG d   1      17.965  10.960 -28.523  0.00  0.00     0.210 HD
ENDBRANCH  58  80
ENDBRANCH  50  53
ENDBRANCH  49  50
ENDBRANCH  46  49
ENDBRANCH  45  46
ENDBRANCH  42  45
ENDBRANCH   1  42
TORSDOF 19
