REMARK  11 active torsions:
REMARK  status: ('A' for Active; 'I' for Inactive)
REMARK    1  A    between atoms: O3B_8  and  PG_1 
REMARK    2  A    between atoms: PB_5  and  O3B_8 
REMARK    3  A    between atoms: O3A_12  and  PB_5 
REMARK    4  A    between atoms: PA_9  and  O3A_12 
REMARK    5  A    between atoms: PA_9  and  O5'_13 
REMARK    6  A    between atoms: O5'_13  and  C5'_14 
REMARK    7  A    between atoms: C5'_14  and  C4'_15 
REMARK    8  A    between atoms: C3'_17  and  O3'_18 
REMARK    9  A    between atoms: C2'_19  and  O2'_20 
REMARK   10  A    between atoms: C1'_21  and  N9_22 
REMARK   11  A    between atoms: C6_26  and  N6_27 
ROOT
ATOM      1  C4' ATP d   1      12.238 -32.563 -23.068  0.00  0.00     0.089 C 
ATOM      2  O4' ATP d   1      13.379 -32.579 -23.959  0.00  0.00    -0.353 OA
ATOM      3  C3' ATP d   1      12.679 -33.096 -21.743  0.00  0.00     0.091 C 
ATOM      4  C2' ATP d   1      14.133 -32.936 -21.760  0.00  0.00     0.105 C 
ATOM      5  C1' ATP d   1      14.469 -33.067 -23.259  0.00  0.00     0.139 C 
ATOM      6  H   ATP d   1      11.424 -33.185 -23.440  0.00  0.00     0.090 H 
ATOM      7  H   ATP d   1      12.219 -32.600 -20.889  0.00  0.00     0.091 H 
ATOM      8  H   ATP d   1      14.467 -31.987 -21.342  0.00  0.00     0.093 H 
ATOM      9  H   ATP d   1      14.698 -34.100 -23.519  0.00  0.00     0.122 H 
ENDROOT
BRANCH   1  10
ATOM     10  C5' ATP d   1      11.733 -31.148 -22.962  0.00  0.00     0.058 C 
ATOM     11  H   ATP d   1      11.531 -30.757 -23.959  0.00  0.00     0.079 H 
ATOM     12  H   ATP d   1      10.814 -31.131 -22.376  0.00  0.00     0.079 H 
BRANCH  10  13
ATOM     13  O5' ATP d   1      12.743 -30.325 -22.310  0.00  0.00    -0.287 OA
BRANCH  13  14
ATOM     14  PA  ATP d   1      12.359 -29.282 -21.178  0.00  0.00     0.417 P 
ATOM     15  O1A ATP d   1      11.478 -29.888 -20.162  0.00  0.00    -0.624 OA
ATOM     16  O2A ATP d   1      13.639 -28.667 -20.753  0.00  0.00    -0.624 OA
BRANCH  14  17
ATOM     17  O3A ATP d   1      11.558 -28.207 -22.005  0.00  0.00    -0.180 OA
BRANCH  17  18
ATOM     18  PB  ATP d   1      10.646 -26.961 -21.563  0.00  0.00     0.428 P 
ATOM     19  O1B ATP d   1      10.798 -25.932 -22.585  0.00  0.00    -0.624 OA
ATOM     20  O2B ATP d   1      11.026 -26.602 -20.152  0.00  0.00    -0.624 OA
BRANCH  18  21
ATOM     21  O3B ATP d   1       9.161 -27.554 -21.602  0.00  0.00    -0.173 OA
BRANCH  21  22
ATOM     22  PG  ATP d   1       7.839 -26.930 -20.944  0.00  0.00     0.431 P 
ATOM     23  O1G ATP d   1       8.188 -26.191 -19.683  0.00  0.00    -0.616 OA
ATOM     24  O2G ATP d   1       7.008 -28.153 -20.720  0.00  0.00    -0.616 OA
ATOM     25  O3G ATP d   1       7.344 -26.006 -21.991  0.00  0.00    -0.616 OA
ENDBRANCH  21  22
ENDBRANCH  18  21
ENDBRANCH  17  18
ENDBRANCH  14  17
ENDBRANCH  13  14
ENDBRANCH  10  13
ENDBRANCH   1  10
BRANCH   3  26
ATOM     26  O3' ATP d   1      12.341 -34.541 -21.708  0.00  0.00    -0.390 OA
ATOM     27  H   ATP d   1      12.614 -34.912 -20.866  0.00  0.00     0.210 HD
ENDBRANCH   3  26
BRANCH   5  28
ATOM     28  N9  ATP d   1      15.626 -32.178 -23.567  0.00  0.00    -0.294 N 
ATOM     29  C8  ATP d   1      15.613 -30.833 -23.625  0.00  0.00     0.071 A 
ATOM     30  N7  ATP d   1      16.807 -30.406 -23.909  0.00  0.00    -0.236 NA
ATOM     31  H   ATP d   1      14.739 -30.202 -23.460  0.00  0.00     0.144 H 
ATOM     32  C5  ATP d   1      17.622 -31.451 -24.156  0.00  0.00     0.149 A 
ATOM     33  C6  ATP d   1      18.999 -31.566 -24.544  0.00  0.00     0.155 A 
ATOM     34  C4  ATP d   1      16.810 -32.571 -23.902  0.00  0.00     0.167 A 
ATOM     35  N1  ATP d   1      19.424 -32.876 -24.610  0.00  0.00    -0.222 NA
ATOM     36  C2  ATP d   1      18.588 -33.876 -24.379  0.00  0.00     0.091 A 
ATOM     37  N3  ATP d   1      17.337 -33.807 -24.033  0.00  0.00    -0.222 NA
ATOM     38  H   ATP d   1      18.999 -34.879 -24.493  0.00  0.00     0.146 H 
BRANCH  33  39
ATOM     39  N6  ATP d   1      19.813 -30.552 -24.750  0.00  0.00    -0.382 N 
ATOM     40  H   ATP d   1      19.476 -29.596 -24.635  0.00  0.00     0.157 HD
ATOM     41  H   ATP d   1      20.780 -30.722 -25.024  0.00  0.00     0.157 HD
ENDBRANCH  33  39
ENDBRANCH   5  28
BRANCH   4  42
ATOM     42  O2' ATP d   1      14.822 -33.881 -20.913  0.00  0.00    -0.388 OA
ATOM     43  H   ATP d   1      15.768 -33.726 -20.966  0.00  0.00     0.210 HD
ENDBRANCH   4  42
TORSDOF 11
