REMARK WARNING: 32 MAX_TORS EXCEEDED!!!
REMARK  67 active torsions:
REMARK  status: ('A' for Active; 'I' for Inactive)
REMARK    1  A    between atoms: CA_2  and  C_3 
REMARK       I    between atoms: C_3  and  N_8 
REMARK    2  A    between atoms: N_8  and  CA_9 
REMARK    3  A    between atoms: CA_9  and  C_10 
REMARK    4  A    between atoms: CA_9  and  CB_12 
REMARK       I    between atoms: C_10  and  N_15 
REMARK    5  A    between atoms: CB_12  and  CG1_13 
REMARK    6  A    between atoms: CB_12  and  CG2_14 
REMARK    7  A    between atoms: N_15  and  CA_16 
REMARK    8  A    between atoms: CA_16  and  C_17 
REMARK    9  A    between atoms: CA_16  and  CB_19 
REMARK       I    between atoms: C_17  and  N_21 
REMARK   10  A    between atoms: CB_19  and  OG_20 
REMARK   11  A    between atoms: N_21  and  CA_22 
REMARK   12  A    between atoms: CA_22  and  C_23 
REMARK   13  A    between atoms: CA_22  and  CB_25 
REMARK       I    between atoms: C_23  and  N_30 
REMARK   14  A    between atoms: CB_25  and  CG_26 
REMARK   15  A    between atoms: CG_26  and  CD_27 
REMARK   16  A    between atoms: CD_27  and  CE_28 
REMARK   17  A    between atoms: CE_28  and  NZ_29 
REMARK   18  A    between atoms: N_30  and  CA_31 
REMARK   19  A    between atoms: CA_31  and  C_32 
REMARK   20  A    between atoms: CA_31  and  CB_34 
REMARK       I    between atoms: C_32  and  N_38 
REMARK   21  A    between atoms: CB_34  and  CG_35 
REMARK   22  A    between atoms: CG_35  and  SD_36 
REMARK   23  A    between atoms: SD_36  and  CE_37 
REMARK   24  A    between atoms: N_38  and  CA_39 
REMARK   25  A    between atoms: CA_39  and  C_40 
REMARK   26  A    between atoms: CA_39  and  CB_42 
REMARK       I    between atoms: C_40  and  N_49 
REMARK   27  A    between atoms: CB_42  and  CG_43 
REMARK   28  A    between atoms: CG_43  and  CD_44 
REMARK   29  A    between atoms: CD_44  and  NE_45 
REMARK       I    between atoms: NE_45  and  CZ_46 
REMARK       I    between atoms: CZ_46  and  NH1_47 
REMARK   30  A    between atoms: N_49  and  CA_50 
REMARK   31  A    between atoms: CA_50  and  C_51 
REMARK   32  A    between atoms: CA_50  and  CB_53 
REMARK       I    between atoms: C_51  and  N_57 
REMARK   33  A    between atoms: CB_53  and  CG_54 
REMARK   34  A    between atoms: CG_54  and  SD_55 
REMARK   35  A    between atoms: SD_55  and  CE_56 
REMARK   36  A    between atoms: N_57  and  CA_58 
REMARK   37  A    between atoms: CA_58  and  C_59 
REMARK   38  A    between atoms: CA_58  and  CB_61 
REMARK       I    between atoms: C_59  and  N_62 
REMARK   39  A    between atoms: N_62  and  CA_63 
REMARK   40  A    between atoms: CA_63  and  C_64 
REMARK   41  A    between atoms: CA_63  and  CB_66 
REMARK       I    between atoms: C_64  and  N_69 
REMARK   42  A    between atoms: CB_66  and  OG1_67 
REMARK   43  A    between atoms: CB_66  and  CG2_68 
REMARK   44  A    between atoms: CA_70  and  C_71 
REMARK       I    between atoms: C_71  and  N_76 
REMARK   45  A    between atoms: N_76  and  CA_77 
REMARK   46  A    between atoms: CA_77  and  C_78 
REMARK   47  A    between atoms: CA_77  and  CB_80 
REMARK       I    between atoms: C_78  and  N_84 
REMARK   48  A    between atoms: CB_80  and  CG_81 
REMARK   49  A    between atoms: CG_81  and  CD1_82 
REMARK   50  A    between atoms: CG_81  and  CD2_83 
REMARK   51  A    between atoms: N_84  and  CA_85 
REMARK   52  A    between atoms: CA_85  and  C_86 
REMARK   53  A    between atoms: CA_85  and  CB_88 
REMARK       I    between atoms: C_86  and  N_92 
REMARK   54  A    between atoms: CB_88  and  CG_89 
REMARK   55  A    between atoms: CG_89  and  CD1_90 
REMARK   56  A    between atoms: CG_89  and  CD2_91 
REMARK   57  A    between atoms: N_92  and  CA_93 
REMARK   58  A    between atoms: CA_93  and  C_94 
REMARK   59  A    between atoms: CA_93  and  CB_96 
REMARK       I    between atoms: C_94  and  N_100 
REMARK   60  A    between atoms: CB_96  and  CG_97 
REMARK   61  A    between atoms: CG_97  and  SD_98 
REMARK   62  A    between atoms: SD_98  and  CE_99 
REMARK   63  A    between atoms: N_100  and  CA_101 
REMARK   64  A    between atoms: CA_101  and  C_102 
REMARK   65  A    between atoms: CA_101  and  CB_104 
REMARK   66  A    between atoms: CB_104  and  CG_105 
REMARK   67  A    between atoms: CG_105  and  CD_106 
REMARK       I    between atoms: CD_106  and  NE2_108 
ROOT
ATOM      1  CA  MET d   1      32.165   5.342   7.104  0.00  0.00     0.090 C 
ATOM      2  H   MET d   1      31.850   4.733   6.257  0.00  0.00     0.087 H 
ENDROOT
BRANCH   1   3
ATOM      3  N   MET d   1      32.954   4.504   7.994  0.00  0.00    -0.346 N 
ATOM      4  C   ARG d   1      33.526   3.385   7.571  0.00  0.00     0.241 C 
ATOM      5  O   ARG d   1      33.405   2.967   6.421  0.00  0.00    -0.271 OA
ATOM      6  H   MET d   1      33.070   4.784   8.968  0.00  0.00     0.163 HD
BRANCH   4   7
ATOM      7  CA  ARG d   1      34.362   2.628   8.596  0.00  0.00     0.089 C 
ATOM      8  H   ARG d   1      34.068   2.952   9.595  0.00  0.00     0.087 H 
BRANCH   7   9
ATOM      9  N   ARG d   1      34.123   1.197   8.489  0.00  0.00    -0.346 N 
ATOM     10  C   MET d   1      33.273   0.580   9.299  0.00  0.00     0.241 C 
ATOM     11  O   MET d   1      32.706   1.147  10.238  0.00  0.00    -0.271 OA
ATOM     12  H   ARG d   1      34.618   0.658   7.778  0.00  0.00     0.163 HD
BRANCH  10  13
ATOM     13  CA  MET d   1      33.009  -0.888   9.002  0.00  0.00     0.090 C 
ATOM     14  H   MET d   1      33.766  -1.270   8.317  0.00  0.00     0.087 H 
BRANCH  13  15
ATOM     15  N   MET d   1      33.081  -1.674  10.229  0.00  0.00    -0.346 N 
ATOM     16  C   LYS d   1      34.181  -1.729  10.977  0.00  0.00     0.241 C 
ATOM     17  O   LYS d   1      35.247  -1.207  10.650  0.00  0.00    -0.271 OA
ATOM     18  H   MET d   1      32.259  -2.200  10.524  0.00  0.00     0.163 HD
BRANCH  16  19
ATOM     19  CA  LYS d   1      34.045  -2.487  12.296  0.00  0.00     0.089 C 
ATOM     20  H   LYS d   1      33.088  -3.009  12.273  0.00  0.00     0.087 H 
BRANCH  19  21
ATOM     21  N   LYS d   1      35.049  -3.536  12.466  0.00  0.00    -0.346 N 
ATOM     22  C   SER d   1      34.686  -4.816  12.452  0.00  0.00     0.243 C 
ATOM     23  O   SER d   1      33.505  -5.166  12.372  0.00  0.00    -0.271 OA
ATOM     24  H   LYS d   1      36.029  -3.286  12.596  0.00  0.00     0.163 HD
BRANCH  22  25
ATOM     25  CA  SER d   1      35.807  -5.856  12.536  0.00  0.00     0.109 C 
ATOM     26  H   SER d   1      35.927  -6.299  11.547  0.00  0.00     0.090 H 
BRANCH  25  27
ATOM     27  N   SER d   1      37.080  -5.238  12.888  0.00  0.00    -0.344 N 
ATOM     28  C   VAL d   1      38.058  -5.164  11.992  0.00  0.00     0.241 C 
ATOM     29  O   VAL d   1      37.955  -5.658  10.869  0.00  0.00    -0.271 OA
ATOM     30  H   SER d   1      37.220  -4.861  13.825  0.00  0.00     0.163 HD
BRANCH  28  31
ATOM     31  CA  VAL d   1      39.351  -4.440  12.403  0.00  0.00     0.092 C 
ATOM     32  H   VAL d   1      39.913  -4.317  11.477  0.00  0.00     0.088 H 
BRANCH  31  33
ATOM     33  N   VAL d   1      39.188  -3.051  12.865  0.00  0.00    -0.346 N 
ATOM     34  C   PRO d   1      38.460  -2.700  13.922  0.00  0.00     0.249 C 
ATOM     35  O   PRO d   1      37.839  -3.500  14.618  0.00  0.00    -0.271 OA
ATOM     36  H   VAL d   1      39.662  -2.314  12.343  0.00  0.00     0.163 HD
BRANCH  34  37
ATOM     37  CA  PRO d   1      38.430  -1.210  14.253  0.00  0.00     0.178 C 
ATOM     38  N   PRO d   1      39.121  -0.434  13.220  0.00  0.00    -0.062 N 
ATOM     39  CD  PRO d   1      38.237   0.561  12.589  0.00  0.00     0.083 C 
ATOM     40  H   PRO d   1      39.440  -1.079  12.498  0.00  0.00     0.278 HD
ATOM     41  H   PRO d   1      39.895   0.063  13.660  0.00  0.00     0.278 HD
ATOM     42  CG  PRO d   1      37.097   0.652  13.551  0.00  0.00    -0.040 C 
ATOM     43  H   PRO d   1      37.923   0.272  11.586  0.00  0.00     0.075 H 
ATOM     44  H   PRO d   1      38.729   1.520  12.423  0.00  0.00     0.075 H 
ATOM     45  CB  PRO d   1      36.997  -0.681  14.183  0.00  0.00    -0.028 C 
ATOM     46  H   PRO d   1      37.266   1.432  14.294  0.00  0.00     0.035 H 
ATOM     47  H   PRO d   1      36.170   0.921  13.044  0.00  0.00     0.035 H 
ATOM     48  H   PRO d   1      36.545  -0.620  15.173  0.00  0.00     0.036 H 
ATOM     49  H   PRO d   1      36.353  -1.347  13.609  0.00  0.00     0.036 H 
ATOM     50  H   PRO d   1      38.884  -1.108  15.239  0.00  0.00     0.099 H 
ENDBRANCH  34  37
ENDBRANCH  31  33
BRANCH  31  51
ATOM     51  CB  VAL d   1      40.200  -5.313  13.371  0.00  0.00    -0.033 C 
ATOM     52  H   VAL d   1      41.051  -4.716  13.700  0.00  0.00     0.042 H 
BRANCH  51  53
ATOM     53  CG1 VAL d   1      39.408  -5.717  14.609  0.00  0.00    -0.071 C 
ATOM     54  H   VAL d   1      39.090  -4.822  15.143  0.00  0.00     0.028 H 
ATOM     55  H   VAL d   1      38.532  -6.292  14.307  0.00  0.00     0.028 H 
ATOM     56  H   VAL d   1      40.037  -6.325  15.259  0.00  0.00     0.028 H 
ENDBRANCH  51  53
BRANCH  51  57
ATOM     57  CG2 VAL d   1      40.688  -6.552  12.647  0.00  0.00    -0.071 C 
ATOM     58  H   VAL d   1      39.831  -7.128  12.297  0.00  0.00     0.028 H 
ATOM     59  H   VAL d   1      41.300  -6.256  11.795  0.00  0.00     0.028 H 
ATOM     60  H   VAL d   1      41.282  -7.160  13.329  0.00  0.00     0.028 H 
ENDBRANCH  51  57
ENDBRANCH  31  51
ENDBRANCH  28  31
ENDBRANCH  25  27
BRANCH  25  61
ATOM     61  CB  SER d   1      35.437  -6.988  13.509  0.00  0.00     0.044 C 
ATOM     62  H   SER d   1      36.332  -7.578  13.706  0.00  0.00     0.077 H 
ATOM     63  H   SER d   1      34.650  -7.589  13.053  0.00  0.00     0.077 H 
BRANCH  61  64
ATOM     64  OG  SER d   1      34.955  -6.483  14.742  0.00  0.00    -0.398 OA
ATOM     65  H   SER d   1      34.171  -5.951  14.584  0.00  0.00     0.209 HD
ENDBRANCH  61  64
ENDBRANCH  25  61
ENDBRANCH  22  25
ENDBRANCH  19  21
BRANCH  19  66
ATOM     66  CB  LYS d   1      34.040  -1.502  13.470  0.00  0.00    -0.038 C 
ATOM     67  H   LYS d   1      35.014  -1.014  13.499  0.00  0.00     0.036 H 
ATOM     68  H   LYS d   1      33.821  -2.066  14.377  0.00  0.00     0.036 H 
BRANCH  66  69
ATOM     69  CG  LYS d   1      32.975  -0.412  13.329  0.00  0.00    -0.061 C 
ATOM     70  H   LYS d   1      32.001  -0.900  13.316  0.00  0.00     0.033 H 
ATOM     71  H   LYS d   1      33.187   0.142  12.415  0.00  0.00     0.033 H 
BRANCH  69  72
ATOM     72  CD  LYS d   1      32.980   0.583  14.487  0.00  0.00    -0.043 C 
ATOM     73  H   LYS d   1      33.036   0.020  15.419  0.00  0.00     0.035 H 
ATOM     74  H   LYS d   1      32.072   1.182  14.424  0.00  0.00     0.035 H 
BRANCH  72  75
ATOM     75  CE  LYS d   1      34.177   1.526  14.428  0.00  0.00     0.080 C 
ATOM     76  H   LYS d   1      35.077   0.927  14.566  0.00  0.00     0.075 H 
ATOM     77  H   LYS d   1      34.041   2.281  15.202  0.00  0.00     0.075 H 
BRANCH  75  78
ATOM     78  NZ  LYS d   1      34.303   2.236  13.120  0.00  0.00    -0.079 N 
ATOM     79  H   LYS d   1      35.118   2.848  13.144  0.00  0.00     0.274 HD
ATOM     80  H   LYS d   1      34.412   1.551  12.372  0.00  0.00     0.274 HD
ATOM     81  H   LYS d   1      33.464   2.792  12.954  0.00  0.00     0.274 HD
ENDBRANCH  75  78
ENDBRANCH  72  75
ENDBRANCH  69  72
ENDBRANCH  66  69
ENDBRANCH  19  66
ENDBRANCH  16  19
ENDBRANCH  13  15
BRANCH  13  82
ATOM     82  CB  MET d   1      31.624  -1.014   8.359  0.00  0.00    -0.030 C 
ATOM     83  H   MET d   1      31.615  -0.346   7.497  0.00  0.00     0.037 H 
ATOM     84  H   MET d   1      30.895  -0.776   9.133  0.00  0.00     0.037 H 
BRANCH  82  85
ATOM     85  CG  MET d   1      31.281  -2.395   7.845  0.00  0.00    -0.021 C 
ATOM     86  H   MET d   1      30.220  -2.404   7.596  0.00  0.00     0.049 H 
ATOM     87  H   MET d   1      31.538  -3.114   8.623  0.00  0.00     0.049 H 
BRANCH  85  88
ATOM     88  SD  MET d   1      32.200  -2.835   6.361  0.00  0.00    -0.173 SA
BRANCH  88  89
ATOM     89  CE  MET d   1      31.676  -1.554   5.240  0.00  0.00    -0.035 C 
ATOM     90  H   MET d   1      30.595  -1.605   5.112  0.00  0.00     0.041 H 
ATOM     91  H   MET d   1      31.950  -0.581   5.648  0.00  0.00     0.041 H 
ATOM     92  H   MET d   1      32.164  -1.695   4.276  0.00  0.00     0.041 H 
ENDBRANCH  88  89
ENDBRANCH  85  88
ENDBRANCH  82  85
ENDBRANCH  13  82
ENDBRANCH  10  13
ENDBRANCH   7   9
BRANCH   7  93
ATOM     93  CB  ARG d   1      35.843   2.938   8.398  0.00  0.00    -0.036 C 
ATOM     94  H   ARG d   1      35.946   4.022   8.344  0.00  0.00     0.036 H 
ATOM     95  H   ARG d   1      36.167   2.425   7.493  0.00  0.00     0.036 H 
BRANCH  93  96
ATOM     96  CG  ARG d   1      36.716   2.455   9.530  0.00  0.00    -0.048 C 
ATOM     97  H   ARG d   1      36.467   1.415   9.740  0.00  0.00     0.035 H 
ATOM     98  H   ARG d   1      36.539   3.089  10.399  0.00  0.00     0.035 H 
BRANCH  96  99
ATOM     99  CD  ARG d   1      38.183   2.535   9.167  0.00  0.00     0.009 C 
ATOM    100  H   ARG d   1      38.437   3.578   8.979  0.00  0.00     0.064 H 
ATOM    101  H   ARG d   1      38.356   1.919   8.284  0.00  0.00     0.064 H 
BRANCH  99 102
ATOM    102  NE  ARG d   1      39.024   2.041  10.248  0.00  0.00    -0.227 N 
ATOM    103  CZ  ARG d   1      40.335   1.859  10.151  0.00  0.00     0.665 C 
ATOM    104  NH1 ARG d   1      40.964   2.126   9.014  0.00  0.00    -0.235 N 
ATOM    105  NH2 ARG d   1      41.015   1.406  11.193  0.00  0.00    -0.235 N 
ATOM    106  H   ARG d   1      40.440   2.473   8.210  0.00  0.00     0.174 HD
ATOM    107  H   ARG d   1      41.972   1.985   8.943  0.00  0.00     0.174 HD
ATOM    108  H   ARG d   1      40.531   1.198  12.066  0.00  0.00     0.174 HD
ATOM    109  H   ARG d   1      42.023   1.265  11.122  0.00  0.00     0.174 HD
ATOM    110  H   ARG d   1      38.577   1.821  11.138  0.00  0.00     0.177 HD
ENDBRANCH  99 102
ENDBRANCH  96  99
ENDBRANCH  93  96
ENDBRANCH   7  93
ENDBRANCH   4   7
ENDBRANCH   1   3
BRANCH   1 111
ATOM    111  C   MET d   1      32.989   6.511   6.587  0.00  0.00     0.241 C 
ATOM    112  O   MET d   1      33.647   7.205   7.358  0.00  0.00    -0.271 OA
ATOM    113  N   ALA d   1      32.956   6.728   5.278  0.00  0.00    -0.346 N 
ATOM    114  H   ALA d   1      32.506   6.047   4.666  0.00  0.00     0.163 HD
BRANCH 113 115
ATOM    115  CA  ALA d   1      33.552   7.921   4.705  0.00  0.00     0.086 C 
ATOM    116  H   ALA d   1      34.540   8.088   5.135  0.00  0.00     0.086 H 
BRANCH 115 117
ATOM    117  C   ALA d   1      32.653   9.117   5.024  0.00  0.00     0.240 C 
ATOM    118  O   ALA d   1      31.438   8.973   5.149  0.00  0.00    -0.271 OA
ATOM    119  N   THR d   1      33.257  10.292   5.170  0.00  0.00    -0.344 N 
ATOM    120  H   THR d   1      34.262  10.356   5.007  0.00  0.00     0.163 HD
BRANCH 119 121
ATOM    121  CA  THR d   1      32.525  11.492   5.556  0.00  0.00     0.114 C 
ATOM    122  H   THR d   1      31.525  11.172   5.849  0.00  0.00     0.091 H 
BRANCH 121 123
ATOM    123  C   THR d   1      32.390  12.471   4.390  0.00  0.00     0.245 C 
ATOM    124  O   THR d   1      33.374  12.813   3.731  0.00  0.00    -0.271 OA
ATOM    125  N   PRO d   1      31.156  12.916   4.124  0.00  0.00    -0.337 N 
ATOM    126  CA  PRO d   1      30.896  13.857   3.033  0.00  0.00     0.091 C 
ATOM    127  CD  PRO d   1      29.922  12.510   4.819  0.00  0.00    -0.001 C 
ATOM    128  CB  PRO d   1      29.370  13.866   2.938  0.00  0.00    -0.036 C 
ATOM    129  H   PRO d   1      31.395  13.569   2.108  0.00  0.00     0.087 H 
ATOM    130  CG  PRO d   1      28.902  13.471   4.289  0.00  0.00    -0.048 C 
ATOM    131  H   PRO d   1      29.008  13.184   2.168  0.00  0.00     0.036 H 
ATOM    132  H   PRO d   1      28.988  14.845   2.647  0.00  0.00     0.036 H 
ATOM    133  H   PRO d   1      27.915  13.012   4.245  0.00  0.00     0.035 H 
ATOM    134  H   PRO d   1      28.803  14.339   4.941  0.00  0.00     0.035 H 
ATOM    135  H   PRO d   1      30.016  12.551   5.904  0.00  0.00     0.064 H 
ATOM    136  H   PRO d   1      29.657  11.469   4.634  0.00  0.00     0.064 H 
BRANCH 126 137
ATOM    137  C   PRO d   1      31.407  15.256   3.362  0.00  0.00     0.241 C 
ATOM    138  O   PRO d   1      31.266  15.714   4.497  0.00  0.00    -0.271 OA
ATOM    139  N   LEU d   1      31.996  15.921   2.373  0.00  0.00    -0.346 N 
ATOM    140  H   LEU d   1      32.144  15.455   1.478  0.00  0.00     0.163 HD
BRANCH 139 141
ATOM    141  CA  LEU d   1      32.435  17.300   2.538  0.00  0.00     0.089 C 
ATOM    142  H   LEU d   1      32.862  17.401   3.536  0.00  0.00     0.087 H 
BRANCH 141 143
ATOM    143  C   LEU d   1      31.256  18.262   2.412  0.00  0.00     0.241 C 
ATOM    144  O   LEU d   1      30.342  18.043   1.615  0.00  0.00    -0.271 OA
ATOM    145  N   LEU d   1      31.278  19.326   3.203  0.00  0.00    -0.346 N 
ATOM    146  H   LEU d   1      32.028  19.429   3.886  0.00  0.00     0.163 HD
BRANCH 145 147
ATOM    147  CA  LEU d   1      30.246  20.351   3.110  0.00  0.00     0.089 C 
ATOM    148  H   LEU d   1      29.308  19.862   2.849  0.00  0.00     0.087 H 
BRANCH 147 149
ATOM    149  C   LEU d   1      30.597  21.359   2.023  0.00  0.00     0.241 C 
ATOM    150  O   LEU d   1      31.774  21.675   1.799  0.00  0.00    -0.271 OA
ATOM    151  N   MET d   1      29.569  21.843   1.339  0.00  0.00    -0.346 N 
ATOM    152  H   MET d   1      28.630  21.504   1.548  0.00  0.00     0.163 HD
BRANCH 151 153
ATOM    153  CA  MET d   1      29.745  22.843   0.300  0.00  0.00     0.090 C 
ATOM    154  H   MET d   1      30.687  22.650  -0.214  0.00  0.00     0.087 H 
BRANCH 153 155
ATOM    155  C   MET d   1      29.804  24.240   0.906  0.00  0.00     0.241 C 
ATOM    156  O   MET d   1      29.300  24.467   2.007  0.00  0.00    -0.271 OA
ATOM    157  N   GLN d   1      30.418  25.171   0.181  0.00  0.00    -0.345 N 
ATOM    158  H   GLN d   1      30.822  24.911  -0.719  0.00  0.00     0.163 HD
BRANCH 157 159
ATOM    159  CA  GLN d   1      30.531  26.553   0.634  0.00  0.00     0.096 C 
ATOM    160  H   GLN d   1      30.948  26.525   1.641  0.00  0.00     0.089 H 
BRANCH 159 161
ATOM    161  C   GLN d   1      29.174  27.243   0.707  0.00  0.00     0.196 C 
ATOM    162  O   GLN d   1      28.342  27.112  -0.195  0.00  0.00    -0.646 OA
ATOM    163  O   GLN d   1      28.897  27.960   1.706  0.00  0.00    -0.646 OA
ENDBRANCH 159 161
BRANCH 159 164
ATOM    164  CB  GLN d   1      31.467  27.347  -0.282  0.00  0.00    -0.029 C 
ATOM    165  H   GLN d   1      31.019  27.355  -1.276  0.00  0.00     0.037 H 
ATOM    166  H   GLN d   1      32.444  26.866  -0.243  0.00  0.00     0.037 H 
BRANCH 164 167
ATOM    167  CG  GLN d   1      31.658  28.802   0.142  0.00  0.00     0.011 C 
ATOM    168  H   GLN d   1      32.136  28.802   1.121  0.00  0.00     0.047 H 
ATOM    169  H   GLN d   1      30.677  29.278   0.145  0.00  0.00     0.047 H 
BRANCH 167 170
ATOM    170  CD  GLN d   1      32.552  29.590  -0.810  0.00  0.00     0.215 C 
ATOM    171  OE1 GLN d   1      33.118  29.039  -1.759  0.00  0.00    -0.274 OA
ATOM    172  NE2 GLN d   1      32.683  30.889  -0.554  0.00  0.00    -0.370 N 
ATOM    173  H   GLN d   1      33.269  31.470  -1.153  0.00  0.00     0.159 HD
ATOM    174  H   GLN d   1      32.197  31.304   0.241  0.00  0.00     0.159 HD
ENDBRANCH 167 170
ENDBRANCH 164 167
ENDBRANCH 159 164
ENDBRANCH 157 159
ENDBRANCH 153 155
BRANCH 153 175
ATOM    175  CB  MET d   1      28.601  22.755  -0.705  0.00  0.00    -0.030 C 
ATOM    176  H   MET d   1      28.733  23.565  -1.422  0.00  0.00     0.037 H 
ATOM    177  H   MET d   1      27.668  22.817  -0.145  0.00  0.00     0.037 H 
BRANCH 175 178
ATOM    178  CG  MET d   1      28.578  21.456  -1.485  0.00  0.00    -0.021 C 
ATOM    179  H   MET d   1      28.512  20.635  -0.771  0.00  0.00     0.049 H 
ATOM    180  H   MET d   1      29.484  21.409  -2.089  0.00  0.00     0.049 H 
BRANCH 178 181
ATOM    181  SD  MET d   1      27.161  21.346  -2.594  0.00  0.00    -0.173 SA
BRANCH 181 182
ATOM    182  CE  MET d   1      27.471  19.762  -3.359  0.00  0.00    -0.035 C 
ATOM    183  H   MET d   1      28.431  19.790  -3.874  0.00  0.00     0.041 H 
ATOM    184  H   MET d   1      27.491  18.987  -2.592  0.00  0.00     0.041 H 
ATOM    185  H   MET d   1      26.679  19.545  -4.076  0.00  0.00     0.041 H 
ENDBRANCH 181 182
ENDBRANCH 178 181
ENDBRANCH 175 178
ENDBRANCH 153 175
ENDBRANCH 151 153
ENDBRANCH 147 149
BRANCH 147 186
ATOM    186  CB  LEU d   1      30.056  21.063   4.448  0.00  0.00    -0.035 C 
ATOM    187  H   LEU d   1      31.007  21.546   4.672  0.00  0.00     0.037 H 
ATOM    188  H   LEU d   1      29.723  20.301   5.152  0.00  0.00     0.037 H 
BRANCH 186 189
ATOM    189  CG  LEU d   1      28.997  22.170   4.486  0.00  0.00    -0.059 C 
ATOM    190  H   LEU d   1      29.244  22.898   3.713  0.00  0.00     0.038 H 
BRANCH 189 191
ATOM    191  CD1 LEU d   1      27.607  21.621   4.179  0.00  0.00    -0.073 C 
ATOM    192  H   LEU d   1      27.606  21.174   3.185  0.00  0.00     0.028 H 
ATOM    193  H   LEU d   1      27.345  20.865   4.919  0.00  0.00     0.028 H 
ATOM    194  H   LEU d   1      26.881  22.433   4.215  0.00  0.00     0.028 H 
ENDBRANCH 189 191
BRANCH 189 195
ATOM    195  CD2 LEU d   1      29.010  22.868   5.841  0.00  0.00    -0.073 C 
ATOM    196  H   LEU d   1      28.795  22.142   6.625  0.00  0.00     0.028 H 
ATOM    197  H   LEU d   1      29.992  23.308   6.012  0.00  0.00     0.028 H 
ATOM    198  H   LEU d   1      28.252  23.651   5.852  0.00  0.00     0.028 H 
ENDBRANCH 189 195
ENDBRANCH 186 189
ENDBRANCH 147 186
ENDBRANCH 145 147
ENDBRANCH 141 143
BRANCH 141 199
ATOM    199  CB  LEU d   1      33.508  17.650   1.504  0.00  0.00    -0.035 C 
ATOM    200  H   LEU d   1      33.816  18.674   1.714  0.00  0.00     0.037 H 
ATOM    201  H   LEU d   1      33.059  17.482   0.525  0.00  0.00     0.037 H 
BRANCH 199 202
ATOM    202  CG  LEU d   1      34.778  16.798   1.549  0.00  0.00    -0.059 C 
ATOM    203  H   LEU d   1      34.505  15.768   1.319  0.00  0.00     0.038 H 
BRANCH 202 204
ATOM    204  CD1 LEU d   1      35.776  17.271   0.513  0.00  0.00    -0.073 C 
ATOM    205  H   LEU d   1      35.333  17.192  -0.480  0.00  0.00     0.028 H 
ATOM    206  H   LEU d   1      36.040  18.309   0.713  0.00  0.00     0.028 H 
ATOM    207  H   LEU d   1      36.671  16.651   0.563  0.00  0.00     0.028 H 
ENDBRANCH 202 204
BRANCH 202 208
ATOM    208  CD2 LEU d   1      35.397  16.832   2.935  0.00  0.00    -0.073 C 
ATOM    209  H   LEU d   1      35.652  17.860   3.192  0.00  0.00     0.028 H 
ATOM    210  H   LEU d   1      34.683  16.441   3.660  0.00  0.00     0.028 H 
ATOM    211  H   LEU d   1      36.299  16.220   2.944  0.00  0.00     0.028 H 
ENDBRANCH 202 208
ENDBRANCH 199 202
ENDBRANCH 141 199
ENDBRANCH 139 141
ENDBRANCH 126 137
ENDBRANCH 121 123
BRANCH 121 212
ATOM    212  CB  THR d   1      33.192  12.193   6.761  0.00  0.00     0.060 C 
ATOM    213  H   THR d   1      34.234  12.393   6.512  0.00  0.00     0.086 H 
BRANCH 212 214
ATOM    214  OG1 THR d   1      33.114  11.341   7.914  0.00  0.00    -0.393 OA
ATOM    215  H   THR d   1      32.193  11.162   8.117  0.00  0.00     0.210 HD
ENDBRANCH 212 214
BRANCH 212 216
ATOM    216  CG2 THR d   1      32.495  13.510   7.069  0.00  0.00    -0.050 C 
ATOM    217  H   THR d   1      32.558  14.165   6.200  0.00  0.00     0.031 H 
ATOM    218  H   THR d   1      31.448  13.319   7.306  0.00  0.00     0.031 H 
ATOM    219  H   THR d   1      32.981  13.986   7.920  0.00  0.00     0.031 H 
ENDBRANCH 212 216
ENDBRANCH 121 212
ENDBRANCH 119 121
ENDBRANCH 115 117
BRANCH 115 220
ATOM    220  CB  ALA d   1      33.727   7.757   3.215  0.00  0.00    -0.049 C 
ATOM    221  H   ALA d   1      34.377   6.905   3.018  0.00  0.00     0.030 H 
ATOM    222  H   ALA d   1      32.755   7.588   2.753  0.00  0.00     0.030 H 
ATOM    223  H   ALA d   1      34.175   8.661   2.801  0.00  0.00     0.030 H 
ENDBRANCH 115 220
ENDBRANCH 113 115
ENDBRANCH   1 111
BRANCH   1 224
ATOM    224  CB  MET d   1      30.937   5.874   7.838  0.00  0.00    -0.030 C 
ATOM    225  H   MET d   1      30.367   6.464   7.120  0.00  0.00     0.037 H 
ATOM    226  H   MET d   1      31.299   6.435   8.699  0.00  0.00     0.037 H 
BRANCH 224 227
ATOM    227  CG  MET d   1      30.007   4.803   8.367  0.00  0.00    -0.021 C 
ATOM    228  H   MET d   1      30.572   4.115   8.997  0.00  0.00     0.049 H 
ATOM    229  H   MET d   1      29.567   4.263   7.529  0.00  0.00     0.049 H 
BRANCH 227 230
ATOM    230  SD  MET d   1      28.694   5.558   9.341  0.00  0.00    -0.173 SA
BRANCH 230 231
ATOM    231  CE  MET d   1      28.632   7.165   8.562  0.00  0.00    -0.035 C 
ATOM    232  H   MET d   1      29.601   7.654   8.663  0.00  0.00     0.041 H 
ATOM    233  H   MET d   1      28.392   7.046   7.505  0.00  0.00     0.041 H 
ATOM    234  H   MET d   1      27.865   7.772   9.044  0.00  0.00     0.041 H 
ENDBRANCH 230 231
ENDBRANCH 227 230
ENDBRANCH 224 227
ENDBRANCH   1 224
TORSDOF 67
