REMARK  9 active torsions:
REMARK  status: ('A' for Active; 'I' for Inactive)
REMARK    1  A    between atoms: O3A_8  and  PB_1 
REMARK    2  A    between atoms: PA_5  and  O3A_8 
REMARK    3  A    between atoms: PA_5  and  O5'_9 
REMARK    4  A    between atoms: O5'_9  and  C5'_10 
REMARK    5  A    between atoms: C5'_10  and  C4'_11 
REMARK    6  A    between atoms: C3'_13  and  O3'_14 
REMARK    7  A    between atoms: C2'_15  and  O2'_16 
REMARK    8  A    between atoms: C1'_17  and  N9_18 
REMARK    9  A    between atoms: C6_22  and  N6_23 
ROOT
ATOM      1  C4' ADP d   1      11.595 -32.166 -23.385  0.00  0.00     0.089 C 
ATOM      2  O4' ADP d   1      12.779 -32.212 -24.191  0.00  0.00    -0.353 OA
ATOM      3  C3' ADP d   1      11.922 -32.855 -22.113  0.00  0.00     0.091 C 
ATOM      4  C2' ADP d   1      13.405 -32.703 -21.995  0.00  0.00     0.105 C 
ATOM      5  C1' ADP d   1      13.815 -32.790 -23.466  0.00  0.00     0.139 C 
ATOM      6  H   ADP d   1      10.756 -32.667 -23.868  0.00  0.00     0.090 H 
ATOM      7  H   ADP d   1      11.407 -32.447 -21.243  0.00  0.00     0.091 H 
ATOM      8  H   ADP d   1      13.702 -31.785 -21.487  0.00  0.00     0.093 H 
ATOM      9  H   ADP d   1      14.007 -33.829 -23.736  0.00  0.00     0.122 H 
ENDROOT
BRANCH   5  10
ATOM     10  N9  ADP d   1      15.037 -32.006 -23.731  0.00  0.00    -0.294 N 
ATOM     11  C8  ADP d   1      15.100 -30.625 -23.753  0.00  0.00     0.071 A 
ATOM     12  N7  ADP d   1      16.330 -30.215 -24.028  0.00  0.00    -0.236 NA
ATOM     13  H   ADP d   1      14.253 -29.963 -23.569  0.00  0.00     0.144 H 
ATOM     14  C5  ADP d   1      17.091 -31.329 -24.241  0.00  0.00     0.149 A 
ATOM     15  C6  ADP d   1      18.453 -31.497 -24.608  0.00  0.00     0.155 A 
ATOM     16  C4  ADP d   1      16.237 -32.440 -24.066  0.00  0.00     0.167 A 
ATOM     17  N1  ADP d   1      18.838 -32.819 -24.731  0.00  0.00    -0.222 NA
ATOM     18  C2  ADP d   1      17.987 -33.809 -24.555  0.00  0.00     0.091 A 
ATOM     19  N3  ADP d   1      16.694 -33.710 -24.190  0.00  0.00    -0.222 NA
ATOM     20  H   ADP d   1      18.370 -34.816 -24.723  0.00  0.00     0.146 H 
BRANCH  15  21
ATOM     21  N6  ADP d   1      19.289 -30.518 -24.793  0.00  0.00    -0.382 N 
ATOM     22  H   ADP d   1      18.979 -29.553 -24.675  0.00  0.00     0.157 HD
ATOM     23  H   ADP d   1      20.255 -30.715 -25.056  0.00  0.00     0.157 HD
ENDBRANCH  15  21
ENDBRANCH   5  10
BRANCH   4  24
ATOM     24  O2' ADP d   1      14.063 -33.695 -21.156  0.00  0.00    -0.388 OA
ATOM     25  H   ADP d   1      15.007 -33.522 -21.138  0.00  0.00     0.210 HD
ENDBRANCH   4  24
BRANCH   1  26
ATOM     26  C5' ADP d   1      11.142 -30.719 -23.175  0.00  0.00     0.058 C 
ATOM     27  H   ADP d   1      10.963 -30.240 -24.137  0.00  0.00     0.079 H 
ATOM     28  H   ADP d   1      10.214 -30.697 -22.604  0.00  0.00     0.079 H 
BRANCH  26  29
ATOM     29  O5' ADP d   1      12.196 -30.009 -22.449  0.00  0.00    -0.287 OA
BRANCH  29  30
ATOM     30  PA  ADP d   1      11.846 -28.925 -21.328  0.00  0.00     0.418 P 
ATOM     31  O1A ADP d   1      13.181 -28.468 -20.834  0.00  0.00    -0.624 OA
ATOM     32  O2A ADP d   1      10.907 -29.463 -20.335  0.00  0.00    -0.624 OA
BRANCH  30  33
ATOM     33  O3A ADP d   1      11.139 -27.789 -22.182  0.00  0.00    -0.173 OA
BRANCH  33  34
ATOM     34  PB  ADP d   1      10.095 -26.636 -21.769  0.00  0.00     0.431 P 
ATOM     35  O1B ADP d   1      10.497 -26.255 -20.340  0.00  0.00    -0.616 OA
ATOM     36  O2B ADP d   1       8.725 -27.242 -21.908  0.00  0.00    -0.616 OA
ATOM     37  O3B ADP d   1      10.381 -25.554 -22.780  0.00  0.00    -0.616 OA
ENDBRANCH  33  34
ENDBRANCH  30  33
ENDBRANCH  29  30
ENDBRANCH  26  29
ENDBRANCH   1  26
BRANCH   3  38
ATOM     38  O3' ADP d   1      11.516 -34.274 -22.203  0.00  0.00    -0.390 OA
ATOM     39  H   ADP d   1      11.728 -34.719 -21.379  0.00  0.00     0.210 HD
ENDBRANCH   3  38
TORSDOF 9
