REMARK  7 active torsions:
REMARK  status: ('A' for Active; 'I' for Inactive)
REMARK    1  A    between atoms: C_2  and  CA_4 
REMARK    2  A    between atoms: CA_4  and  N_5 
REMARK    3  A    between atoms: CA_4  and  CB_6 
REMARK    4  A    between atoms: CB_6  and  CAJ_7 
REMARK    5  A    between atoms: CAJ_7  and  CAD_8 
REMARK    6  A    between atoms: CAF_17  and  OAB_18 
REMARK    7  A    between atoms: CAG_19  and  OAC_20 
ROOT
ATOM      1  CAJ NDZ d   1       1.287  -9.244  27.079  0.00  0.00     0.154 C 
ATOM      2  CAR NDZ d   1       0.581  -9.431  28.427  0.00  0.00     0.000 C 
ATOM      3  OAI NDZ d   1       0.261  -8.952  26.098  0.00  0.00    -0.358 OA
ATOM      4  CAH NDZ d   1      -1.022  -9.032  26.636  0.00  0.00     0.092 C 
ATOM      5  CAQ NDZ d   1      -0.833  -8.875  28.153  0.00  0.00     0.069 C 
ATOM      6  OAP NDZ d   1      -0.753  -7.448  28.448  0.00  0.00    -0.381 OA
ATOM      7  CAO NDZ d   1      -1.692  -6.562  27.886  0.00  0.00     0.046 C 
ATOM      8  CAF NDZ d   1      -1.713  -6.546  26.343  0.00  0.00     0.083 C 
ATOM      9  CAG NDZ d   1      -1.990  -8.025  25.961  0.00  0.00     0.089 C 
ATOM     10  H   NDZ d   1       1.087  -8.919  29.245  0.00  0.00     0.042 H 
ATOM     11  H   NDZ d   1       0.571 -10.469  28.760  0.00  0.00     0.042 H 
ATOM     12  H   NDZ d   1      -1.516  -9.984  26.441  0.00  0.00     0.091 H 
ATOM     13  H   NDZ d   1      -1.627  -9.358  28.722  0.00  0.00     0.087 H 
ATOM     14  H   NDZ d   1      -1.418  -5.558  28.212  0.00  0.00     0.078 H 
ATOM     15  H   NDZ d   1      -2.678  -6.891  28.215  0.00  0.00     0.078 H 
ATOM     16  H   NDZ d   1      -2.446  -5.887  25.878  0.00  0.00     0.090 H 
ATOM     17  H   NDZ d   1      -2.987  -8.291  26.312  0.00  0.00     0.091 H 
ENDROOT
BRANCH   1  18
ATOM     18  CB  NDZ d   1       2.063 -10.545  26.682  0.00  0.00     0.010 C 
ATOM     19  H   NDZ d   1       2.759 -10.792  27.484  0.00  0.00     0.042 H 
ATOM     20  H   NDZ d   1       1.340 -11.345  26.524  0.00  0.00     0.042 H 
BRANCH  18  21
ATOM     21  CA  NDZ d   1       2.865 -10.345  25.381  0.00  0.00     0.185 C 
ATOM     22  H   NDZ d   1       3.397  -9.394  25.408  0.00  0.00     0.101 H 
BRANCH  21  23
ATOM     23  C   NDZ d   1       3.890 -11.461  25.255  0.00  0.00     0.204 C 
ATOM     24  O   NDZ d   1       4.059 -12.081  24.173  0.00  0.00    -0.646 OA
ATOM     25  OXT NDZ d   1       4.511 -11.773  26.280  0.00  0.00    -0.646 OA
ENDBRANCH  21  23
BRANCH  21  26
ATOM     26  N   NDZ d   1       1.952 -10.298  24.224  0.00  0.00    -0.065 N 
ATOM     27  H   NDZ d   1       2.494 -10.165  23.370  0.00  0.00     0.275 HD
ATOM     28  H   NDZ d   1       1.433 -11.174  24.166  0.00  0.00     0.275 HD
ATOM     29  H   NDZ d   1       1.300  -9.522  24.338  0.00  0.00     0.275 HD
ENDBRANCH  21  26
ENDBRANCH  18  21
ENDBRANCH   1  18
BRANCH   1  30
ATOM     30  CAD NDZ d   1       2.215  -8.101  27.212  0.00  0.00     0.209 C 
ATOM     31  OAA NDZ d   1       1.977  -6.982  26.663  0.00  0.00    -0.646 OA
ATOM     32  OAE NDZ d   1       3.250  -8.295  27.888  0.00  0.00    -0.646 OA
ENDBRANCH   1  30
BRANCH   9  33
ATOM     33  OAC NDZ d   1      -1.867  -8.120  24.533  0.00  0.00    -0.390 OA
ATOM     34  H   NDZ d   1      -0.980  -7.862  24.271  0.00  0.00     0.210 HD
ENDBRANCH   9  33
BRANCH   8  35
ATOM     35  OAB NDZ d   1      -0.384  -6.129  25.942  0.00  0.00    -0.391 OA
ATOM     36  H   NDZ d   1       0.262  -6.755  26.278  0.00  0.00     0.210 HD
ENDBRANCH   8  35
TORSDOF 7
