REMARK  8 active torsions:
REMARK  status: ('A' for Active; 'I' for Inactive)
REMARK    1  A    between atoms: N02_2  and  C08_8 
REMARK    2  A    between atoms: C09_9  and  N02_2 
REMARK    3  A    between atoms: C07_7  and  N03_3 
REMARK    4  A    between atoms: S28_28  and  N04_4 
REMARK    5  A    between atoms: C12_12  and  N05_5 
REMARK    6  A    between atoms: C06_6  and  C10_10 
REMARK    7  A    between atoms: C10_10  and  C11_11 
REMARK    8  A    between atoms: C19_19  and  S28_28 
ROOT
ATOM      1  N01 X64 d   1     -65.611  82.336  86.682  0.00  0.00    -0.205 NA
ATOM      2  C06 X64 d   1     -67.177  80.714  86.017  0.00  0.00     0.104 A 
ATOM      3  C07 X64 d   1     -66.655  81.499  87.037  0.00  0.00     0.145 A 
ATOM      4  C08 X64 d   1     -65.328  82.211  85.402  0.00  0.00     0.174 A 
ATOM      5  S27 X64 d   1     -66.322  81.083  84.553  0.00  0.00    -0.044 SA
ENDROOT
BRANCH   4   6
ATOM      6  N02 X64 d   1     -64.362  82.920  84.876  0.00  0.00    -0.335 N 
ATOM      7  H1  X64 d   1     -64.180  83.824  85.336  0.00  0.00     0.168 HD
BRANCH   6   8
ATOM      8  C09 X64 d   1     -63.589  82.649  83.847  0.00  0.00     0.034 A 
ATOM      9  C17 X64 d   1     -63.705  81.455  83.052  0.00  0.00    -0.056 A 
ATOM     10  C18 X64 d   1     -62.828  81.225  81.964  0.00  0.00    -0.058 A 
ATOM     11  H10 X64 d   1     -64.471  80.725  83.288  0.00  0.00     0.087 H 
ATOM     12  C19 X64 d   1     -61.829  82.172  81.651  0.00  0.00     0.079 A 
ATOM     13  H11 X64 d   1     -62.924  80.322  81.372  0.00  0.00     0.086 H 
ATOM     14  C20 X64 d   1     -61.703  83.365  82.424  0.00  0.00    -0.058 A 
ATOM     15  C21 X64 d   1     -62.578  83.598  83.511  0.00  0.00    -0.056 A 
ATOM     16  H12 X64 d   1     -60.937  84.092  82.178  0.00  0.00     0.086 H 
ATOM     17  H13 X64 d   1     -62.479  84.506  84.094  0.00  0.00     0.087 H 
BRANCH  12  18
ATOM     18  S28 X64 d   1     -60.712  81.853  80.299  0.00  0.00     0.256 S 
ATOM     19  O23 X64 d   1     -59.668  81.004  80.816  0.00  0.00    -0.201 OA
ATOM     20  O24 X64 d   1     -60.169  83.109  79.794  0.00  0.00    -0.201 OA
BRANCH  18  21
ATOM     21  N04 X64 d   1     -61.523  81.020  79.078  0.00  0.00    -0.324 N 
ATOM     22  H4  X64 d   1     -61.038  80.761  78.242  0.00  0.00     0.169 HD
ATOM     23  H5  X64 d   1     -62.489  80.785  79.189  0.00  0.00     0.169 HD
ENDBRANCH  18  21
ENDBRANCH  12  18
ENDBRANCH   6   8
ENDBRANCH   4   6
BRANCH   3  24
ATOM     24  N03 X64 d   1     -67.093  81.452  88.243  0.00  0.00    -0.383 N 
ATOM     25  H2  X64 d   1     -67.871  80.822  88.484  0.00  0.00     0.157 HD
ATOM     26  H3  X64 d   1     -66.666  82.045  88.969  0.00  0.00     0.157 HD
ENDBRANCH   3  24
BRANCH   2  27
ATOM     27  C10 X64 d   1     -68.206  79.782  86.142  0.00  0.00     0.205 C 
ATOM     28  O22 X64 d   1     -68.770  79.617  87.232  0.00  0.00    -0.286 OA
BRANCH  27  29
ATOM     29  C11 X64 d   1     -68.541  78.952  85.058  0.00  0.00     0.049 A 
ATOM     30  C12 X64 d   1     -69.867  78.962  84.445  0.00  0.00     0.117 A 
ATOM     31  C13 X64 d   1     -70.134  78.087  83.339  0.00  0.00    -0.050 A 
ATOM     32  C14 X64 d   1     -69.131  77.218  82.840  0.00  0.00    -0.081 A 
ATOM     33  H6  X64 d   1     -71.116  78.091  82.879  0.00  0.00     0.087 H 
ATOM     34  C15 X64 d   1     -67.835  77.204  83.439  0.00  0.00    -0.082 A 
ATOM     35  H7  X64 d   1     -69.348  76.564  82.003  0.00  0.00     0.083 H 
ATOM     36  C16 X64 d   1     -67.543  78.057  84.533  0.00  0.00    -0.067 A 
ATOM     37  H8  X64 d   1     -67.071  76.538  83.055  0.00  0.00     0.083 H 
ATOM     38  H9  X64 d   1     -66.556  78.035  84.980  0.00  0.00     0.085 H 
BRANCH  30  39
ATOM     39  N05 X64 d   1     -70.814  79.735  84.862  0.00  0.00    -0.115 N 
ATOM     40  O25 X64 d   1     -72.037  79.272  84.933  0.00  0.00    -0.532 OA
ATOM     41  O26 X64 d   1     -70.585  80.983  85.190  0.00  0.00    -0.532 OA
ENDBRANCH  30  39
ENDBRANCH  27  29
ENDBRANCH   2  27
TORSDOF 8
