REMARK  6 active torsions:
REMARK  status: ('A' for Active; 'I' for Inactive)
REMARK    1  A    between atoms: C2'_10  and  O2'_11 
REMARK    2  A    between atoms: C1'_12  and  N9_13 
REMARK    3  A    between atoms: C2_20  and  N2_21 
REMARK    4  A    between atoms: C2A_33  and  O2A_34 
REMARK    5  A    between atoms: C1A_35  and  N91_36 
REMARK    6  A    between atoms: C21_43  and  N21_44 
ROOT
ATOM      1  P1  C2E d   1      66.723  25.193  44.486  0.00  0.00     0.408 P 
ATOM      2  O2P C2E d   1      66.245  24.905  45.883  0.00  0.00    -0.624 OA
ATOM      3  O1P C2E d   1      65.648  25.372  43.452  0.00  0.00    -0.624 OA
ATOM      4  O5' C2E d   1      67.599  26.508  44.436  0.00  0.00    -0.287 OA
ATOM      5  C5' C2E d   1      68.147  26.960  43.181  0.00  0.00     0.058 C 
ATOM      6  C4' C2E d   1      68.955  28.217  43.486  0.00  0.00     0.090 C 
ATOM      7  O4' C2E d   1      68.245  29.258  44.134  0.00  0.00    -0.353 OA
ATOM      8  C3' C2E d   1      70.149  27.917  44.389  0.00  0.00     0.106 C 
ATOM      9  O3' C2E d   1      71.248  27.410  43.630  0.00  0.00    -0.279 OA
ATOM     10  C2' C2E d   1      70.372  29.250  45.030  0.00  0.00     0.106 C 
ATOM     11  C1' C2E d   1      69.022  29.944  45.113  0.00  0.00     0.139 C 
ATOM     12  P11 C2E d   1      72.145  26.344  44.436  0.00  0.00     0.408 P 
ATOM     13  O21 C2E d   1      72.626  26.938  45.719  0.00  0.00    -0.624 OA
ATOM     14  O11 C2E d   1      73.246  26.000  43.495  0.00  0.00    -0.624 OA
ATOM     15  O5A C2E d   1      71.294  25.051  44.736  0.00  0.00    -0.287 OA
ATOM     16  C5A C2E d   1      70.759  24.323  43.630  0.00  0.00     0.058 C 
ATOM     17  C4A C2E d   1      69.958  23.157  44.123  0.00  0.00     0.090 C 
ATOM     18  O4A C2E d   1      70.676  22.285  45.038  0.00  0.00    -0.353 OA
ATOM     19  C3A C2E d   1      68.681  23.551  44.864  0.00  0.00     0.106 C 
ATOM     20  O3A C2E d   1      67.618  23.937  43.970  0.00  0.00    -0.279 OA
ATOM     21  C2A C2E d   1      68.401  22.296  45.632  0.00  0.00     0.106 C 
ATOM     22  C1A C2E d   1      69.757  21.698  45.968  0.00  0.00     0.139 C 
ATOM     23  H1  C2E d   1      67.337  27.192  42.474  0.00  0.00     0.079 H 
ATOM     24  H2  C2E d   1      68.798  26.185  42.750  0.00  0.00     0.079 H 
ATOM     25  H3  C2E d   1      69.324  28.602  42.524  0.00  0.00     0.090 H 
ATOM     26  H4  C2E d   1      69.887  27.171  45.154  0.00  0.00     0.092 H 
ATOM     27  H5  C2E d   1      70.794  29.127  46.038  0.00  0.00     0.093 H 
ATOM     28  H7  C2E d   1      69.105  31.017  44.888  0.00  0.00     0.122 H 
ATOM     29  H13 C2E d   1      71.584  23.958  43.001  0.00  0.00     0.079 H 
ATOM     30  H14 C2E d   1      70.111  24.985  43.037  0.00  0.00     0.079 H 
ATOM     31  H15 C2E d   1      69.677  22.571  43.236  0.00  0.00     0.090 H 
ATOM     32  H16 C2E d   1      68.872  24.388  45.552  0.00  0.00     0.092 H 
ATOM     33  H17 C2E d   1      67.849  22.521  46.556  0.00  0.00     0.093 H 
ATOM     34  H19 C2E d   1      69.734  20.608  45.818  0.00  0.00     0.122 H 
ENDROOT
BRANCH  11  35
ATOM     35  N9  C2E d   1      68.419  29.745  46.457  0.00  0.00    -0.295 N 
ATOM     36  C8  C2E d   1      67.326  29.008  46.750  0.00  0.00     0.071 A 
ATOM     37  N7  C2E d   1      67.037  29.051  48.067  0.00  0.00    -0.234 NA
ATOM     38  H8  C2E d   1      66.750  28.449  46.015  0.00  0.00     0.144 H 
ATOM     39  C5  C2E d   1      67.945  29.831  48.643  0.00  0.00     0.171 A 
ATOM     40  C6  C2E d   1      68.216  30.313  50.022  0.00  0.00     0.292 A 
ATOM     41  C4  C2E d   1      68.864  30.285  47.582  0.00  0.00     0.161 A 
ATOM     42  O6  C2E d   1      67.471  29.970  50.973  0.00  0.00    -0.265 OA
ATOM     43  N1  C2E d   1      69.277  31.135  50.226  0.00  0.00    -0.154 N 
ATOM     44  C2  C2E d   1      70.097  31.528  49.214  0.00  0.00     0.680 A 
ATOM     45  H9  C2E d   1      69.462  31.463  51.152  0.00  0.00     0.187 HD
ATOM     46  N3  C2E d   1      69.904  31.115  47.911  0.00  0.00    -0.174 N 
ATOM     47  H12 C2E d   1      70.550  31.435  47.176  0.00  0.00     0.186 HD
BRANCH  44  48
ATOM     48  N2  C2E d   1      71.132  32.346  49.485  0.00  0.00    -0.234 N 
ATOM     49  H10 C2E d   1      71.760  32.651  48.727  0.00  0.00     0.174 HD
ATOM     50  H11 C2E d   1      71.296  32.667  50.450  0.00  0.00     0.174 HD
ENDBRANCH  44  48
ENDBRANCH  11  35
BRANCH  10  51
ATOM     51  O2' C2E d   1      71.283  29.999  44.208  0.00  0.00    -0.388 OA
ATOM     52  H6  C2E d   1      70.907  30.112  43.343  0.00  0.00     0.210 HD
ENDBRANCH  10  51
BRANCH  21  53
ATOM     53  O2A C2E d   1      67.619  21.415  44.808  0.00  0.00    -0.388 OA
ATOM     54  H18 C2E d   1      66.802  21.841  44.577  0.00  0.00     0.210 HD
ENDBRANCH  21  53
BRANCH  22  55
ATOM     55  N91 C2E d   1      70.100  21.968  47.383  0.00  0.00    -0.295 N 
ATOM     56  C81 C2E d   1      70.747  23.038  47.908  0.00  0.00     0.071 A 
ATOM     57  N71 C2E d   1      70.870  22.919  49.252  0.00  0.00    -0.234 NA
ATOM     58  H20 C2E d   1      71.118  23.881  47.327  0.00  0.00     0.144 H 
ATOM     59  C51 C2E d   1      70.295  21.756  49.604  0.00  0.00     0.171 A 
ATOM     60  C61 C2E d   1      70.061  20.993  50.862  0.00  0.00     0.292 A 
ATOM     61  C41 C2E d   1      69.796  21.148  48.365  0.00  0.00     0.161 A 
ATOM     62  O61 C2E d   1      70.446  21.419  51.965  0.00  0.00    -0.265 OA
ATOM     63  N11 C2E d   1      69.409  19.800  50.785  0.00  0.00    -0.154 N 
ATOM     64  C21 C2E d   1      68.965  19.281  49.598  0.00  0.00     0.680 A 
ATOM     65  H21 C2E d   1      69.249  19.284  51.626  0.00  0.00     0.187 HD
ATOM     66  N31 C2E d   1      69.151  19.934  48.413  0.00  0.00    -0.174 N 
ATOM     67  H24 C2E d   1      68.803  19.511  47.541  0.00  0.00     0.186 HD
BRANCH  64  68
ATOM     68  N21 C2E d   1      68.321  18.087  49.593  0.00  0.00    -0.234 N 
ATOM     69  H22 C2E d   1      67.983  17.688  48.706  0.00  0.00     0.174 HD
ATOM     70  H23 C2E d   1      68.170  17.580  50.477  0.00  0.00     0.174 HD
ENDBRANCH  64  68
ENDBRANCH  22  55
TORSDOF 6
