REMARK  21 active torsions:
REMARK  status: ('A' for Active; 'I' for Inactive)
REMARK    1  A    between atoms: C02_2  and  C01_1 
REMARK    2  A    between atoms: C01_1  and  C57_28 
REMARK    3  A    between atoms: C04_4  and  C02_2 
REMARK    4  A    between atoms: C04_4  and  C05_5 
REMARK    5  A    between atoms: C47_24  and  C04_4 
REMARK    6  A    between atoms: C05_5  and  C06_6 
REMARK    7  A    between atoms: N12_12  and  C13_13 
REMARK       I    between atoms: N12_12  and  C47_24 
REMARK    8  A    between atoms: C13_13  and  C14_14 
REMARK    9  A    between atoms: C13_13  and  C19_19 
REMARK   10  A    between atoms: C14_14  and  C15_15 
REMARK   11  A    between atoms: C19_19  and  C20_20 
REMARK   12  A    between atoms: C20_20  and  C21_21 
REMARK   13  A    between atoms: C21_21  and  O22_22 
REMARK   14  A    between atoms: O22_22  and  C50_26 
REMARK   15  A    between atoms: C50_26  and  C53_27 
REMARK   16  A    between atoms: C57_28  and  N58_29 
REMARK   17  A    between atoms: C57_28  and  C78_32 
REMARK       I    between atoms: N58_29  and  C59_30 
REMARK   18  A    between atoms: C59_30  and  C1_38 
REMARK   19  A    between atoms: C78_32  and  C81_33 
REMARK   20  A    between atoms: C78_32  and  C82_35 
REMARK   21  A    between atoms: C3_40  and  C4_43 
ROOT
ATOM      1  C04 AG7 d   1      37.757  16.859   5.637  0.00  0.00     0.034 C 
ATOM      2  H   AG7 d   1      38.247  15.905   5.443  0.00  0.00     0.055 H 
ENDROOT
BRANCH   1   3
ATOM      3  C02 AG7 d   1      36.475  16.001   5.747  0.00  0.00     0.004 C 
ATOM      4  H   AG7 d   1      35.612  16.656   5.633  0.00  0.00     0.045 H 
ATOM      5  H   AG7 d   1      36.505  15.236   4.971  0.00  0.00     0.045 H 
BRANCH   3   6
ATOM      6  C01 AG7 d   1      36.376  15.304   7.109  0.00  0.00     0.150 C 
ATOM      7  O03 AG7 d   1      37.351  14.708   7.552  0.00  0.00    -0.296 OA
BRANCH   6   8
ATOM      8  C57 AG7 d   1      34.956  14.870   7.563  0.00  0.00     0.073 C 
ATOM      9  H   AG7 d   1      34.331  14.822   6.671  0.00  0.00     0.085 H 
BRANCH   8  10
ATOM     10  N58 AG7 d   1      35.021  13.547   8.184  0.00  0.00    -0.344 N 
ATOM     11  C59 AG7 d   1      34.228  12.447   7.659  0.00  0.00     0.273 C 
ATOM     12  O60 AG7 d   1      33.472  12.599   6.721  0.00  0.00    -0.266 OA
ATOM     13  H   AG7 d   1      35.627  13.395   8.991  0.00  0.00     0.163 HD
BRANCH  11  14
ATOM     14  C1  AG7 d   1      34.414  11.077   8.264  0.00  0.00     0.154 A 
ATOM     15  C2  AG7 d   1      33.706   9.851   7.880  0.00  0.00    -0.017 A 
ATOM     16  C3  AG7 d   1      34.257   8.854   8.761  0.00  0.00     0.077 A 
ATOM     17  H   AG7 d   1      32.944   9.725   7.111  0.00  0.00     0.091 H 
ATOM     18  O4  AG7 d   1      35.160   9.466   9.519  0.00  0.00    -0.218 OA
ATOM     19  N5  AG7 d   1      35.261  10.752   9.237  0.00  0.00    -0.123 NA
BRANCH  16  20
ATOM     20  C4  AG7 d   1      33.885   7.398   8.797  0.00  0.00    -0.029 C 
ATOM     21  H   AG7 d   1      32.823   7.301   9.023  0.00  0.00     0.036 H 
ATOM     22  H   AG7 d   1      34.094   6.947   7.827  0.00  0.00     0.036 H 
ATOM     23  H   AG7 d   1      34.469   6.894   9.567  0.00  0.00     0.036 H 
ENDBRANCH  16  20
ENDBRANCH  11  14
ENDBRANCH   8  10
BRANCH   8  24
ATOM     24  C78 AG7 d   1      34.272  15.886   8.478  0.00  0.00    -0.035 C 
ATOM     25  H   AG7 d   1      34.154  16.830   7.945  0.00  0.00     0.042 H 
BRANCH  24  26
ATOM     26  C81 AG7 d   1      32.911  15.381   8.878  0.00  0.00    -0.071 C 
ATOM     27  H   AG7 d   1      32.303  15.233   7.986  0.00  0.00     0.028 H 
ATOM     28  H   AG7 d   1      33.017  14.434   9.407  0.00  0.00     0.028 H 
ATOM     29  H   AG7 d   1      32.431  16.111   9.530  0.00  0.00     0.028 H 
ENDBRANCH  24  26
BRANCH  24  30
ATOM     30  C82 AG7 d   1      35.111  16.108   9.691  0.00  0.00    -0.071 C 
ATOM     31  H   AG7 d   1      35.235  15.165  10.223  0.00  0.00     0.028 H 
ATOM     32  H   AG7 d   1      36.087  16.488   9.391  0.00  0.00     0.028 H 
ATOM     33  H   AG7 d   1      34.622  16.832  10.342  0.00  0.00     0.028 H 
ENDBRANCH  24  30
ENDBRANCH   8  24
ENDBRANCH   6   8
ENDBRANCH   3   6
ENDBRANCH   1   3
BRANCH   1  34
ATOM     34  C05 AG7 d   1      37.938  17.759   4.421  0.00  0.00    -0.029 C 
ATOM     35  H   AG7 d   1      39.004  17.910   4.253  0.00  0.00     0.041 H 
ATOM     36  H   AG7 d   1      37.434  18.707   4.609  0.00  0.00     0.041 H 
BRANCH  34  37
ATOM     37  C06 AG7 d   1      37.333  17.123   3.176  0.00  0.00    -0.057 A 
ATOM     38  C07 AG7 d   1      37.969  16.049   2.571  0.00  0.00    -0.074 A 
ATOM     39  C08 AG7 d   1      37.433  15.493   1.401  0.00  0.00    -0.045 A 
ATOM     40  H   AG7 d   1      38.882  15.639   3.003  0.00  0.00     0.084 H 
ATOM     41  C09 AG7 d   1      36.263  16.025   0.852  0.00  0.00     0.116 A 
ATOM     42  H   AG7 d   1      37.927  14.648   0.921  0.00  0.00     0.088 H 
ATOM     43  C10 AG7 d   1      35.625  17.104   1.453  0.00  0.00    -0.045 A 
ATOM     44  F1  AG7 d   1      35.774  15.497  -0.272  0.00  0.00    -0.206 F 
ATOM     45  C11 AG7 d   1      36.163  17.665   2.622  0.00  0.00    -0.074 A 
ATOM     46  H   AG7 d   1      34.712  17.512   1.019  0.00  0.00     0.088 H 
ATOM     47  H   AG7 d   1      35.675  18.516   3.096  0.00  0.00     0.084 H 
ENDBRANCH  34  37
ENDBRANCH   1  34
BRANCH   1  48
ATOM     48  C47 AG7 d   1      38.609  17.263   6.844  0.00  0.00     0.222 C 
ATOM     49  N12 AG7 d   1      39.966  16.721   6.949  0.00  0.00    -0.356 N 
ATOM     50  H   AG7 d   1      40.220  15.947   6.335  0.00  0.00     0.162 HD
ATOM     51  O48 AG7 d   1      38.250  18.209   7.513  0.00  0.00    -0.273 OA
BRANCH  49  52
ATOM     52  C13 AG7 d   1      40.998  17.227   7.895  0.00  0.00     0.013 C 
ATOM     53  H   AG7 d   1      40.293  17.986   8.233  0.00  0.00     0.072 H 
BRANCH  52  54
ATOM     54  C14 AG7 d   1      41.257  16.500   9.218  0.00  0.00    -0.035 C 
ATOM     55  H   AG7 d   1      41.689  17.217   9.916  0.00  0.00     0.037 H 
ATOM     56  H   AG7 d   1      41.922  15.660   9.016  0.00  0.00     0.037 H 
BRANCH  54  57
ATOM     57  C15 AG7 d   1      39.993  15.954   9.835  0.00  0.00     0.027 C 
ATOM     58  C16 AG7 d   1      40.331  14.991  10.921  0.00  0.00     0.221 C 
ATOM     59  N17 AG7 d   1      39.456  15.230  12.011  0.00  0.00    -0.361 N 
ATOM     60  O18 AG7 d   1      41.234  14.169  10.927  0.00  0.00    -0.273 OA
ATOM     61  C83 AG7 d   1      38.522  16.265  11.619  0.00  0.00    -0.004 C 
ATOM     62  H   AG7 d   1      39.480  14.756  12.914  0.00  0.00     0.162 HD
ATOM     63  C84 AG7 d   1      39.178  17.024  10.486  0.00  0.00    -0.039 C 
ATOM     64  H   AG7 d   1      38.297  16.927  12.455  0.00  0.00     0.064 H 
ATOM     65  H   AG7 d   1      37.571  15.835  11.304  0.00  0.00     0.064 H 
ATOM     66  H   AG7 d   1      38.465  17.498   9.811  0.00  0.00     0.036 H 
ATOM     67  H   AG7 d   1      39.769  17.877  10.820  0.00  0.00     0.036 H 
ATOM     68  H   AG7 d   1      39.434  15.489   9.022  0.00  0.00     0.054 H 
ENDBRANCH  54  57
ENDBRANCH  52  54
BRANCH  52  69
ATOM     69  C19 AG7 d   1      42.146  18.112   7.380  0.00  0.00    -0.038 C 
ATOM     70  H   AG7 d   1      42.886  17.453   6.926  0.00  0.00     0.036 H 
ATOM     71  H   AG7 d   1      42.525  18.680   8.230  0.00  0.00     0.036 H 
BRANCH  69  72
ATOM     72  C20 AG7 d   1      41.722  19.108   6.325  0.00  0.00     0.018 C 
ATOM     73  H   AG7 d   1      40.968  18.673   5.669  0.00  0.00     0.048 H 
ATOM     74  H   AG7 d   1      42.571  19.390   5.702  0.00  0.00     0.048 H 
BRANCH  72  75
ATOM     75  C21 AG7 d   1      41.162  20.324   7.048  0.00  0.00     0.258 C 
ATOM     76  O23 AG7 d   1      41.527  20.572   8.219  0.00  0.00    -0.265 OA
BRANCH  75  77
ATOM     77  O22 AG7 d   1      40.287  21.065   6.483  0.00  0.00    -0.322 OA
BRANCH  77  78
ATOM     78  C50 AG7 d   1      39.636  22.055   7.218  0.00  0.00     0.025 C 
ATOM     79  H   AG7 d   1      40.359  22.786   7.580  0.00  0.00     0.074 H 
ATOM     80  H   AG7 d   1      39.134  21.611   8.078  0.00  0.00     0.074 H 
BRANCH  78  81
ATOM     81  C53 AG7 d   1      38.627  22.728   6.324  0.00  0.00    -0.056 C 
ATOM     82  H   AG7 d   1      39.139  23.173   5.471  0.00  0.00     0.030 H 
ATOM     83  H   AG7 d   1      37.906  21.990   5.972  0.00  0.00     0.030 H 
ATOM     84  H   AG7 d   1      38.109  23.506   6.885  0.00  0.00     0.030 H 
ENDBRANCH  78  81
ENDBRANCH  77  78
ENDBRANCH  75  77
ENDBRANCH  72  75
ENDBRANCH  69  72
ENDBRANCH  52  69
ENDBRANCH  49  52
ENDBRANCH   1  48
TORSDOF 21
