REMARK  29 active torsions:
REMARK  status: ('A' for Active; 'I' for Inactive)
REMARK    1  A    between atoms: CA_2  and  N_1 
REMARK    2  A    between atoms: C_3  and  CA_2 
REMARK       I    between atoms: N_5  and  C_3 
REMARK    3  A    between atoms: CA_6  and  N_5 
REMARK    4  A    between atoms: C_7  and  CA_6 
REMARK    5  A    between atoms: CA_6  and  CB_9 
REMARK       I    between atoms: N_19  and  C_7 
REMARK    6  A    between atoms: CH_11  and  CH3_12 
REMARK       I    between atoms: NZ_13  and  CH_11 
REMARK    7  A    between atoms: CE_14  and  NZ_13 
REMARK    8  A    between atoms: CD_15  and  CE_14 
REMARK    9  A    between atoms: CG_16  and  CD_15 
REMARK   10  A    between atoms: CB_17  and  CG_16 
REMARK   11  A    between atoms: CA_18  and  CB_17 
REMARK   12  A    between atoms: CA_18  and  N_19 
REMARK   13  A    between atoms: CA_18  and  C_20 
REMARK       I    between atoms: C_20  and  N_22 
REMARK   14  A    between atoms: N_22  and  CA_23 
REMARK   15  A    between atoms: CA_23  and  C_24 
REMARK   16  A    between atoms: CA_23  and  CB_26 
REMARK       I    between atoms: C_24  and  N_33 
REMARK   17  A    between atoms: CB_26  and  CG_27 
REMARK   18  A    between atoms: CG_27  and  CD_28 
REMARK   19  A    between atoms: CD_28  and  NE_29 
REMARK       I    between atoms: NE_29  and  CZ_30 
REMARK       I    between atoms: CZ_30  and  NH1_31 
REMARK       I    between atoms: CZ_30  and  NH2_32 
REMARK   20  A    between atoms: N_33  and  CA_34 
REMARK   21  A    between atoms: CA_34  and  C_35 
REMARK   22  A    between atoms: CA_34  and  CB_37 
REMARK       I    between atoms: C_35  and  N_43 
REMARK   23  A    between atoms: CB_37  and  CG_38 
REMARK   24  A    between atoms: N_43  and  CA_44 
REMARK   25  A    between atoms: CA_44  and  C_45 
REMARK   26  A    between atoms: CA_44  and  CB_47 
REMARK   27  A    between atoms: CB_47  and  CG_48 
REMARK   28  A    between atoms: CG_48  and  CD_49 
REMARK   29  A    between atoms: CD_49  and  NE_50 
REMARK       I    between atoms: NE_50  and  CZ_51 
REMARK       I    between atoms: CZ_51  and  NH1_52 
ROOT
ATOM      1  CA  ARG d   1      33.173   5.104  13.434  0.00  0.00     0.089 C 
ATOM      2  H   ARG d   1      34.176   5.152  13.011  0.00  0.00     0.087 H 
ENDROOT
BRANCH   1   3
ATOM      3  N   ARG d   1      32.194   5.361  12.399  0.00  0.00    -0.346 N 
ATOM      4  C   ALY d   1      32.160   4.596  11.327  0.00  0.00     0.241 C 
ATOM      5  O   ALY d   1      32.990   3.702  11.118  0.00  0.00    -0.271 OA
ATOM      6  H   ARG d   1      31.533   6.131  12.499  0.00  0.00     0.163 HD
BRANCH   4   7
ATOM      7  CA  ALY d   1      31.041   4.839  10.394  0.00  0.00     0.089 C 
ATOM      8  H   ALY d   1      30.764   5.890  10.474  0.00  0.00     0.087 H 
BRANCH   7   9
ATOM      9  CB  ALY d   1      29.993   3.821  10.766  0.00  0.00    -0.038 C 
ATOM     10  H   ALY d   1      30.035   2.964  10.094  0.00  0.00     0.036 H 
ATOM     11  H   ALY d   1      30.162   3.448  11.776  0.00  0.00     0.036 H 
BRANCH   9  12
ATOM     12  CG  ALY d   1      28.659   4.501  10.671  0.00  0.00    -0.061 C 
ATOM     13  H   ALY d   1      28.811   5.577  10.583  0.00  0.00     0.033 H 
ATOM     14  H   ALY d   1      28.127   4.126   9.797  0.00  0.00     0.033 H 
BRANCH  12  15
ATOM     15  CD  ALY d   1      27.838   4.213  11.916  0.00  0.00    -0.050 C 
ATOM     16  H   ALY d   1      28.230   3.374  12.492  0.00  0.00     0.035 H 
ATOM     17  H   ALY d   1      27.854   5.038  12.629  0.00  0.00     0.035 H 
BRANCH  15  18
ATOM     18  CE  ALY d   1      26.466   3.948  11.373  0.00  0.00    -0.005 C 
ATOM     19  H   ALY d   1      26.120   4.941  11.085  0.00  0.00     0.064 H 
ATOM     20  H   ALY d   1      26.636   3.143  10.658  0.00  0.00     0.064 H 
BRANCH  18  21
ATOM     21  NZ  ALY d   1      25.354   3.433  12.196  0.00  0.00    -0.361 N 
ATOM     22  CH  ALY d   1      24.296   2.979  11.542  0.00  0.00     0.213 C 
ATOM     23  OH  ALY d   1      24.246   2.921  10.348  0.00  0.00    -0.274 OA
ATOM     24  H   ALY d   1      25.398   3.427  13.215  0.00  0.00     0.162 HD
BRANCH  22  25
ATOM     25  CH3 ALY d   1      23.119   2.510  12.345  0.00  0.00    -0.003 C 
ATOM     26  H   ALY d   1      22.241   3.099  12.079  0.00  0.00     0.040 H 
ATOM     27  H   ALY d   1      22.930   1.458  12.130  0.00  0.00     0.040 H 
ATOM     28  H   ALY d   1      23.333   2.633  13.407  0.00  0.00     0.040 H 
ENDBRANCH  22  25
ENDBRANCH  18  21
ENDBRANCH  15  18
ENDBRANCH  12  15
ENDBRANCH   9  12
ENDBRANCH   7   9
BRANCH   7  29
ATOM     29  N   ALY d   1      31.348   4.550   9.003  0.00  0.00    -0.346 N 
ATOM     30  C   ALA d   1      32.250   5.236   8.320  0.00  0.00     0.240 C 
ATOM     31  O   ALA d   1      32.908   6.173   8.809  0.00  0.00    -0.271 OA
ATOM     32  H   ALY d   1      30.850   3.791   8.537  0.00  0.00     0.163 HD
BRANCH  30  33
ATOM     33  CA  ALA d   1      32.427   4.818   6.864  0.00  0.00     0.086 C 
ATOM     34  H   ALA d   1      31.766   3.971   6.679  0.00  0.00     0.086 H 
BRANCH  33  35
ATOM     35  N   ALA d   1      32.031   5.902   5.947  0.00  0.00    -0.347 N 
ATOM     36  C   GLY d   1      31.036   5.744   5.068  0.00  0.00     0.243 C 
ATOM     37  O   GLY d   1      30.388   4.690   4.970  0.00  0.00    -0.272 OA
ATOM     38  H   ALA d   1      32.527   6.793   5.984  0.00  0.00     0.163 HD
BRANCH  36  39
ATOM     39  CA  GLY d   1      30.730   6.935   4.163  0.00  0.00     0.152 C 
ATOM     40  H   GLY d   1      29.655   6.944   3.982  0.00  0.00     0.090 H 
ATOM     41  H   GLY d   1      31.090   7.833   4.666  0.00  0.00     0.090 H 
BRANCH  39  42
ATOM     42  N   GLY d   1      31.415   6.857   2.828  0.00  0.00    -0.071 N 
ATOM     43  H   GLY d   1      31.171   7.678   2.274  0.00  0.00     0.274 HD
ATOM     44  H   GLY d   1      32.425   6.827   2.967  0.00  0.00     0.274 HD
ATOM     45  H   GLY d   1      31.112   6.014   2.341  0.00  0.00     0.274 HD
ENDBRANCH  39  42
ENDBRANCH  36  39
ENDBRANCH  33  35
BRANCH  33  46
ATOM     46  CB  ALA d   1      33.862   4.354   6.591  0.00  0.00    -0.049 C 
ATOM     47  H   ALA d   1      34.553   5.169   6.806  0.00  0.00     0.030 H 
ATOM     48  H   ALA d   1      34.094   3.501   7.229  0.00  0.00     0.030 H 
ATOM     49  H   ALA d   1      33.956   4.063   5.545  0.00  0.00     0.030 H 
ENDBRANCH  33  46
ENDBRANCH  30  33
ENDBRANCH   7  29
ENDBRANCH   4   7
ENDBRANCH   1   3
BRANCH   1  50
ATOM     50  C   ARG d   1      32.913   3.700  14.017  0.00  0.00     0.241 C 
ATOM     51  O   ARG d   1      31.770   3.321  14.253  0.00  0.00    -0.271 OA
ATOM     52  N   HIS d   1      34.011   2.958  14.183  0.00  0.00    -0.346 N 
ATOM     53  H   HIS d   1      34.844   3.285  13.694  0.00  0.00     0.163 HD
BRANCH  52  54
ATOM     54  CA  HIS d   1      34.178   1.727  14.981  0.00  0.00     0.094 C 
ATOM     55  H   HIS d   1      33.692   0.887  14.484  0.00  0.00     0.088 H 
BRANCH  54  56
ATOM     56  C   HIS d   1      33.526   1.822  16.380  0.00  0.00     0.241 C 
ATOM     57  O   HIS d   1      33.667   2.849  17.061  0.00  0.00    -0.271 OA
ATOM     58  N   ARG d   1      32.846   0.740  16.799  0.00  0.00    -0.345 N 
ATOM     59  H   ARG d   1      32.841  -0.074  16.184  0.00  0.00     0.163 HD
BRANCH  58  60
ATOM     60  CA  ARG d   1      32.102   0.627  18.078  0.00  0.00     0.096 C 
ATOM     61  H   ARG d   1      31.248   1.295  17.965  0.00  0.00     0.089 H 
BRANCH  60  62
ATOM     62  C   ARG d   1      32.876   1.112  19.311  0.00  0.00     0.196 C 
ATOM     63  O   ARG d   1      34.052   0.804  19.458  0.00  0.00    -0.646 OA
ATOM     64  O   ARG d   1      32.301   1.828  20.173  0.00  0.00    -0.646 OA
ENDBRANCH  60  62
BRANCH  60  65
ATOM     65  CB  ARG d   1      31.630  -0.823  18.311  0.00  0.00    -0.035 C 
ATOM     66  H   ARG d   1      32.520  -1.427  18.490  0.00  0.00     0.036 H 
ATOM     67  H   ARG d   1      31.059  -1.122  17.432  0.00  0.00     0.036 H 
BRANCH  65  68
ATOM     68  CG  ARG d   1      30.703  -0.996  19.541  0.00  0.00    -0.047 C 
ATOM     69  H   ARG d   1      29.820  -0.373  19.400  0.00  0.00     0.035 H 
ATOM     70  H   ARG d   1      31.254  -0.704  20.435  0.00  0.00     0.035 H 
BRANCH  68  71
ATOM     71  CD  ARG d   1      30.255  -2.448  19.698  0.00  0.00     0.009 C 
ATOM     72  H   ARG d   1      31.136  -3.050  19.919  0.00  0.00     0.064 H 
ATOM     73  H   ARG d   1      29.765  -2.751  18.773  0.00  0.00     0.064 H 
BRANCH  71  74
ATOM     74  NE  ARG d   1      29.300  -2.623  20.795  0.00  0.00    -0.227 N 
ATOM     75  CZ  ARG d   1      28.729  -3.782  21.105  0.00  0.00     0.665 C 
ATOM     76  NH1 ARG d   1      29.009  -4.878  20.403  0.00  0.00    -0.235 N 
ATOM     77  NH2 ARG d   1      27.876  -3.851  22.120  0.00  0.00    -0.235 N 
ATOM     78  H   ARG d   1      29.665  -4.830  19.623  0.00  0.00     0.174 HD
ATOM     79  H   ARG d   1      28.568  -5.765  20.645  0.00  0.00     0.174 HD
ATOM     80  H   ARG d   1      27.659  -3.014  22.662  0.00  0.00     0.174 HD
ATOM     81  H   ARG d   1      27.438  -4.741  22.358  0.00  0.00     0.174 HD
ATOM     82  H   ARG d   1      29.059  -1.805  21.355  0.00  0.00     0.177 HD
ENDBRANCH  71  74
ENDBRANCH  68  71
ENDBRANCH  65  68
ENDBRANCH  60  65
ENDBRANCH  58  60
ENDBRANCH  54  56
BRANCH  54  83
ATOM     83  CB  HIS d   1      35.705   1.557  15.136  0.00  0.00     0.004 C 
ATOM     84  H   HIS d   1      35.983   2.072  16.056  0.00  0.00     0.046 H 
ATOM     85  H   HIS d   1      36.155   1.950  14.224  0.00  0.00     0.046 H 
BRANCH  83  86
ATOM     86  CG  HIS d   1      36.187   0.141  15.276  0.00  0.00     0.053 A 
ATOM     87  ND1 HIS d   1      37.283  -0.189  16.051  0.00  0.00    -0.247 NA
ATOM     88  CE1 HIS d   1      37.493  -1.493  15.985  0.00  0.00     0.064 A 
ATOM     89  NE2 HIS d   1      36.578  -2.021  15.189  0.00  0.00    -0.359 N 
ATOM     90  H   HIS d   1      38.284  -2.039  16.498  0.00  0.00     0.143 H 
ATOM     91  CD2 HIS d   1      35.754  -1.020  14.725  0.00  0.00     0.002 A 
ATOM     92  H   HIS d   1      36.496  -3.011  14.956  0.00  0.00     0.166 HD
ATOM     93  H   HIS d   1      34.912  -1.139  14.043  0.00  0.00     0.114 H 
ENDBRANCH  83  86
ENDBRANCH  54  83
ENDBRANCH  52  54
ENDBRANCH   1  50
BRANCH   1  94
ATOM     94  CB  ARG d   1      33.072   6.156  14.534  0.00  0.00    -0.036 C 
ATOM     95  H   ARG d   1      32.102   6.024  15.013  0.00  0.00     0.036 H 
ATOM     96  H   ARG d   1      33.215   7.127  14.060  0.00  0.00     0.036 H 
BRANCH  94  97
ATOM     97  CG  ARG d   1      34.143   6.033  15.643  0.00  0.00    -0.048 C 
ATOM     98  H   ARG d   1      35.097   6.399  15.262  0.00  0.00     0.035 H 
ATOM     99  H   ARG d   1      34.235   4.988  15.938  0.00  0.00     0.035 H 
BRANCH  97 100
ATOM    100  CD  ARG d   1      33.729   6.878  16.879  0.00  0.00     0.009 C 
ATOM    101  H   ARG d   1      34.523   6.838  17.624  0.00  0.00     0.064 H 
ATOM    102  H   ARG d   1      32.807   6.475  17.297  0.00  0.00     0.064 H 
BRANCH 100 103
ATOM    103  NE  ARG d   1      33.511   8.270  16.481  0.00  0.00    -0.227 N 
ATOM    104  CZ  ARG d   1      34.498   9.136  16.259  0.00  0.00     0.665 C 
ATOM    105  NH1 ARG d   1      35.762   8.754  16.462  0.00  0.00    -0.235 N 
ATOM    106  NH2 ARG d   1      34.233  10.375  15.866  0.00  0.00    -0.235 N 
ATOM    107  H   ARG d   1      35.963   7.807  16.784  0.00  0.00     0.174 HD
ATOM    108  H   ARG d   1      36.526   9.409  16.295  0.00  0.00     0.174 HD
ATOM    109  H   ARG d   1      33.266  10.672  15.731  0.00  0.00     0.174 HD
ATOM    110  H   ARG d   1      34.996  11.031  15.698  0.00  0.00     0.174 HD
ATOM    111  H   ARG d   1      32.551   8.594  16.368  0.00  0.00     0.177 HD
ENDBRANCH 100 103
ENDBRANCH  97 100
ENDBRANCH  94  97
ENDBRANCH   1  94
TORSDOF 29
