REMARK  27 active torsions:
REMARK  status: ('A' for Active; 'I' for Inactive)
REMARK    1  A    between atoms: CA_2  and  N_1 
REMARK    2  A    between atoms: C_3  and  CA_2 
REMARK       I    between atoms: N_5  and  C_3 
REMARK    3  A    between atoms: CA_6  and  N_5 
REMARK    4  A    between atoms: C_7  and  CA_6 
REMARK    5  A    between atoms: CA_6  and  CB_9 
REMARK       I    between atoms: N_14  and  C_7 
REMARK    6  A    between atoms: CB_9  and  CG_10 
REMARK    7  A    between atoms: CG_10  and  CD_11 
REMARK    8  A    between atoms: CD_11  and  CE_12 
REMARK    9  A    between atoms: CE_12  and  NZ_13 
REMARK   10  A    between atoms: CA_15  and  N_14 
REMARK   11  A    between atoms: C_16  and  CA_15 
REMARK       I    between atoms: N_18  and  C_16 
REMARK   12  A    between atoms: CA_19  and  N_18 
REMARK   13  A    between atoms: C_20  and  CA_19 
REMARK   14  A    between atoms: CA_19  and  CB_22 
REMARK       I    between atoms: N_26  and  C_20 
REMARK   15  A    between atoms: CB_22  and  CG_23 
REMARK   16  A    between atoms: CG_23  and  CD1_24 
REMARK   17  A    between atoms: CG_23  and  CD2_25 
REMARK   18  A    between atoms: CA_27  and  N_26 
REMARK   19  A    between atoms: C_28  and  CA_27 
REMARK       I    between atoms: N_39  and  C_28 
REMARK   20  A    between atoms: CH_31  and  CH3_32 
REMARK       I    between atoms: NZ_33  and  CH_31 
REMARK   21  A    between atoms: CE_34  and  NZ_33 
REMARK   22  A    between atoms: CD_35  and  CE_34 
REMARK   23  A    between atoms: CG_36  and  CD_35 
REMARK   24  A    between atoms: CB_37  and  CG_36 
REMARK   25  A    between atoms: CA_38  and  CB_37 
REMARK   26  A    between atoms: CA_38  and  N_39 
REMARK   27  A    between atoms: CA_38  and  C_40 
ROOT
ATOM      1  CA  LEU d   1      -6.725   3.171  -6.567  0.00  0.00     0.089 C 
ATOM      2  H   LEU d   1      -7.450   2.362  -6.655  0.00  0.00     0.087 H 
ENDROOT
BRANCH   1   3
ATOM      3  N   LEU d   1      -5.384   2.573  -6.619  0.00  0.00    -0.346 N 
ATOM      4  C   GLY d   1      -5.073   1.624  -7.501  0.00  0.00     0.236 C 
ATOM      5  O   GLY d   1      -5.886   1.159  -8.298  0.00  0.00    -0.272 OA
ATOM      6  H   LEU d   1      -4.672   2.893  -5.962  0.00  0.00     0.163 HD
BRANCH   4   7
ATOM      7  CA  GLY d   1      -3.640   1.123  -7.476  0.00  0.00     0.069 C 
ATOM      8  H   GLY d   1      -3.038   1.900  -7.947  0.00  0.00     0.078 H 
ATOM      9  H   GLY d   1      -3.412   0.903  -6.433  0.00  0.00     0.078 H 
BRANCH   7  10
ATOM     10  N   GLY d   1      -3.372  -0.114  -8.224  0.00  0.00    -0.351 N 
ATOM     11  C   LYS d   1      -3.575  -1.321  -7.691  0.00  0.00     0.240 C 
ATOM     12  O   LYS d   1      -4.053  -1.486  -6.565  0.00  0.00    -0.271 OA
ATOM     13  H   GLY d   1      -3.020  -0.048  -9.179  0.00  0.00     0.163 HD
BRANCH  11  14
ATOM     14  CA  LYS d   1      -3.198  -2.538  -8.548  0.00  0.00     0.089 C 
ATOM     15  H   LYS d   1      -4.031  -3.238  -8.488  0.00  0.00     0.087 H 
BRANCH  14  16
ATOM     16  N   LYS d   1      -3.050  -2.232  -9.976  0.00  0.00    -0.346 N 
ATOM     17  C   GLY d   1      -4.077  -1.859 -10.740  0.00  0.00     0.243 C 
ATOM     18  O   GLY d   1      -5.239  -1.817 -10.339  0.00  0.00    -0.272 OA
ATOM     19  H   LYS d   1      -2.126  -2.308 -10.400  0.00  0.00     0.163 HD
BRANCH  17  20
ATOM     20  CA  GLY d   1      -3.741  -1.448 -12.159  0.00  0.00     0.152 C 
ATOM     21  H   GLY d   1      -4.290  -0.528 -12.363  0.00  0.00     0.090 H 
ATOM     22  H   GLY d   1      -2.657  -1.351 -12.214  0.00  0.00     0.090 H 
BRANCH  20  23
ATOM     23  N   GLY d   1      -4.141  -2.430 -13.197  0.00  0.00    -0.071 N 
ATOM     24  H   GLY d   1      -3.879  -2.076 -14.117  0.00  0.00     0.274 HD
ATOM     25  H   GLY d   1      -3.667  -3.317 -13.025  0.00  0.00     0.274 HD
ATOM     26  H   GLY d   1      -5.151  -2.570 -13.160  0.00  0.00     0.274 HD
ENDBRANCH  20  23
ENDBRANCH  17  20
ENDBRANCH  14  16
BRANCH  14  27
ATOM     27  CB  LYS d   1      -1.929  -3.196  -7.987  0.00  0.00    -0.038 C 
ATOM     28  H   LYS d   1      -1.748  -2.744  -7.012  0.00  0.00     0.036 H 
ATOM     29  H   LYS d   1      -1.143  -3.039  -8.726  0.00  0.00     0.036 H 
BRANCH  27  30
ATOM     30  CG  LYS d   1      -2.021  -4.707  -7.759  0.00  0.00    -0.061 C 
ATOM     31  H   LYS d   1      -3.020  -4.928  -7.383  0.00  0.00     0.033 H 
ATOM     32  H   LYS d   1      -1.235  -4.988  -7.058  0.00  0.00     0.033 H 
BRANCH  30  33
ATOM     33  CD  LYS d   1      -1.814  -5.510  -9.040  0.00  0.00    -0.043 C 
ATOM     34  H   LYS d   1      -1.159  -4.941  -9.700  0.00  0.00     0.035 H 
ATOM     35  H   LYS d   1      -2.788  -5.688  -9.495  0.00  0.00     0.035 H 
BRANCH  33  36
ATOM     36  CE  LYS d   1      -1.159  -6.862  -8.759  0.00  0.00     0.080 C 
ATOM     37  H   LYS d   1      -0.137  -6.671  -8.433  0.00  0.00     0.075 H 
ATOM     38  H   LYS d   1      -1.218  -7.452  -9.673  0.00  0.00     0.075 H 
BRANCH  36  39
ATOM     39  NZ  LYS d   1      -1.836  -7.633  -7.683  0.00  0.00    -0.079 N 
ATOM     40  H   LYS d   1      -1.352  -8.520  -7.546  0.00  0.00     0.274 HD
ATOM     41  H   LYS d   1      -1.815  -7.095  -6.816  0.00  0.00     0.274 HD
ATOM     42  H   LYS d   1      -2.804  -7.810  -7.951  0.00  0.00     0.274 HD
ENDBRANCH  36  39
ENDBRANCH  33  36
ENDBRANCH  30  33
ENDBRANCH  27  30
ENDBRANCH  14  27
ENDBRANCH  11  14
ENDBRANCH   7  10
ENDBRANCH   4   7
ENDBRANCH   1   3
BRANCH   1  43
ATOM     43  C   LEU d   1      -6.924   4.132  -7.736  0.00  0.00     0.240 C 
ATOM     44  O   LEU d   1      -8.054   4.347  -8.181  0.00  0.00    -0.271 OA
ATOM     45  N   GLY d   1      -5.818   4.674  -8.242  0.00  0.00    -0.351 N 
ATOM     46  H   GLY d   1      -4.926   4.484  -7.785  0.00  0.00     0.163 HD
BRANCH  45  47
ATOM     47  CA  GLY d   1      -5.831   5.529  -9.423  0.00  0.00     0.069 C 
ATOM     48  H   GLY d   1      -6.868   5.652  -9.735  0.00  0.00     0.078 H 
ATOM     49  H   GLY d   1      -5.214   5.054 -10.186  0.00  0.00     0.078 H 
BRANCH  47  50
ATOM     50  C   GLY d   1      -5.260   6.907  -9.155  0.00  0.00     0.236 C 
ATOM     51  O   GLY d   1      -5.228   7.373  -8.012  0.00  0.00    -0.272 OA
ATOM     52  N   ALY d   1      -4.812   7.557 -10.225  0.00  0.00    -0.345 N 
ATOM     53  H   ALY d   1      -4.836   7.087 -11.130  0.00  0.00     0.163 HD
BRANCH  52  54
ATOM     54  CA  ALY d   1      -4.288   8.914 -10.154  0.00  0.00     0.096 C 
ATOM     55  H   ALY d   1      -3.948   9.111  -9.137  0.00  0.00     0.089 H 
BRANCH  54  56
ATOM     56  CB  ALY d   1      -3.143   9.065 -11.149  0.00  0.00    -0.037 C 
ATOM     57  H   ALY d   1      -3.494   8.764 -12.136  0.00  0.00     0.036 H 
ATOM     58  H   ALY d   1      -2.817  10.105 -11.153  0.00  0.00     0.036 H 
BRANCH  56  59
ATOM     59  CG  ALY d   1      -1.973   8.189 -10.761  0.00  0.00    -0.061 C 
ATOM     60  H   ALY d   1      -1.821   8.248  -9.683  0.00  0.00     0.033 H 
ATOM     61  H   ALY d   1      -2.183   7.159 -11.049  0.00  0.00     0.033 H 
BRANCH  59  62
ATOM     62  CD  ALY d   1      -0.717   8.662 -11.471  0.00  0.00    -0.050 C 
ATOM     63  H   ALY d   1      -0.829   8.541 -12.549  0.00  0.00     0.035 H 
ATOM     64  H   ALY d   1      -0.544   9.717 -11.260  0.00  0.00     0.035 H 
BRANCH  62  65
ATOM     65  CE  ALY d   1       0.450   7.836 -10.976  0.00  0.00    -0.005 C 
ATOM     66  H   ALY d   1       0.614   8.037  -9.917  0.00  0.00     0.064 H 
ATOM     67  H   ALY d   1       0.231   6.777 -11.116  0.00  0.00     0.064 H 
BRANCH  65  68
ATOM     68  NZ  ALY d   1       1.651   8.188 -11.729  0.00  0.00    -0.361 N 
ATOM     69  CH  ALY d   1       2.439   7.255 -12.264  0.00  0.00     0.213 C 
ATOM     70  OH  ALY d   1       2.233   6.052 -12.183  0.00  0.00    -0.274 OA
ATOM     71  H   ALY d   1       1.893   9.172 -11.848  0.00  0.00     0.162 HD
BRANCH  69  72
ATOM     72  CH3 ALY d   1       3.679   7.773 -12.965  0.00  0.00    -0.003 C 
ATOM     73  H   ALY d   1       4.566   7.389 -12.462  0.00  0.00     0.040 H 
ATOM     74  H   ALY d   1       3.675   7.438 -14.002  0.00  0.00     0.040 H 
ATOM     75  H   ALY d   1       3.684   8.863 -12.933  0.00  0.00     0.040 H 
ENDBRANCH  69  72
ENDBRANCH  65  68
ENDBRANCH  62  65
ENDBRANCH  59  62
ENDBRANCH  56  59
ENDBRANCH  54  56
BRANCH  54  76
ATOM     76  C   ALY d   1      -5.377   9.895 -10.562  0.00  0.00     0.196 C 
ATOM     77  O   ALY d   1      -6.421   9.498 -11.080  0.00  0.00    -0.646 OA
ATOM     78  O   ALY d   1      -5.208  11.128 -10.367  0.00  0.00    -0.646 OA
ENDBRANCH  54  76
ENDBRANCH  52  54
ENDBRANCH  47  50
ENDBRANCH  45  47
ENDBRANCH   1  43
BRANCH   1  79
ATOM     79  CB  LEU d   1      -7.000   3.865  -5.223  0.00  0.00    -0.035 C 
ATOM     80  H   LEU d   1      -7.923   4.427  -5.365  0.00  0.00     0.037 H 
ATOM     81  H   LEU d   1      -6.098   4.432  -4.995  0.00  0.00     0.037 H 
BRANCH  79  82
ATOM     82  CG  LEU d   1      -7.246   2.965  -4.000  0.00  0.00    -0.059 C 
ATOM     83  H   LEU d   1      -6.430   2.243  -3.980  0.00  0.00     0.038 H 
BRANCH  82  84
ATOM     84  CD1 LEU d   1      -7.200   3.755  -2.688  0.00  0.00    -0.073 C 
ATOM     85  H   LEU d   1      -6.220   4.219  -2.579  0.00  0.00     0.028 H 
ATOM     86  H   LEU d   1      -7.969   4.527  -2.703  0.00  0.00     0.028 H 
ATOM     87  H   LEU d   1      -7.379   3.079  -1.852  0.00  0.00     0.028 H 
ENDBRANCH  82  84
BRANCH  82  88
ATOM     88  CD2 LEU d   1      -8.554   2.181  -4.119  0.00  0.00    -0.073 C 
ATOM     89  H   LEU d   1      -9.388   2.878  -4.202  0.00  0.00     0.028 H 
ATOM     90  H   LEU d   1      -8.518   1.548  -5.006  0.00  0.00     0.028 H 
ATOM     91  H   LEU d   1      -8.685   1.560  -3.233  0.00  0.00     0.028 H 
ENDBRANCH  82  88
ENDBRANCH  79  82
ENDBRANCH   1  79
TORSDOF 27
