REMARK  1 active torsions:
REMARK  status: ('A' for Active; 'I' for Inactive)
REMARK    1  A    between atoms: C1_1  and  C5_5 
ROOT
ATOM      1  C1  UNJ d   1     -17.584 -36.097  -2.001  0.00  0.00     0.153 A 
ATOM      2  O2  UNJ d   1     -18.061 -37.023  -2.885  0.00  0.00    -0.303 OA
ATOM      3  C3  UNJ d   1     -18.179 -36.223  -0.768  0.00  0.00    -0.031 A 
ATOM      4  C4  UNJ d   1     -19.060 -37.237  -0.915  0.00  0.00     0.002 A 
ATOM      5  C6  UNJ d   1     -18.997 -37.699  -2.229  0.00  0.00     0.086 A 
ATOM      6  C7  UNJ d   1     -20.001 -37.849  -0.047  0.00  0.00    -0.053 A 
ATOM      7  C9  UNJ d   1     -19.790 -38.693  -2.773  0.00  0.00    -0.048 A 
ATOM      8  C10 UNJ d   1     -20.756 -38.866  -0.617  0.00  0.00     0.011 A 
ATOM      9  C12 UNJ d   1     -20.652 -39.302  -1.908  0.00  0.00    -0.064 A 
ATOM     10 BR13 UNJ d   1     -22.069 -39.888   0.351  0.00  0.00    -0.051 Br
ATOM     11  H1  UNJ d   1     -17.984 -35.636   0.128  0.00  0.00     0.089 H 
ATOM     12  H2  UNJ d   1     -20.122 -37.545   0.986  0.00  0.00     0.086 H 
ATOM     13  H3  UNJ d   1     -19.731 -38.971  -3.819  0.00  0.00     0.087 H 
ATOM     14  H4  UNJ d   1     -21.257 -40.135  -2.246  0.00  0.00     0.085 H 
ENDROOT
BRANCH   1  15
ATOM     15  C5  UNJ d   1     -16.461 -35.265  -2.547  0.00  0.00     0.234 C 
ATOM     16  O8  UNJ d   1     -16.013 -34.327  -1.849  0.00  0.00    -0.642 OA
ATOM     17  O11 UNJ d   1     -15.980 -35.646  -3.697  0.00  0.00    -0.642 OA
ENDBRANCH   1  15
TORSDOF 1
