REMARK  4 active torsions:
REMARK  status: ('A' for Active; 'I' for Inactive)
REMARK    1  A    between atoms: N21_21  and  C06_6 
REMARK    2  A    between atoms: C09_9  and  C10_10 
REMARK    3  A    between atoms: C14_14  and  N21_21 
REMARK    4  A    between atoms: C17_17  and  N20_20 
ROOT
ATOM      1  C14 UNM d   1      19.705 -36.509  -2.855  0.00  0.00     0.010 C 
ATOM      2  C15 UNM d   1      19.225 -37.906  -3.443  0.00  0.00    -0.044 C 
ATOM      3  C16 UNM d   1      17.675 -37.943  -3.626  0.00  0.00    -0.037 C 
ATOM      4  C17 UNM d   1      17.131 -36.866  -4.652  0.00  0.00     0.100 C 
ATOM      5  C18 UNM d   1      17.666 -35.452  -4.171  0.00  0.00    -0.037 C 
ATOM      6  C19 UNM d   1      19.185 -35.450  -3.840  0.00  0.00    -0.044 C 
ATOM      7  H4  UNM d   1      20.803 -36.482  -2.802  0.00  0.00     0.072 H 
ATOM      8  H5  UNM d   1      19.523 -38.707  -2.751  0.00  0.00     0.036 H 
ATOM      9  H6  UNM d   1      19.705 -38.068  -4.420  0.00  0.00     0.036 H 
ATOM     10  H7  UNM d   1      17.205 -37.760  -2.648  0.00  0.00     0.036 H 
ATOM     11  H8  UNM d   1      17.391 -38.942  -3.988  0.00  0.00     0.036 H 
ATOM     12  H9  UNM d   1      17.612 -37.076  -5.619  0.00  0.00     0.083 H 
ATOM     13  H10 UNM d   1      17.111 -35.157  -3.268  0.00  0.00     0.036 H 
ATOM     14  H11 UNM d   1      17.482 -34.719  -4.970  0.00  0.00     0.036 H 
ATOM     15  H12 UNM d   1      19.727 -35.588  -4.787  0.00  0.00     0.036 H 
ATOM     16  H13 UNM d   1      19.428 -34.463  -3.419  0.00  0.00     0.036 H 
ENDROOT
BRANCH   1  17
ATOM     17  N21 UNM d   1      19.132 -36.235  -1.474  0.00  0.00    -0.383 N 
ATOM     18  H17 UNM d   1      18.485 -35.438  -1.385  0.00  0.00     0.160 HD
BRANCH  17  19
ATOM     19  C06 UNM d   1      19.400 -36.957  -0.328  0.00  0.00     0.064 A 
ATOM     20  C04 UNM d   1      18.752 -36.770   0.903  0.00  0.00     0.113 A 
ATOM     21  C02 UNM d   1      19.023 -37.534   2.042  0.00  0.00     0.004 A 
ATOM     22  O07 UNM d   1      17.796 -35.854   1.086  0.00  0.00    -0.301 OA
ATOM     23  C03 UNM d   1      20.068 -38.475   2.056  0.00  0.00    -0.053 A 
ATOM     24  C08 UNM d   1      18.169 -37.007   3.072  0.00  0.00    -0.031 A 
ATOM     25  C01 UNM d   1      20.718 -38.602   0.839  0.00  0.00     0.014 A 
ATOM     26  H1  UNM d   1      20.339 -39.047   2.936  0.00  0.00     0.086 H 
ATOM     27  C05 UNM d   1      20.442 -37.949  -0.351  0.00  0.00    -0.038 A 
ATOM     28 BR13 UNM d   1      22.127 -39.996   0.674  0.00  0.00    -0.051 Br
ATOM     29  H2  UNM d   1      20.987 -38.175  -1.260  0.00  0.00     0.089 H 
ATOM     30  C09 UNM d   1      17.461 -36.025   2.381  0.00  0.00     0.153 A 
ATOM     31  H3  UNM d   1      18.095 -37.299   4.119  0.00  0.00     0.089 H 
BRANCH  30  32
ATOM     32  C10 UNM d   1      16.379 -35.202   2.834  0.00  0.00     0.234 C 
ATOM     33  O11 UNM d   1      15.886 -34.361   2.021  0.00  0.00    -0.642 OA
ATOM     34  O12 UNM d   1      15.882 -35.437   4.044  0.00  0.00    -0.642 OA
ENDBRANCH  30  32
ENDBRANCH  17  19
ENDBRANCH   1  17
BRANCH   4  35
ATOM     35  N20 UNM d   1      15.681 -36.929  -4.917  0.00  0.00    -0.075 N 
ATOM     36  H14 UNM d   1      15.434 -37.860  -5.216  0.00  0.00     0.274 HD
ATOM     37  H15 UNM d   1      15.443 -36.270  -5.641  0.00  0.00     0.274 HD
ATOM     38  H16 UNM d   1      15.175 -36.701  -4.075  0.00  0.00     0.274 HD
ENDBRANCH   4  35
TORSDOF 4
