REMARK  5 active torsions:
REMARK  status: ('A' for Active; 'I' for Inactive)
REMARK    1  A    between atoms: C01_1  and  C13_13 
REMARK    2  A    between atoms: C09_9  and  C10_10 
REMARK    3  A    between atoms: C14_14  and  N19_19 
REMARK    4  A    between atoms: N19_19  and  C20_20 
REMARK    5  A    between atoms: C23_23  and  N26_26 
ROOT
ATOM      1  C13 UNQ d   1      23.416 -38.340   0.561  0.00  0.00     0.086 A 
ATOM      2  C14 UNQ d   1      23.614 -39.117   2.801  0.00  0.00     0.142 A 
ATOM      3  N15 UNQ d   1      23.442 -38.056   1.910  0.00  0.00    -0.228 NA
ATOM      4  C16 UNQ d   1      23.770 -40.445   2.333  0.00  0.00     0.046 A 
ATOM      5  C17 UNQ d   1      23.645 -39.667   0.140  0.00  0.00     0.030 A 
ATOM      6  N18 UNQ d   1      23.790 -40.711   1.014  0.00  0.00    -0.267 NA
ATOM      7  H5  UNQ d   1      23.874 -41.256   3.045  0.00  0.00     0.120 H 
ATOM      8  H6  UNQ d   1      23.709 -39.869  -0.923  0.00  0.00     0.118 H 
ENDROOT
BRANCH   2   9
ATOM      9  N19 UNQ d   1      23.603 -38.818   4.171  0.00  0.00    -0.369 N 
ATOM     10  H7  UNQ d   1      23.862 -39.525   4.874  0.00  0.00     0.161 HD
BRANCH   9  11
ATOM     11  C20 UNQ d   1      23.197 -37.422   4.577  0.00  0.00     0.011 C 
ATOM     12  C21 UNQ d   1      22.715 -37.430   6.066  0.00  0.00    -0.044 C 
ATOM     13  C22 UNQ d   1      22.465 -35.983   6.592  0.00  0.00    -0.037 C 
ATOM     14  H9  UNQ d   1      23.485 -37.909   6.689  0.00  0.00     0.036 H 
ATOM     15  H10 UNQ d   1      21.779 -38.003   6.136  0.00  0.00     0.036 H 
ATOM     16  C23 UNQ d   1      23.690 -35.052   6.389  0.00  0.00     0.100 C 
ATOM     17  H11 UNQ d   1      22.236 -36.034   7.667  0.00  0.00     0.036 H 
ATOM     18  H12 UNQ d   1      21.606 -35.556   6.054  0.00  0.00     0.036 H 
ATOM     19  C24 UNQ d   1      24.111 -35.068   4.904  0.00  0.00    -0.037 C 
ATOM     20  H13 UNQ d   1      24.518 -35.509   6.951  0.00  0.00     0.083 H 
ATOM     21  C25 UNQ d   1      24.453 -36.487   4.447  0.00  0.00    -0.044 C 
ATOM     22  H14 UNQ d   1      24.994 -34.425   4.773  0.00  0.00     0.036 H 
ATOM     23  H15 UNQ d   1      23.283 -34.682   4.291  0.00  0.00     0.036 H 
ATOM     24  H16 UNQ d   1      24.778 -36.461   3.397  0.00  0.00     0.036 H 
ATOM     25  H17 UNQ d   1      25.266 -36.883   5.073  0.00  0.00     0.036 H 
ATOM     26  H8  UNQ d   1      22.388 -37.061   3.925  0.00  0.00     0.072 H 
BRANCH  16  27
ATOM     27  N26 UNQ d   1      23.543 -33.736   6.935  0.00  0.00    -0.075 N 
ATOM     28  H18 UNQ d   1      23.268 -33.803   7.903  0.00  0.00     0.274 HD
ATOM     29  H19 UNQ d   1      22.837 -33.235   6.419  0.00  0.00     0.274 HD
ATOM     30  H20 UNQ d   1      24.420 -33.244   6.868  0.00  0.00     0.274 HD
ENDBRANCH  16  27
ENDBRANCH   9  11
ENDBRANCH   2   9
BRANCH   1  31
ATOM     31  C01 UNQ d   1      23.301 -37.315  -0.507  0.00  0.00    -0.005 A 
ATOM     32  C03 UNQ d   1      22.800 -36.059  -0.113  0.00  0.00    -0.058 A 
ATOM     33  C02 UNQ d   1      22.795 -35.080  -1.066  0.00  0.00     0.002 A 
ATOM     34  H1  UNQ d   1      22.438 -35.879   0.893  0.00  0.00     0.086 H 
ATOM     35  C04 UNQ d   1      23.257 -35.310  -2.379  0.00  0.00     0.086 A 
ATOM     36  C08 UNQ d   1      22.345 -33.673  -0.980  0.00  0.00    -0.031 A 
ATOM     37  C06 UNQ d   1      23.699 -36.573  -2.845  0.00  0.00    -0.049 A 
ATOM     38  O07 UNQ d   1      23.103 -34.169  -3.137  0.00  0.00    -0.303 OA
ATOM     39  C05 UNQ d   1      23.747 -37.534  -1.844  0.00  0.00    -0.068 A 
ATOM     40  H3  UNQ d   1      23.971 -36.769  -3.876  0.00  0.00     0.087 H 
ATOM     41  H2  UNQ d   1      24.148 -38.510  -2.094  0.00  0.00     0.085 H 
ATOM     42  C09 UNQ d   1      22.547 -33.242  -2.252  0.00  0.00     0.153 A 
ATOM     43  H4  UNQ d   1      21.955 -33.127  -0.122  0.00  0.00     0.089 H 
BRANCH  42  44
ATOM     44  C10 UNQ d   1      22.352 -31.824  -2.751  0.00  0.00     0.234 C 
ATOM     45  O11 UNQ d   1      21.843 -30.921  -2.061  0.00  0.00    -0.642 OA
ATOM     46  O12 UNQ d   1      23.021 -31.663  -3.886  0.00  0.00    -0.642 OA
ENDBRANCH  42  44
ENDBRANCH   1  31
TORSDOF 5
