REMARK WARNING: 32 MAX_TORS EXCEEDED!!!
REMARK  40 active torsions:
REMARK  status: ('A' for Active; 'I' for Inactive)
REMARK    1  A    between atoms: N_1  and  CA_2 
REMARK    2  A    between atoms: CA_2  and  C_3 
REMARK    3  A    between atoms: CA_2  and  CB_5 
REMARK       I    between atoms: C_3  and  N_6 
REMARK    4  A    between atoms: N_6  and  CA_7 
REMARK    5  A    between atoms: CA_7  and  C_8 
REMARK    6  A    between atoms: CA_7  and  CB_10 
REMARK       I    between atoms: C_8  and  N_14 
REMARK    7  A    between atoms: CB_10  and  CG_11 
REMARK    8  A    between atoms: CG_11  and  CD1_12 
REMARK    9  A    between atoms: CG_11  and  CD2_13 
REMARK   10  A    between atoms: N_14  and  CA_15 
REMARK   11  A    between atoms: CA_15  and  C_16 
REMARK   12  A    between atoms: CA_15  and  CB_18 
REMARK       I    between atoms: C_16  and  N_25 
REMARK   13  A    between atoms: CB_18  and  CG_19 
REMARK   14  A    between atoms: CG_19  and  CD_20 
REMARK   15  A    between atoms: CD_20  and  NE_21 
REMARK       I    between atoms: NE_21  and  CZ_22 
REMARK       I    between atoms: CZ_22  and  NH1_23 
REMARK   16  A    between atoms: N_25  and  CA_26 
REMARK   17  A    between atoms: CA_26  and  C_27 
REMARK   18  A    between atoms: CA_26  and  CB_29 
REMARK       I    between atoms: C_27  and  N_33 
REMARK   19  A    between atoms: CB_29  and  CG_30 
REMARK       I    between atoms: CG_30  and  ND2_32 
REMARK   20  A    between atoms: N_33  and  CA_34 
REMARK   21  A    between atoms: CA_34  and  C_35 
REMARK       I    between atoms: C_35  and  N_37 
REMARK   22  A    between atoms: N_37  and  CA_38 
REMARK   23  A    between atoms: CA_38  and  C_39 
REMARK   24  A    between atoms: CA_38  and  CB_41 
REMARK       I    between atoms: C_39  and  N_46 
REMARK   25  A    between atoms: CB_41  and  CG_42 
REMARK   26  A    between atoms: CG_42  and  CD_43 
REMARK       I    between atoms: CD_43  and  NE2_45 
REMARK   27  A    between atoms: N_46  and  CA_47 
REMARK   28  A    between atoms: CA_47  and  C_48 
REMARK   29  A    between atoms: CA_47  and  CB_50 
REMARK       I    between atoms: C_48  and  N_58 
REMARK   30  A    between atoms: CB_50  and  CG_51 
REMARK   31  A    between atoms: CZ_56  and  OH_57 
REMARK   32  A    between atoms: N_58  and  CA_59 
REMARK   33  A    between atoms: CA_59  and  C_60 
REMARK   34  A    between atoms: CA_59  and  CB_62 
REMARK       I    between atoms: C_60  and  N_72 
REMARK   35  A    between atoms: CB_62  and  CG_63 
REMARK   36  A    between atoms: N_72  and  CA_73 
REMARK   37  A    between atoms: CA_73  and  C_74 
REMARK   38  A    between atoms: CA_73  and  CB_76 
REMARK   39  A    between atoms: CB_76  and  CG1_77 
REMARK   40  A    between atoms: CB_76  and  CG2_78 
ROOT
ATOM      1  C   GLY d   1     -12.424   3.959 -14.700  0.00  0.00     0.236 C 
ATOM      2  O   GLY d   1     -12.940   4.435 -13.675  0.00  0.00    -0.272 OA
ATOM      3  N   GLN d   1     -12.936   2.907 -15.342  0.00  0.00    -0.346 N 
ATOM      4  H   GLN d   1     -12.464   2.557 -16.175  0.00  0.00     0.163 HD
ENDROOT
BRANCH   3   5
ATOM      5  CA  GLN d   1     -14.164   2.237 -14.881  0.00  0.00     0.090 C 
ATOM      6  H   GLN d   1     -14.463   2.702 -13.941  0.00  0.00     0.087 H 
BRANCH   5   7
ATOM      7  C   GLN d   1     -13.930   0.741 -14.598  0.00  0.00     0.241 C 
ATOM      8  O   GLN d   1     -12.987   0.158 -15.146  0.00  0.00    -0.271 OA
ATOM      9  N   TYR d   1     -14.775   0.150 -13.740  0.00  0.00    -0.346 N 
ATOM     10  H   TYR d   1     -15.461   0.738 -13.266  0.00  0.00     0.163 HD
BRANCH   9  11
ATOM     11  CA  TYR d   1     -14.778  -1.297 -13.436  0.00  0.00     0.093 C 
ATOM     12  H   TYR d   1     -13.805  -1.656 -13.771  0.00  0.00     0.088 H 
BRANCH  11  13
ATOM     13  C   TYR d   1     -15.870  -2.064 -14.186  0.00  0.00     0.241 C 
ATOM     14  O   TYR d   1     -17.069  -1.792 -14.020  0.00  0.00    -0.271 OA
ATOM     15  N   TRP d   1     -15.437  -3.044 -14.978  0.00  0.00    -0.346 N 
ATOM     16  H   TRP d   1     -14.439  -3.254 -14.973  0.00  0.00     0.163 HD
BRANCH  15  17
ATOM     17  CA  TRP d   1     -16.295  -3.837 -15.853  0.00  0.00     0.093 C 
ATOM     18  H   TRP d   1     -17.272  -3.353 -15.853  0.00  0.00     0.088 H 
BRANCH  17  19
ATOM     19  C   TRP d   1     -16.481  -5.261 -15.368  0.00  0.00     0.241 C 
ATOM     20  O   TRP d   1     -15.537  -5.899 -14.867  0.00  0.00    -0.271 OA
ATOM     21  N   VAL d   1     -17.706  -5.751 -15.526  0.00  0.00    -0.344 N 
ATOM     22  H   VAL d   1     -18.459  -5.114 -15.787  0.00  0.00     0.163 HD
BRANCH  21  23
ATOM     23  CA  VAL d   1     -18.016  -7.161 -15.341  0.00  0.00     0.099 C 
ATOM     24  H   VAL d   1     -17.123  -7.666 -14.971  0.00  0.00     0.090 H 
BRANCH  23  25
ATOM     25  C   VAL d   1     -18.436  -7.750 -16.693  0.00  0.00     0.197 C 
ATOM     26  O   VAL d   1     -18.772  -6.965 -17.594  0.00  0.00    -0.646 OA
ATOM     27  OXT VAL d   1     -18.422  -8.981 -16.920  0.00  0.00    -0.646 OA
ENDBRANCH  23  25
BRANCH  23  28
ATOM     28  CB  VAL d   1     -19.115  -7.394 -14.268  0.00  0.00    -0.032 C 
ATOM     29  H   VAL d   1     -19.278  -8.469 -14.194  0.00  0.00     0.042 H 
BRANCH  28  30
ATOM     30  CG1 VAL d   1     -18.664  -6.887 -12.902  0.00  0.00    -0.071 C 
ATOM     31  H   VAL d   1     -17.761  -7.418 -12.599  0.00  0.00     0.028 H 
ATOM     32  H   VAL d   1     -18.456  -5.819 -12.963  0.00  0.00     0.028 H 
ATOM     33  H   VAL d   1     -19.453  -7.064 -12.171  0.00  0.00     0.028 H 
ENDBRANCH  28  30
BRANCH  28  34
ATOM     34  CG2 VAL d   1     -20.435  -6.751 -14.675  0.00  0.00    -0.071 C 
ATOM     35  H   VAL d   1     -20.292  -5.677 -14.797  0.00  0.00     0.028 H 
ATOM     36  H   VAL d   1     -20.773  -7.183 -15.617  0.00  0.00     0.028 H 
ATOM     37  H   VAL d   1     -21.181  -6.934 -13.901  0.00  0.00     0.028 H 
ENDBRANCH  28  34
ENDBRANCH  23  28
ENDBRANCH  21  23
ENDBRANCH  17  19
BRANCH  17  38
ATOM     38  CB  TRP d   1     -15.695  -3.881 -17.257  0.00  0.00    -0.012 C 
ATOM     39  H   TRP d   1     -16.381  -4.418 -17.912  0.00  0.00     0.044 H 
ATOM     40  H   TRP d   1     -14.727  -4.380 -17.207  0.00  0.00     0.044 H 
BRANCH  38  41
ATOM     41  CG  TRP d   1     -15.498  -2.529 -17.791  0.00  0.00    -0.028 A 
ATOM     42  CD1 TRP d   1     -14.358  -1.780 -17.729  0.00  0.00    -0.015 A 
ATOM     43  NE1 TRP d   1     -14.565  -0.553 -18.308  0.00  0.00    -0.365 N 
ATOM     44  H   TRP d   1     -13.419  -2.109 -17.284  0.00  0.00     0.112 H 
ATOM     45  CE2 TRP d   1     -15.860  -0.485 -18.748  0.00  0.00     0.042 A 
ATOM     46  H   TRP d   1     -13.868   0.187 -18.396  0.00  0.00     0.165 HD
ATOM     47  CD2 TRP d   1     -16.479  -1.717 -18.432  0.00  0.00    -0.002 A 
ATOM     48  CZ2 TRP d   1     -16.538   0.554 -19.400  0.00  0.00    -0.056 A 
ATOM     49  CE3 TRP d   1     -17.824  -1.908 -18.774  0.00  0.00    -0.070 A 
ATOM     50  CZ3 TRP d   1     -18.503  -0.865 -19.424  0.00  0.00    -0.082 A 
ATOM     51  H   TRP d   1     -18.331  -2.844 -18.541  0.00  0.00     0.084 H 
ATOM     52  CH2 TRP d   1     -17.856   0.348 -19.722  0.00  0.00    -0.081 A 
ATOM     53  H   TRP d   1     -19.549  -0.997 -19.702  0.00  0.00     0.083 H 
ATOM     54  H   TRP d   1     -18.414   1.141 -20.220  0.00  0.00     0.083 H 
ATOM     55  H   TRP d   1     -16.037   1.491 -19.642  0.00  0.00     0.086 H 
ENDBRANCH  38  41
ENDBRANCH  17  38
ENDBRANCH  15  17
ENDBRANCH  11  13
BRANCH  11  56
ATOM     56  CB  TYR d   1     -14.946  -1.565 -11.932  0.00  0.00    -0.014 C 
ATOM     57  H   TYR d   1     -14.956  -2.647 -11.801  0.00  0.00     0.043 H 
ATOM     58  H   TYR d   1     -15.861  -1.061 -11.620  0.00  0.00     0.043 H 
BRANCH  56  59
ATOM     59  CG  TYR d   1     -13.830  -1.027 -11.067  0.00  0.00    -0.056 A 
ATOM     60  CD1 TYR d   1     -12.690  -1.778 -10.816  0.00  0.00    -0.074 A 
ATOM     61  CE1 TYR d   1     -11.680  -1.291 -10.024  0.00  0.00    -0.051 A 
ATOM     62  H   TYR d   1     -12.595  -2.771 -11.255  0.00  0.00     0.084 H 
ATOM     63  CZ  TYR d   1     -11.799  -0.029  -9.468  0.00  0.00     0.065 A 
ATOM     64  H   TYR d   1     -10.791  -1.893  -9.835  0.00  0.00     0.087 H 
ATOM     65  CE2 TYR d   1     -12.921   0.730  -9.698  0.00  0.00    -0.051 A 
ATOM     66  CD2 TYR d   1     -13.926   0.232 -10.488  0.00  0.00    -0.074 A 
ATOM     67  H   TYR d   1     -13.012   1.722  -9.255  0.00  0.00     0.087 H 
ATOM     68  H   TYR d   1     -14.816   0.836 -10.665  0.00  0.00     0.084 H 
BRANCH  63  69
ATOM     69  OH  TYR d   1     -10.805   0.477  -8.667  0.00  0.00    -0.361 OA
ATOM     70  H   TYR d   1     -10.092  -0.163  -8.601  0.00  0.00     0.217 HD
ENDBRANCH  63  69
ENDBRANCH  56  59
ENDBRANCH  11  56
ENDBRANCH   9  11
ENDBRANCH   5   7
BRANCH   5  71
ATOM     71  CB  GLN d   1     -15.287   2.421 -15.914  0.00  0.00    -0.030 C 
ATOM     72  H   GLN d   1     -16.088   1.742 -15.622  0.00  0.00     0.037 H 
ATOM     73  H   GLN d   1     -14.840   2.236 -16.891  0.00  0.00     0.037 H 
BRANCH  71  74
ATOM     74  CG  GLN d   1     -15.914   3.829 -15.982  0.00  0.00     0.011 C 
ATOM     75  H   GLN d   1     -15.140   4.527 -16.301  0.00  0.00     0.047 H 
ATOM     76  H   GLN d   1     -16.310   4.069 -14.995  0.00  0.00     0.047 H 
BRANCH  74  77
ATOM     77  CD  GLN d   1     -17.078   3.909 -16.997  0.00  0.00     0.215 C 
ATOM     78  OE1 GLN d   1     -16.871   3.851 -18.219  0.00  0.00    -0.274 OA
ATOM     79  NE2 GLN d   1     -18.305   4.040 -16.482  0.00  0.00    -0.370 N 
ATOM     80  H   GLN d   1     -19.114   4.096 -17.100  0.00  0.00     0.159 HD
ATOM     81  H   GLN d   1     -18.432   4.084 -15.471  0.00  0.00     0.159 HD
ENDBRANCH  74  77
ENDBRANCH  71  74
ENDBRANCH   5  71
ENDBRANCH   3   5
BRANCH   1  82
ATOM     82  CA  GLY d   1     -11.153   4.571 -15.277  0.00  0.00     0.069 C 
ATOM     83  H   GLY d   1     -11.421   5.599 -15.523  0.00  0.00     0.078 H 
ATOM     84  H   GLY d   1     -10.387   4.393 -14.523  0.00  0.00     0.078 H 
BRANCH  82  85
ATOM     85  N   GLY d   1     -10.600   4.016 -16.518  0.00  0.00    -0.351 N 
ATOM     86  C   ASN d   1     -11.086   4.346 -17.717  0.00  0.00     0.241 C 
ATOM     87  O   ASN d   1     -12.091   5.046 -17.864  0.00  0.00    -0.271 OA
ATOM     88  H   GLY d   1      -9.822   3.359 -16.463  0.00  0.00     0.163 HD
BRANCH  86  89
ATOM     89  CA  ASN d   1     -10.345   3.789 -18.939  0.00  0.00     0.097 C 
ATOM     90  H   ASN d   1      -9.408   4.343 -18.981  0.00  0.00     0.088 H 
BRANCH  89  91
ATOM     91  N   ASN d   1      -9.990   2.370 -18.826  0.00  0.00    -0.346 N 
ATOM     92  C   ARG d   1     -10.812   1.414 -18.395  0.00  0.00     0.241 C 
ATOM     93  O   ARG d   1     -11.987   1.581 -18.110  0.00  0.00    -0.271 OA
ATOM     94  H   ASN d   1      -9.046   2.095 -19.097  0.00  0.00     0.163 HD
BRANCH  92  95
ATOM     95  CA  ARG d   1     -10.197   0.058 -18.242  0.00  0.00     0.089 C 
ATOM     96  H   ARG d   1      -9.112   0.067 -18.348  0.00  0.00     0.087 H 
BRANCH  95  97
ATOM     97  N   ARG d   1     -10.555  -0.408 -16.901  0.00  0.00    -0.346 N 
ATOM     98  C   LEU d   1      -9.770  -1.228 -16.212  0.00  0.00     0.241 C 
ATOM     99  O   LEU d   1      -8.670  -1.620 -16.629  0.00  0.00    -0.271 OA
ATOM    100  H   ARG d   1     -11.432  -0.094 -16.485  0.00  0.00     0.163 HD
BRANCH  98 101
ATOM    101  CA  LEU d   1     -10.331  -1.710 -14.875  0.00  0.00     0.089 C 
ATOM    102  H   LEU d   1     -11.329  -1.293 -14.740  0.00  0.00     0.087 H 
BRANCH 101 103
ATOM    103  N   LEU d   1     -10.377  -3.154 -14.899  0.00  0.00    -0.346 N 
ATOM    104  C   ALA d   1     -11.527  -3.827 -14.937  0.00  0.00     0.248 C 
ATOM    105  O   ALA d   1     -12.644  -3.296 -14.810  0.00  0.00    -0.271 OA
ATOM    106  H   LEU d   1      -9.501  -3.676 -14.886  0.00  0.00     0.163 HD
BRANCH 104 107
ATOM    107  CA  ALA d   1     -11.389  -5.333 -15.123  0.00  0.00     0.172 C 
ATOM    108  H   ALA d   1     -10.618  -5.699 -14.445  0.00  0.00     0.098 H 
BRANCH 107 109
ATOM    109  N   ALA d   1     -12.639  -5.997 -14.802  0.00  0.00    -0.067 N 
ATOM    110  H   ALA d   1     -12.905  -5.773 -13.843  0.00  0.00     0.275 HD
ATOM    111  H   ALA d   1     -13.366  -5.677 -15.442  0.00  0.00     0.275 HD
ATOM    112  H   ALA d   1     -12.521  -7.006 -14.896  0.00  0.00     0.275 HD
ENDBRANCH 107 109
BRANCH 107 113
ATOM    113  CB  ALA d   1     -10.972  -5.650 -16.542  0.00  0.00    -0.042 C 
ATOM    114  H   ALA d   1     -11.725  -5.273 -17.234  0.00  0.00     0.030 H 
ATOM    115  H   ALA d   1     -10.014  -5.175 -16.752  0.00  0.00     0.030 H 
ATOM    116  H   ALA d   1     -10.878  -6.730 -16.659  0.00  0.00     0.030 H 
ENDBRANCH 107 113
ENDBRANCH 104 107
ENDBRANCH 101 103
BRANCH 101 117
ATOM    117  CB  LEU d   1      -9.485  -1.235 -13.699  0.00  0.00    -0.035 C 
ATOM    118  H   LEU d   1      -8.527  -1.742 -13.814  0.00  0.00     0.037 H 
ATOM    119  H   LEU d   1     -10.084  -1.448 -12.813  0.00  0.00     0.037 H 
BRANCH 117 120
ATOM    120  CG  LEU d   1      -9.140   0.250 -13.600  0.00  0.00    -0.059 C 
ATOM    121  H   LEU d   1      -8.903   0.638 -14.591  0.00  0.00     0.038 H 
BRANCH 120 122
ATOM    122  CD1 LEU d   1     -10.342   1.084 -13.104  0.00  0.00    -0.073 C 
ATOM    123  H   LEU d   1     -11.174   0.970 -13.800  0.00  0.00     0.028 H 
ATOM    124  H   LEU d   1     -10.642   0.734 -12.116  0.00  0.00     0.028 H 
ATOM    125  H   LEU d   1     -10.055   2.134 -13.047  0.00  0.00     0.028 H 
ENDBRANCH 120 122
BRANCH 120 126
ATOM    126  CD2 LEU d   1      -7.909   0.405 -12.697  0.00  0.00    -0.073 C 
ATOM    127  H   LEU d   1      -8.134   0.008 -11.707  0.00  0.00     0.028 H 
ATOM    128  H   LEU d   1      -7.072  -0.144 -13.129  0.00  0.00     0.028 H 
ATOM    129  H   LEU d   1      -7.650   1.461 -12.616  0.00  0.00     0.028 H 
ENDBRANCH 120 126
ENDBRANCH 117 120
ENDBRANCH 101 117
ENDBRANCH  98 101
ENDBRANCH  95  97
BRANCH  95 130
ATOM    130  CB  ARG d   1     -10.757  -0.851 -19.331  0.00  0.00    -0.036 C 
ATOM    131  H   ARG d   1     -10.860  -0.229 -20.220  0.00  0.00     0.036 H 
ATOM    132  H   ARG d   1     -11.675  -1.277 -18.926  0.00  0.00     0.036 H 
BRANCH 130 133
ATOM    133  CG  ARG d   1      -9.899  -2.022 -19.739  0.00  0.00    -0.048 C 
ATOM    134  H   ARG d   1      -9.973  -2.795 -18.974  0.00  0.00     0.035 H 
ATOM    135  H   ARG d   1      -8.869  -1.681 -19.848  0.00  0.00     0.035 H 
BRANCH 133 136
ATOM    136  CD  ARG d   1     -10.372  -2.607 -21.081  0.00  0.00     0.009 C 
ATOM    137  H   ARG d   1     -10.147  -3.674 -21.093  0.00  0.00     0.064 H 
ATOM    138  H   ARG d   1      -9.858  -2.085 -21.888  0.00  0.00     0.064 H 
BRANCH 136 139
ATOM    139  NE  ARG d   1     -11.817  -2.432 -21.258  0.00  0.00    -0.227 N 
ATOM    140  CZ  ARG d   1     -12.749  -3.270 -20.806  0.00  0.00     0.665 C 
ATOM    141  NH1 ARG d   1     -12.406  -4.380 -20.154  0.00  0.00    -0.235 N 
ATOM    142  NH2 ARG d   1     -14.031  -2.991 -21.009  0.00  0.00    -0.235 N 
ATOM    143  H   ARG d   1     -11.421  -4.595 -19.997  0.00  0.00     0.174 HD
ATOM    144  H   ARG d   1     -13.128  -5.014 -19.812  0.00  0.00     0.174 HD
ATOM    145  H   ARG d   1     -14.295  -2.141 -21.507  0.00  0.00     0.174 HD
ATOM    146  H   ARG d   1     -14.752  -3.627 -20.667  0.00  0.00     0.174 HD
ATOM    147  H   ARG d   1     -12.133  -1.606 -21.766  0.00  0.00     0.177 HD
ENDBRANCH 136 139
ENDBRANCH 133 136
ENDBRANCH 130 133
ENDBRANCH  95 130
ENDBRANCH  92  95
ENDBRANCH  89  91
BRANCH  89 148
ATOM    148  CB  ASN d   1     -11.146   4.024 -20.228  0.00  0.00     0.036 C 
ATOM    149  H   ASN d   1     -11.143   5.093 -20.438  0.00  0.00     0.051 H 
ATOM    150  H   ASN d   1     -12.153   3.636 -20.076  0.00  0.00     0.051 H 
BRANCH 148 151
ATOM    151  CG  ASN d   1     -10.540   3.308 -21.419  0.00  0.00     0.217 C 
ATOM    152  OD1 ASN d   1      -9.410   3.588 -21.814  0.00  0.00    -0.274 OA
ATOM    153  ND2 ASN d   1     -11.284   2.363 -21.987  0.00  0.00    -0.370 N 
ATOM    154  H   ASN d   1     -10.921   1.838 -22.783  0.00  0.00     0.159 HD
ATOM    155  H   ASN d   1     -12.217   2.163 -21.627  0.00  0.00     0.159 HD
ENDBRANCH 148 151
ENDBRANCH  89 148
ENDBRANCH  86  89
ENDBRANCH  82  85
ENDBRANCH   1  82
TORSDOF 40
