REMARK  7 active torsions:
REMARK  status: ('A' for Active; 'I' for Inactive)
REMARK    1  A    between atoms: C3_3  and  C7_7 
REMARK    2  A    between atoms: C7_7  and  P8_8 
REMARK    3  A    between atoms: C7_7  and  C12_12 
REMARK    4  A    between atoms: C12_12  and  C13_13 
REMARK    5  A    between atoms: C13_13  and  C14_14 
REMARK       I    between atoms: C14_14  and  N16_16 
REMARK    6  A    between atoms: N16_16  and  C17_17 
REMARK    7  A    between atoms: N16_16  and  O18_18 
ROOT
ATOM      1  C7  C0K d   1       8.807  -5.403  37.027  0.00  0.00     0.081 C 
ATOM      2  H4  C0K d   1       8.442  -5.144  36.022  0.00  0.00     0.069 H 
ENDROOT
BRANCH   1   3
ATOM      3  C3  C0K d   1       9.640  -4.209  37.427  0.00  0.00    -0.038 A 
ATOM      4  C2  C0K d   1      10.565  -4.167  38.506  0.00  0.00    -0.073 A 
ATOM      5  C1  C0K d   1      11.281  -2.976  38.781  0.00  0.00    -0.042 A 
ATOM      6  H2  C0K d   1      10.723  -5.047  39.119  0.00  0.00     0.084 H 
ATOM      7  C6  C0K d   1      11.056  -1.838  37.964  0.00  0.00     0.154 A 
ATOM      8  H1  C0K d   1      11.988  -2.935  39.601  0.00  0.00     0.088 H 
ATOM      9  C5  C0K d   1      10.138  -1.882  36.913  0.00  0.00     0.155 A 
ATOM     10  F20 C0K d   1      11.686  -0.653  38.121  0.00  0.00    -0.203 F 
ATOM     11  C4  C0K d   1       9.428  -3.066  36.638  0.00  0.00    -0.035 A 
ATOM     12  F19 C0K d   1       9.948  -0.744  36.186  0.00  0.00    -0.203 F 
ATOM     13  H3  C0K d   1       8.719  -3.096  35.819  0.00  0.00     0.089 H 
ENDBRANCH   1   3
BRANCH   1  14
ATOM     14  P8  C0K d   1       9.768  -6.952  36.690  0.00  0.00     0.268 P 
ATOM     15  O9  C0K d   1      10.778  -7.190  37.837  0.00  0.00    -0.639 OA
ATOM     16  O10 C0K d   1       8.766  -8.069  36.523  0.00  0.00    -0.639 OA
ATOM     17  O11 C0K d   1      10.448  -6.684  35.384  0.00  0.00    -0.639 OA
ENDBRANCH   1  14
BRANCH   1  18
ATOM     18  C12 C0K d   1       7.496  -5.440  37.868  0.00  0.00    -0.038 C 
ATOM     19  H5  C0K d   1       7.712  -5.188  38.916  0.00  0.00     0.035 H 
ATOM     20  H6  C0K d   1       7.043  -6.441  37.818  0.00  0.00     0.035 H 
BRANCH  18  21
ATOM     21  C13 C0K d   1       6.532  -4.386  37.253  0.00  0.00     0.013 C 
ATOM     22  H7  C0K d   1       7.104  -3.449  37.184  0.00  0.00     0.047 H 
ATOM     23  H8  C0K d   1       5.710  -4.262  37.974  0.00  0.00     0.047 H 
BRANCH  21  24
ATOM     24  C14 C0K d   1       5.861  -4.595  35.855  0.00  0.00     0.242 C 
ATOM     25  O15 C0K d   1       5.773  -5.732  35.337  0.00  0.00    -0.271 OA
ATOM     26  N16 C0K d   1       5.370  -3.485  35.193  0.00  0.00    -0.233 N 
BRANCH  26  27
ATOM     27  C17 C0K d   1       5.434  -2.064  35.613  0.00  0.00     0.009 C 
ATOM     28  H9  C0K d   1       4.946  -1.435  34.854  0.00  0.00     0.060 H 
ATOM     29  H10 C0K d   1       6.486  -1.760  35.720  0.00  0.00     0.060 H 
ATOM     30  H11 C0K d   1       4.918  -1.943  36.577  0.00  0.00     0.060 H 
ENDBRANCH  26  27
BRANCH  26  31
ATOM     31  O18 C0K d   1       4.685  -3.673  34.000  0.00  0.00    -0.285 OA
ATOM     32  H12 C0K d   1       4.677  -4.598  33.783  0.00  0.00     0.245 HD
ENDBRANCH  26  31
ENDBRANCH  21  24
ENDBRANCH  18  21
ENDBRANCH   1  18
TORSDOF 7
