REMARK  6 active torsions:
REMARK  status: ('A' for Active; 'I' for Inactive)
REMARK    1  A    between atoms: C2_2  and  NAT_23 
REMARK    2  A    between atoms: CAV_25  and  NAS_22 
REMARK    3  A    between atoms: NAS_22  and  CAZ_28 
REMARK    4  A    between atoms: NAT_23  and  CBE_31 
REMARK    5  A    between atoms: CAW_26  and  CAU_24 
REMARK    6  A    between atoms: CAX_27  and  CBF_32 
ROOT
ATOM      1  N1  FU9 d   1      23.421 -29.478  10.420  0.00  0.00    -0.074 NA
ATOM      2  C2  FU9 d   1      23.434 -28.488  11.339  0.00  0.00     0.723 A 
ATOM      3  N3  FU9 d   1      23.310 -28.750  12.649  0.00  0.00    -0.058 NA
ATOM      4  C4  FU9 d   1      23.185 -30.006  13.072  0.00  0.00     0.134 A 
ATOM      5  C5  FU9 d   1      23.147 -31.045  12.151  0.00  0.00     0.028 A 
ATOM      6  C6  FU9 d   1      23.287 -30.744  10.797  0.00  0.00     0.034 A 
ATOM      7  CAI FU9 d   1      22.800 -34.725  12.202  0.00  0.00    -0.066 A 
ATOM      8  CAJ FU9 d   1      22.968 -33.433  11.721  0.00  0.00    -0.069 A 
ATOM      9  CAM FU9 d   1      22.708 -33.870  14.448  0.00  0.00    -0.038 A 
ATOM     10  NAQ FU9 d   1      22.885 -31.520  14.849  0.00  0.00    -0.228 NA
ATOM     11  CAW FU9 d   1      22.708 -34.950  13.574  0.00  0.00     0.043 A 
ATOM     12  CAZ FU9 d   1      23.093 -30.247  14.432  0.00  0.00     0.159 A 
ATOM     13  CBA FU9 d   1      22.874 -32.568  13.978  0.00  0.00     0.071 A 
ATOM     14  CBB FU9 d   1      22.996 -32.352  12.609  0.00  0.00     0.007 A 
ATOM     15  H1  FU9 d   1      23.287 -31.537  10.058  0.00  0.00     0.117 H 
ATOM     16  H5  FU9 d   1      22.741 -35.558  11.511  0.00  0.00     0.085 H 
ATOM     17  H6  FU9 d   1      23.078 -33.262  10.656  0.00  0.00     0.085 H 
ATOM     18  H8  FU9 d   1      22.577 -34.042  15.510  0.00  0.00     0.088 H 
ENDROOT
BRANCH  12  19
ATOM     19  NAS FU9 d   1      22.985 -29.154  15.196  0.00  0.00    -0.339 N 
ATOM     20  H13 FU9 d   1      22.985 -28.261  14.683  0.00  0.00     0.167 HD
BRANCH  19  21
ATOM     21  CAV FU9 d   1      22.877 -29.044  16.527  0.00  0.00     0.034 C 
ATOM     22  CAG FU9 d   1      22.777 -27.761  17.049  0.00  0.00    -0.057 C 
ATOM     23  CAF FU9 d   1      22.594 -27.556  18.409  0.00  0.00    -0.080 C 
ATOM     24  H3  FU9 d   1      22.843 -26.907  16.384  0.00  0.00     0.086 H 
ATOM     25  CAH FU9 d   1      22.658 -28.643  19.269  0.00  0.00    -0.068 C 
ATOM     26  H2  FU9 d   1      22.404 -26.561  18.794  0.00  0.00     0.083 H 
ATOM     27  CAX FU9 d   1      22.843 -29.925  18.771  0.00  0.00     0.050 C 
ATOM     28  H4  FU9 d   1      22.563 -28.490  20.338  0.00  0.00     0.084 H 
ATOM     29  CAL FU9 d   1      22.973 -30.130  17.400  0.00  0.00    -0.043 C 
ATOM     30  H7  FU9 d   1      23.148 -31.127  17.012  0.00  0.00     0.088 H 
BRANCH  27  31
ATOM     31  CBF FU9 d   1      22.914 -31.103  19.747  0.00  0.00     0.417 C 
ATOM     32  FAC FU9 d   1      24.116 -31.123  20.289  0.00  0.00    -0.166 F 
ATOM     33  FAD FU9 d   1      22.009 -30.950  20.696  0.00  0.00    -0.166 F 
ATOM     34  FAE FU9 d   1      22.714 -32.258  19.128  0.00  0.00    -0.166 F 
ENDBRANCH  27  31
ENDBRANCH  19  21
ENDBRANCH  12  19
BRANCH   2  35
ATOM     35  NAT FU9 d   1      23.580 -27.216  10.980  0.00  0.00    -0.218 N 
ATOM     36  H14 FU9 d   1      23.678 -26.952   9.989  0.00  0.00     0.178 HD
BRANCH  35  37
ATOM     37  CBE FU9 d   1      23.598 -26.197  12.040  0.00  0.00     0.026 A 
ATOM     38  CAN FU9 d   1      23.500 -24.762  11.531  0.00  0.00    -0.044 A 
ATOM     39  CAO FU9 d   1      24.834 -25.307  12.063  0.00  0.00    -0.044 A 
ATOM     40  H9  FU9 d   1      23.374 -24.566  10.456  0.00  0.00     0.036 H 
ATOM     41  H10 FU9 d   1      22.943 -24.010  12.108  0.00  0.00     0.036 H 
ATOM     42  H11 FU9 d   1      25.234 -24.945  13.022  0.00  0.00     0.036 H 
ATOM     43  H12 FU9 d   1      25.665 -25.501  11.369  0.00  0.00     0.036 H 
ATOM     44  H15 FU9 d   1      23.100 -26.535  12.960  0.00  0.00     0.073 H 
ENDBRANCH  35  37
ENDBRANCH   2  35
BRANCH  11  45
ATOM     45  CAU FU9 d   1      22.486 -36.365  14.101  0.00  0.00     0.209 C 
ATOM     46  OAA FU9 d   1      22.464 -36.547  15.342  0.00  0.00    -0.644 OA
ATOM     47  OAB FU9 d   1      22.086 -37.214  13.268  0.00  0.00    -0.644 OA
ENDBRANCH  11  45
TORSDOF 6
