REMARK  22 active torsions:
REMARK  status: ('A' for Active; 'I' for Inactive)
REMARK    1  A    between atoms: C37_4  and  C39_1 
REMARK       I    between atoms: N36_9  and  C37_4 
REMARK    2  A    between atoms: C32_10  and  N36_9 
REMARK    3  A    between atoms: C32_10  and  C33_11 
REMARK    4  A    between atoms: C30_14  and  C32_10 
REMARK    5  A    between atoms: C33_11  and  C34_12 
REMARK    6  A    between atoms: C33_11  and  C35_13 
REMARK       I    between atoms: N29_16  and  C30_14 
REMARK    7  A    between atoms: C21_17  and  N29_16 
REMARK    8  A    between atoms: C21_17  and  C22_18 
REMARK    9  A    between atoms: C19_25  and  C21_17 
REMARK   10  A    between atoms: C22_18  and  C23_19 
REMARK   11  A    between atoms: C19_25  and  O20_26 
REMARK   12  A    between atoms: C18_27  and  C19_25 
REMARK   13  A    between atoms: C16_28  and  C18_27 
REMARK       I    between atoms: N15_31  and  C16_28 
REMARK   14  A    between atoms: C12_34  and  C10_30 
REMARK       I    between atoms: C10_30  and  N09_36 
REMARK   15  A    between atoms: C12_34  and  N15_31 
REMARK   16  A    between atoms: C12_34  and  C13_35 
REMARK   17  A    between atoms: N09_36  and  C05_37 
REMARK   18  A    between atoms: C05_37  and  C06_38 
REMARK   19  A    between atoms: C05_37  and  C04_40 
REMARK       I    between atoms: C06_38  and  N08_44 
REMARK   20  A    between atoms: C04_40  and  C02_41 
REMARK   21  A    between atoms: C02_41  and  C01_42 
REMARK   22  A    between atoms: C02_41  and  C03_43 
ROOT
ATOM      1  C21 RSY d   1      16.348   8.435  -0.671  0.00  0.00     0.041 C 
ATOM      2  H15 RSY d   1      15.437   8.710  -1.223  0.00  0.00     0.076 H 
ENDROOT
BRANCH   1   3
ATOM      3  N29 RSY d   1      16.564   9.418   0.403  0.00  0.00    -0.352 N 
ATOM      4  C30 RSY d   1      17.418   9.362   1.432  0.00  0.00     0.241 C 
ATOM      5  O31 RSY d   1      18.154   8.420   1.652  0.00  0.00    -0.271 OA
ATOM      6  H14 RSY d   1      15.995  10.239   0.358  0.00  0.00     0.163 HD
BRANCH   4   7
ATOM      7  C32 RSY d   1      17.436  10.537   2.377  0.00  0.00     0.092 C 
ATOM      8  H6  RSY d   1      17.731  10.157   3.366  0.00  0.00     0.088 H 
BRANCH   7   9
ATOM      9  N36 RSY d   1      16.139  11.199   2.492  0.00  0.00    -0.342 N 
ATOM     10  C37 RSY d   1      15.249  11.055   3.485  0.00  0.00     0.271 C 
ATOM     11  O38 RSY d   1      14.205  11.688   3.435  0.00  0.00    -0.266 OA
ATOM     12  H5  RSY d   1      15.889  11.825   1.753  0.00  0.00     0.163 HD
BRANCH  10  13
ATOM     13  C39 RSY d   1      15.460  10.145   4.673  0.00  0.00     0.123 A 
ATOM     14  C40 RSY d   1      14.473  10.059   5.658  0.00  0.00    -0.050 A 
ATOM     15  C41 RSY d   1      14.654   9.226   6.754  0.00  0.00    -0.079 A 
ATOM     16  H4  RSY d   1      13.565  10.643   5.566  0.00  0.00     0.087 H 
ATOM     17  C42 RSY d   1      15.825   8.486   6.850  0.00  0.00    -0.066 A 
ATOM     18  H3  RSY d   1      13.893   9.155   7.523  0.00  0.00     0.083 H 
ATOM     19  C43 RSY d   1      16.787   8.597   5.855  0.00  0.00     0.003 A 
ATOM     20  H2  RSY d   1      15.987   7.827   7.695  0.00  0.00     0.085 H 
ATOM     21  N44 RSY d   1      16.591   9.407   4.804  0.00  0.00    -0.256 NA
ATOM     22  H1  RSY d   1      17.704   8.024   5.928  0.00  0.00     0.114 H 
ENDBRANCH  10  13
ENDBRANCH   7   9
BRANCH   7  23
ATOM     23  C33 RSY d   1      18.421  11.645   1.956  0.00  0.00    -0.033 C 
ATOM     24  H7  RSY d   1      18.161  12.525   2.562  0.00  0.00     0.042 H 
BRANCH  23  25
ATOM     25  C34 RSY d   1      18.301  12.081   0.493  0.00  0.00    -0.071 C 
ATOM     26  H8  RSY d   1      19.038  12.870   0.284  0.00  0.00     0.028 H 
ATOM     27  H9  RSY d   1      17.288  12.467   0.307  0.00  0.00     0.028 H 
ATOM     28  H10 RSY d   1      18.491  11.219  -0.163  0.00  0.00     0.028 H 
ENDBRANCH  23  25
BRANCH  23  29
ATOM     29  C35 RSY d   1      19.869  11.292   2.292  0.00  0.00    -0.071 C 
ATOM     30  H11 RSY d   1      19.936  10.982   3.345  0.00  0.00     0.028 H 
ATOM     31  H12 RSY d   1      20.509  12.172   2.128  0.00  0.00     0.028 H 
ATOM     32  H13 RSY d   1      20.205  10.468   1.645  0.00  0.00     0.028 H 
ENDBRANCH  23  29
ENDBRANCH   7  23
ENDBRANCH   4   7
ENDBRANCH   1   3
BRANCH   1  33
ATOM     33  C22 RSY d   1      17.552   8.558  -1.610  0.00  0.00    -0.020 C 
ATOM     34  H16 RSY d   1      17.909   7.556  -1.891  0.00  0.00     0.043 H 
ATOM     35  H17 RSY d   1      18.361   9.108  -1.108  0.00  0.00     0.043 H 
BRANCH  33  36
ATOM     36  C23 RSY d   1      17.113   9.309  -2.843  0.00  0.00    -0.056 A 
ATOM     37  C28 RSY d   1      16.212   8.731  -3.739  0.00  0.00    -0.077 A 
ATOM     38  C27 RSY d   1      15.805   9.436  -4.867  0.00  0.00    -0.082 A 
ATOM     39  H18 RSY d   1      15.830   7.733  -3.556  0.00  0.00     0.084 H 
ATOM     40  C26 RSY d   1      16.299  10.716  -5.102  0.00  0.00    -0.083 A 
ATOM     41  H20 RSY d   1      15.104   8.989  -5.562  0.00  0.00     0.083 H 
ATOM     42  C25 RSY d   1      17.193  11.294  -4.205  0.00  0.00    -0.082 A 
ATOM     43  H22 RSY d   1      15.987  11.263  -5.984  0.00  0.00     0.083 H 
ATOM     44  C24 RSY d   1      17.602  10.591  -3.078  0.00  0.00    -0.077 A 
ATOM     45  H21 RSY d   1      17.571  12.294  -4.386  0.00  0.00     0.083 H 
ATOM     46  H19 RSY d   1      18.301  11.041  -2.382  0.00  0.00     0.084 H 
ENDBRANCH  33  36
ENDBRANCH   1  33
BRANCH   1  47
ATOM     47  C19 RSY d   1      16.157   7.002  -0.147  0.00  0.00     0.063 C 
ATOM     48  H23 RSY d   1      15.795   6.403  -0.996  0.00  0.00     0.086 H 
BRANCH  47  49
ATOM     49  O20 RSY d   1      17.384   6.404   0.298  0.00  0.00    -0.393 OA
ATOM     50  H24 RSY d   1      17.751   6.925   1.003  0.00  0.00     0.210 HD
ENDBRANCH  47  49
BRANCH  47  51
ATOM     51  C18 RSY d   1      15.101   6.910   0.950  0.00  0.00     0.035 C 
ATOM     52  H25 RSY d   1      14.479   7.817   0.944  0.00  0.00     0.051 H 
ATOM     53  H26 RSY d   1      15.591   6.808   1.929  0.00  0.00     0.051 H 
BRANCH  51  54
ATOM     54  C16 RSY d   1      14.240   5.702   0.683  0.00  0.00     0.220 C 
ATOM     55  O17 RSY d   1      14.689   4.579   0.852  0.00  0.00    -0.274 OA
ATOM     56  N15 RSY d   1      12.995   5.950   0.279  0.00  0.00    -0.347 N 
ATOM     57  H27 RSY d   1      12.705   6.902   0.178  0.00  0.00     0.163 HD
BRANCH  56  58
ATOM     58  C12 RSY d   1      12.038   4.893  -0.022  0.00  0.00     0.101 C 
ATOM     59  H28 RSY d   1      12.558   3.933  -0.158  0.00  0.00     0.089 H 
BRANCH  58  60
ATOM     60  C10 RSY d   1      11.269   5.222  -1.266  0.00  0.00     0.242 C 
ATOM     61  O11 RSY d   1      11.346   4.488  -2.236  0.00  0.00    -0.271 OA
ATOM     62  N09 RSY d   1      10.539   6.339  -1.223  0.00  0.00    -0.346 N 
ATOM     63  H31 RSY d   1      10.566   6.876  -0.380  0.00  0.00     0.163 HD
BRANCH  62  64
ATOM     64  C05 RSY d   1       9.704   6.838  -2.311  0.00  0.00     0.089 C 
ATOM     65  H32 RSY d   1       8.783   6.239  -2.370  0.00  0.00     0.087 H 
BRANCH  64  66
ATOM     66  C06 RSY d   1      10.374   6.814  -3.660  0.00  0.00     0.238 C 
ATOM     67  O07 RSY d   1      11.557   7.093  -3.786  0.00  0.00    -0.271 OA
ATOM     68  N08 RSY d   1       9.606   6.463  -4.689  0.00  0.00    -0.368 N 
ATOM     69  H42 RSY d   1       9.991   6.428  -5.611  0.00  0.00     0.159 HD
ATOM     70  H43 RSY d   1       8.644   6.235  -4.540  0.00  0.00     0.159 HD
ENDBRANCH  64  66
BRANCH  64  71
ATOM     71  C04 RSY d   1       9.375   8.279  -1.912  0.00  0.00    -0.035 C 
ATOM     72  H33 RSY d   1       8.962   8.784  -2.798  0.00  0.00     0.037 H 
ATOM     73  H34 RSY d   1      10.316   8.766  -1.618  0.00  0.00     0.037 H 
BRANCH  71  74
ATOM     74  C02 RSY d   1       8.372   8.468  -0.757  0.00  0.00    -0.059 C 
ATOM     75  H35 RSY d   1       7.669   9.252  -1.074  0.00  0.00     0.038 H 
BRANCH  74  76
ATOM     76  C01 RSY d   1       7.528   7.226  -0.427  0.00  0.00    -0.073 C 
ATOM     77  H36 RSY d   1       6.846   7.457   0.405  0.00  0.00     0.028 H 
ATOM     78  H37 RSY d   1       8.192   6.398  -0.138  0.00  0.00     0.028 H 
ATOM     79  H38 RSY d   1       6.942   6.935  -1.311  0.00  0.00     0.028 H 
ENDBRANCH  74  76
BRANCH  74  80
ATOM     80  C03 RSY d   1       9.099   8.976   0.502  0.00  0.00    -0.073 C 
ATOM     81  H39 RSY d   1       9.697   9.864   0.247  0.00  0.00     0.028 H 
ATOM     82  H40 RSY d   1       9.761   8.186   0.887  0.00  0.00     0.028 H 
ATOM     83  H41 RSY d   1       8.359   9.241   1.271  0.00  0.00     0.028 H 
ENDBRANCH  74  80
ENDBRANCH  71  74
ENDBRANCH  64  71
ENDBRANCH  62  64
ENDBRANCH  58  60
BRANCH  58  84
ATOM     84  C13 RSY d   1      11.104   4.823   1.186  0.00  0.00     0.029 C 
ATOM     85 CL14 RSY d   1       9.614   3.905   0.799  0.00  0.00    -0.128 Cl
ATOM     86  H29 RSY d   1      11.627   4.325   2.016  0.00  0.00     0.060 H 
ATOM     87  H30 RSY d   1      10.828   5.845   1.486  0.00  0.00     0.060 H 
ENDBRANCH  58  84
ENDBRANCH  56  58
ENDBRANCH  51  54
ENDBRANCH  47  51
ENDBRANCH   1  47
TORSDOF 22
