REMARK  9 active torsions:
REMARK  status: ('A' for Active; 'I' for Inactive)
REMARK    1  A    between atoms: S_1  and  C1_2 
REMARK    2  A    between atoms: N1_3  and  S_1 
REMARK    3  A    between atoms: N1_3  and  C2_5 
REMARK    4  A    between atoms: C4_10  and  N1_3 
REMARK    5  A    between atoms: C2_5  and  C3_8 
REMARK    6  A    between atoms: C3_8  and  N2_6 
REMARK    7  A    between atoms: C7_16  and  N3_9 
REMARK    8  A    between atoms: N3_9  and  C8_18 
REMARK    9  A    between atoms: N5_13  and  C10_21 
ROOT
ATOM      1  N4  D36 d   1       4.767  31.075   6.834  0.00  0.00    -0.042 NA
ATOM      2  N5  D36 d   1       6.287  29.163   7.270  0.00  0.00    -0.246 N 
ATOM      3  N6  D36 d   1       6.739  28.508   8.431  0.00  0.00    -0.182 NA
ATOM      4  N7  D36 d   1       3.809  31.977   8.791  0.00  0.00    -0.074 NA
ATOM      5  C8  D36 d   1       3.957  31.988   7.427  0.00  0.00     0.728 A 
ATOM      6  C9  D36 d   1       5.431  30.155   7.546  0.00  0.00     0.178 A 
ATOM      7  C17 D36 d   1       6.120  29.093   9.484  0.00  0.00     0.037 A 
ATOM      8  C18 D36 d   1       5.309  30.134   8.900  0.00  0.00     0.049 A 
ATOM      9  C19 D36 d   1       4.469  31.076   9.529  0.00  0.00     0.036 A 
ATOM     10  H   D36 d   1       6.214  28.835  10.539  0.00  0.00     0.118 H 
ATOM     11  H   D36 d   1       4.357  31.070  10.613  0.00  0.00     0.117 H 
ENDROOT
BRANCH   5  12
ATOM     12  N3  D36 d   1       3.296  32.904   6.658  0.00  0.00    -0.187 N 
ATOM     13  H   D36 d   1       2.748  33.596   7.168  0.00  0.00     0.184 HD
BRANCH  12  14
ATOM     14  C7  D36 d   1       3.272  33.016   5.302  0.00  0.00     0.067 A 
ATOM     15  C6  D36 d   1       4.155  32.374   4.413  0.00  0.00    -0.052 A 
ATOM     16  C5  D36 d   1       3.998  32.604   3.026  0.00  0.00    -0.036 A 
ATOM     17  H   D36 d   1       4.941  31.716   4.784  0.00  0.00     0.087 H 
ATOM     18  C4  D36 d   1       2.974  33.498   2.560  0.00  0.00     0.138 A 
ATOM     19  H   D36 d   1       4.653  32.104   2.312  0.00  0.00     0.089 H 
ATOM     20  N8  D36 d   1       2.166  34.114   3.446  0.00  0.00    -0.240 NA
ATOM     21  C20 D36 d   1       2.292  33.870   4.773  0.00  0.00     0.031 A 
ATOM     22  H   D36 d   1       1.601  34.359   5.460  0.00  0.00     0.118 H 
BRANCH  18  23
ATOM     23  N1  D36 d   1       2.775  33.757   1.199  0.00  0.00    -0.258 N 
BRANCH  23  24
ATOM     24  S   D36 d   1       3.805  34.655   0.486  0.00  0.00     0.230 S 
ATOM     25  O1  D36 d   1       4.724  35.307   1.411  0.00  0.00    -0.206 OA
ATOM     26  O2  D36 d   1       4.640  33.824  -0.313  0.00  0.00    -0.206 OA
BRANCH  24  27
ATOM     27  C1  D36 d   1       3.121  35.863  -0.439  0.00  0.00     0.033 C 
ATOM     28  H   D36 d   1       2.590  36.559   0.210  0.00  0.00     0.051 H 
ATOM     29  H   D36 d   1       3.905  36.393  -0.979  0.00  0.00     0.051 H 
ATOM     30  H   D36 d   1       2.422  35.423  -1.150  0.00  0.00     0.051 H 
ENDBRANCH  24  27
ENDBRANCH  23  24
BRANCH  23  31
ATOM     31  C2  D36 d   1       1.633  33.137   0.490  0.00  0.00     0.034 C 
ATOM     32  H   D36 d   1       1.355  33.732  -0.380  0.00  0.00     0.068 H 
ATOM     33  H   D36 d   1       0.761  33.086   1.142  0.00  0.00     0.068 H 
BRANCH  31  34
ATOM     34  C3  D36 d   1       2.071  31.721   0.060  0.00  0.00     0.095 C 
ATOM     35  H   D36 d   1       1.641  31.022   0.777  0.00  0.00     0.077 H 
ATOM     36  H   D36 d   1       3.160  31.721   0.026  0.00  0.00     0.077 H 
BRANCH  34  37
ATOM     37  N2  D36 d   1       1.595  31.311  -1.284  0.00  0.00    -0.078 N 
ATOM     38  H   D36 d   1       1.927  30.368  -1.488  0.00  0.00     0.274 HD
ATOM     39  H   D36 d   1       0.575  31.325  -1.301  0.00  0.00     0.274 HD
ATOM     40  H   D36 d   1       1.956  31.959  -1.984  0.00  0.00     0.274 HD
ENDBRANCH  34  37
ENDBRANCH  31  34
ENDBRANCH  23  31
ENDBRANCH  18  23
ENDBRANCH  12  14
ENDBRANCH   5  12
BRANCH   2  41
ATOM     41  C10 D36 d   1       6.879  28.617   6.017  0.00  0.00     0.036 C 
ATOM     42  C11 D36 d   1       7.914  29.672   5.553  0.00  0.00    -0.044 C 
ATOM     43  C12 D36 d   1       7.760  30.256   4.136  0.00  0.00    -0.063 C 
ATOM     44  H   D36 d   1       8.874  29.156   5.552  0.00  0.00     0.036 H 
ATOM     45  H   D36 d   1       7.791  30.517   6.230  0.00  0.00     0.036 H 
ATOM     46  C13 D36 d   1       8.073  29.271   3.003  0.00  0.00    -0.065 C 
ATOM     47  H   D36 d   1       8.473  31.076   4.051  0.00  0.00     0.033 H 
ATOM     48  H   D36 d   1       6.716  30.549   4.024  0.00  0.00     0.033 H 
ATOM     49  C14 D36 d   1       6.748  28.541   2.689  0.00  0.00    -0.065 C 
ATOM     50  H   D36 d   1       8.850  28.566   3.299  0.00  0.00     0.033 H 
ATOM     51  H   D36 d   1       8.453  29.791   2.124  0.00  0.00     0.033 H 
ATOM     52  C15 D36 d   1       6.355  27.544   3.811  0.00  0.00    -0.063 C 
ATOM     53  H   D36 d   1       6.879  27.980   1.764  0.00  0.00     0.033 H 
ATOM     54  H   D36 d   1       5.959  29.288   2.604  0.00  0.00     0.033 H 
ATOM     55  C16 D36 d   1       5.766  28.261   5.020  0.00  0.00    -0.044 C 
ATOM     56  H   D36 d   1       7.252  27.014   4.129  0.00  0.00     0.033 H 
ATOM     57  H   D36 d   1       5.603  26.861   3.416  0.00  0.00     0.033 H 
ATOM     58  H   D36 d   1       5.276  29.177   4.689  0.00  0.00     0.036 H 
ATOM     59  H   D36 d   1       5.045  27.605   5.508  0.00  0.00     0.036 H 
ATOM     60  H   D36 d   1       7.405  27.671   6.141  0.00  0.00     0.076 H 
ENDBRANCH   2  41
TORSDOF 9
