REMARK  6 active torsions:
REMARK  status: ('A' for Active; 'I' for Inactive)
REMARK    1  A    between atoms: N1_1  and  S_13 
REMARK    2  A    between atoms: C2_16  and  N1_1 
REMARK    3  A    between atoms: C5_4  and  N2_20 
REMARK    4  A    between atoms: N2_20  and  C6_5 
REMARK    5  A    between atoms: N4_24  and  C8_7 
REMARK    6  A    between atoms: S_13  and  C1_15 
ROOT
ATOM      1  N3  D37 d   1      -4.369 -30.546   7.033  0.00  0.00    -0.042 NA
ATOM      2  C6  D37 d   1      -3.665 -31.412   7.773  0.00  0.00     0.728 A 
ATOM      3  C7  D37 d   1      -5.187 -29.661   7.648  0.00  0.00     0.178 A 
ATOM      4  C15 D37 d   1      -6.203 -28.623   9.464  0.00  0.00     0.037 A 
ATOM      5  C17 D37 d   1      -4.559 -30.520   9.784  0.00  0.00     0.036 A 
ATOM      6  N6  D37 d   1      -3.764 -31.385   9.131  0.00  0.00    -0.074 NA
ATOM      7  C16 D37 d   1      -5.295 -29.628   9.022  0.00  0.00     0.049 A 
ATOM      8  N5  D37 d   1      -6.640 -28.059   8.303  0.00  0.00    -0.182 NA
ATOM      9  N4  D37 d   1      -6.007 -28.700   7.224  0.00  0.00    -0.246 N 
ATOM     10  H   D37 d   1      -6.481 -28.367  10.486  0.00  0.00     0.118 H 
ATOM     11  H   D37 d   1      -4.622 -30.521  10.872  0.00  0.00     0.117 H 
ENDROOT
BRANCH   2  12
ATOM     12  N2  D37 d   1      -2.847 -32.298   7.173  0.00  0.00    -0.187 N 
ATOM     13  H   D37 d   1      -2.153 -32.739   7.777  0.00  0.00     0.184 HD
BRANCH  12  14
ATOM     14  C5  D37 d   1      -2.824 -32.681   5.874  0.00  0.00     0.067 A 
ATOM     15  C4  D37 d   1      -3.901 -32.538   5.017  0.00  0.00    -0.052 A 
ATOM     16  C3  D37 d   1      -3.773 -32.977   3.700  0.00  0.00    -0.036 A 
ATOM     17  H   D37 d   1      -4.832 -32.090   5.365  0.00  0.00     0.087 H 
ATOM     18  C2  D37 d   1      -2.578 -33.560   3.258  0.00  0.00     0.136 A 
ATOM     19  H   D37 d   1      -4.609 -32.866   3.009  0.00  0.00     0.089 H 
ATOM     20  N7  D37 d   1      -1.553 -33.702   4.120  0.00  0.00    -0.240 NA
ATOM     21  C18 D37 d   1      -1.661 -33.278   5.387  0.00  0.00     0.031 A 
ATOM     22  H   D37 d   1      -0.812 -33.404   6.059  0.00  0.00     0.118 H 
BRANCH  18  23
ATOM     23  N1  D37 d   1      -2.414 -34.008   1.993  0.00  0.00    -0.269 N 
ATOM     24  H   D37 d   1      -1.635 -34.642   1.816  0.00  0.00     0.180 HD
BRANCH  23  25
ATOM     25  S   D37 d   1      -3.354 -33.617   0.743  0.00  0.00     0.228 S 
ATOM     26  O2  D37 d   1      -4.729 -33.417   1.138  0.00  0.00    -0.206 OA
ATOM     27  O1  D37 d   1      -3.345 -34.719  -0.192  0.00  0.00    -0.206 OA
BRANCH  25  28
ATOM     28  C1  D37 d   1      -2.743 -32.231   0.041  0.00  0.00     0.033 C 
ATOM     29  H   D37 d   1      -3.333 -31.981  -0.840  0.00  0.00     0.051 H 
ATOM     30  H   D37 d   1      -2.792 -31.411   0.757  0.00  0.00     0.051 H 
ATOM     31  H   D37 d   1      -1.706 -32.400  -0.251  0.00  0.00     0.051 H 
ENDBRANCH  25  28
ENDBRANCH  23  25
ENDBRANCH  18  23
ENDBRANCH  12  14
ENDBRANCH   2  12
BRANCH   9  32
ATOM     32  C8  D37 d   1      -6.387 -28.191   5.886  0.00  0.00     0.036 C 
ATOM     33  C14 D37 d   1      -5.139 -28.014   5.028  0.00  0.00    -0.044 C 
ATOM     34  C13 D37 d   1      -5.409 -27.092   3.849  0.00  0.00    -0.063 C 
ATOM     35  H   D37 d   1      -4.838 -28.989   4.645  0.00  0.00     0.036 H 
ATOM     36  H   D37 d   1      -4.354 -27.573   5.642  0.00  0.00     0.036 H 
ATOM     37  C12 D37 d   1      -5.915 -27.863   2.637  0.00  0.00    -0.065 C 
ATOM     38  H   D37 d   1      -4.476 -26.599   3.578  0.00  0.00     0.033 H 
ATOM     39  H   D37 d   1      -6.174 -26.373   4.143  0.00  0.00     0.033 H 
ATOM     40  C11 D37 d   1      -7.314 -28.395   2.895  0.00  0.00    -0.065 C 
ATOM     41  H   D37 d   1      -5.246 -28.702   2.445  0.00  0.00     0.033 H 
ATOM     42  H   D37 d   1      -5.942 -27.194   1.777  0.00  0.00     0.033 H 
ATOM     43  C10 D37 d   1      -7.224 -29.573   3.844  0.00  0.00    -0.063 C 
ATOM     44  H   D37 d   1      -7.930 -27.612   3.337  0.00  0.00     0.033 H 
ATOM     45  H   D37 d   1      -7.766 -28.712   1.956  0.00  0.00     0.033 H 
ATOM     46  C9  D37 d   1      -7.412 -29.174   5.310  0.00  0.00    -0.044 C 
ATOM     47  H   D37 d   1      -6.229 -30.007   3.742  0.00  0.00     0.033 H 
ATOM     48  H   D37 d   1      -8.020 -30.271   3.584  0.00  0.00     0.033 H 
ATOM     49  H   D37 d   1      -8.377 -28.671   5.365  0.00  0.00     0.036 H 
ATOM     50  H   D37 d   1      -7.309 -30.092   5.889  0.00  0.00     0.036 H 
ATOM     51  H   D37 d   1      -6.848 -27.204   5.926  0.00  0.00     0.076 H 
ENDBRANCH   9  32
TORSDOF 6
