REMARK  3 active torsions:
REMARK  status: ('A' for Active; 'I' for Inactive)
REMARK    1  A    between atoms: CAN_14  and  OAE_5 
REMARK    2  A    between atoms: CAO_15  and  OAF_6 
REMARK    3  A    between atoms: CAM_13  and  CAL_12 
ROOT
ATOM      1  OAB RHN d   1     -49.686  -9.302   1.471  0.00  0.00    -0.287 OA
ATOM      2  OAC RHN d   1     -52.048 -11.787  -2.535  0.00  0.00    -0.286 OA
ATOM      3  CAG RHN d   1     -51.981  -7.061  -1.118  0.00  0.00    -0.079 A 
ATOM      4  CAH RHN d   1     -52.603  -7.715  -2.177  0.00  0.00    -0.050 A 
ATOM      5  CAI RHN d   1     -51.197  -7.789  -0.224  0.00  0.00    -0.068 A 
ATOM      6  CAJ RHN d   1     -49.743 -14.035   0.074  0.00  0.00    -0.034 A 
ATOM      7  CAK RHN d   1     -49.292 -11.997   1.270  0.00  0.00    -0.051 A 
ATOM      8  CAM RHN d   1     -49.121 -13.376   1.129  0.00  0.00     0.044 A 
ATOM      9  CAN RHN d   1     -52.434  -9.090  -2.324  0.00  0.00     0.080 A 
ATOM     10  CAO RHN d   1     -50.525 -13.311  -0.823  0.00  0.00     0.082 A 
ATOM     11  CAP RHN d   1     -50.237  -9.885   0.535  0.00  0.00     0.194 A 
ATOM     12  CAQ RHN d   1     -51.494 -11.211  -1.596  0.00  0.00     0.199 A 
ATOM     13  CAR RHN d   1     -51.026  -9.169  -0.371  0.00  0.00     0.032 A 
ATOM     14  CAS RHN d   1     -50.080 -11.267   0.371  0.00  0.00     0.033 A 
ATOM     15  CAT RHN d   1     -51.652  -9.831  -1.433  0.00  0.00     0.062 A 
ATOM     16  CAU RHN d   1     -50.706 -11.929  -0.690  0.00  0.00     0.062 A 
ATOM     17  H   RHN d   1     -52.106  -5.986  -0.988  0.00  0.00     0.083 H 
ATOM     18  H   RHN d   1     -53.216  -7.157  -2.885  0.00  0.00     0.087 H 
ATOM     19  H   RHN d   1     -50.709  -7.274   0.603  0.00  0.00     0.085 H 
ATOM     20  H   RHN d   1     -49.619 -15.111  -0.050  0.00  0.00     0.089 H 
ATOM     21  H   RHN d   1     -48.803 -11.479   2.095  0.00  0.00     0.086 H 
ENDROOT
BRANCH   8  22
ATOM     22  CAL RHN d   1     -48.336 -14.092   2.033  0.00  0.00     0.209 C 
ATOM     23  OAA RHN d   1     -47.365 -14.769   1.627  0.00  0.00    -0.644 OA
ATOM     24  OAD RHN d   1     -48.602 -14.065   3.254  0.00  0.00    -0.644 OA
ENDBRANCH   8  22
BRANCH  10  25
ATOM     25  OAF RHN d   1     -51.145 -13.926  -1.866  0.00  0.00    -0.360 OA
ATOM     26  H   RHN d   1     -51.636 -13.275  -2.374  0.00  0.00     0.217 HD
ENDBRANCH  10  25
BRANCH   9  27
ATOM     27  OAE RHN d   1     -53.021  -9.776  -3.339  0.00  0.00    -0.360 OA
ATOM     28  H   RHN d   1     -52.788 -10.705  -3.272  0.00  0.00     0.217 HD
ENDBRANCH   9  27
TORSDOF 3
