REMARK  2 active torsions:
REMARK  status: ('A' for Active; 'I' for Inactive)
REMARK    1  A    between atoms: C14_14  and  C16_16 
REMARK    2  A    between atoms: C20_20  and  C22_22 
ROOT
ATOM      1  C1  05B d   1      -8.936 -52.470  10.667  0.00  0.00     0.022 A 
ATOM      2  C2  05B d   1      -9.309 -51.031  11.075  0.00  0.00     0.008 A 
ATOM      3  N3  05B d   1      -8.365 -50.277  11.893  0.00  0.00    -0.356 N 
ATOM      4  C4  05B d   1      -7.227 -50.760  12.442  0.00  0.00     0.253 A 
ATOM      5  N5  05B d   1     -11.080 -53.339   8.935  0.00  0.00    -0.075 N 
ATOM      6  C6  05B d   1     -10.018 -53.457  11.142  0.00  0.00    -0.029 C 
ATOM      7  C7  05B d   1      -8.761 -52.581   9.140  0.00  0.00    -0.029 C 
ATOM      8  C8  05B d   1     -10.085 -52.431   8.373  0.00  0.00     0.083 C 
ATOM      9  C9  05B d   1     -11.334 -53.293  10.372  0.00  0.00     0.083 C 
ATOM     10  O10 05B d   1      -6.551 -50.082  13.192  0.00  0.00    -0.268 OA
ATOM     11  C11 05B d   1      -7.638 -52.932  11.288  0.00  0.00     0.036 A 
ATOM     12  C12 05B d   1      -6.846 -52.140  12.117  0.00  0.00     0.057 A 
ATOM     13  C13 05B d   1      -5.730 -52.898  12.497  0.00  0.00    -0.038 A 
ATOM     14  C14 05B d   1      -5.870 -54.116  11.904  0.00  0.00     0.062 A 
ATOM     15  N15 05B d   1      -7.036 -54.114  11.175  0.00  0.00    -0.356 N 
ATOM     16  H   05B d   1     -10.204 -51.130  11.689  0.00  0.00     0.065 H 
ATOM     17  H   05B d   1      -9.383 -50.478  10.139  0.00  0.00     0.065 H 
ATOM     18  H   05B d   1      -8.583 -49.296  12.067  0.00  0.00     0.162 HD
ATOM     19  H   05B d   1     -10.716 -54.275   8.759  0.00  0.00     0.277 HD
ATOM     20  H   05B d   1     -11.962 -53.069   8.500  0.00  0.00     0.277 HD
ATOM     21  H   05B d   1     -10.216 -53.260  12.196  0.00  0.00     0.037 H 
ATOM     22  H   05B d   1      -9.651 -54.469  10.972  0.00  0.00     0.037 H 
ATOM     23  H   05B d   1      -8.361 -53.571   8.922  0.00  0.00     0.037 H 
ATOM     24  H   05B d   1      -8.099 -51.776   8.822  0.00  0.00     0.037 H 
ATOM     25  H   05B d   1     -10.441 -51.404   8.460  0.00  0.00     0.075 H 
ATOM     26  H   05B d   1      -9.925 -52.673   7.322  0.00  0.00     0.075 H 
ATOM     27  H   05B d   1     -12.011 -54.103  10.643  0.00  0.00     0.075 H 
ATOM     28  H   05B d   1     -11.781 -52.332  10.627  0.00  0.00     0.075 H 
ATOM     29  H   05B d   1      -4.911 -52.576  13.140  0.00  0.00     0.088 H 
ATOM     30  H   05B d   1      -7.387 -54.901  10.629  0.00  0.00     0.166 HD
ENDROOT
BRANCH  14  31
ATOM     31  C16 05B d   1      -4.953 -55.266  12.001  0.00  0.00     0.087 A 
ATOM     32  C17 05B d   1      -4.106 -55.441  13.102  0.00  0.00    -0.036 A 
ATOM     33  C18 05B d   1      -3.278 -56.552  13.114  0.00  0.00     0.007 A 
ATOM     34  H   05B d   1      -4.098 -54.725  13.924  0.00  0.00     0.089 H 
ATOM     35  N19 05B d   1      -3.304 -57.413  12.100  0.00  0.00    -0.241 NA
ATOM     36  H   05B d   1      -2.605 -56.721  13.955  0.00  0.00     0.114 H 
ATOM     37  C20 05B d   1      -4.122 -57.223  11.064  0.00  0.00     0.160 A 
ATOM     38  N21 05B d   1      -4.929 -56.169  11.017  0.00  0.00    -0.226 NA
BRANCH  37  39
ATOM     39  C22 05B d   1      -4.155 -58.184   9.932  0.00  0.00     0.015 A 
ATOM     40  C23 05B d   1      -2.994 -58.846   9.511  0.00  0.00    -0.067 A 
ATOM     41  C24 05B d   1      -3.047 -59.736   8.453  0.00  0.00    -0.047 A 
ATOM     42  H   05B d   1      -2.047 -58.660  10.018  0.00  0.00     0.085 H 
ATOM     43  C27 05B d   1      -4.249 -59.977   7.800  0.00  0.00     0.105 A 
ATOM     44  H   05B d   1      -2.142 -60.250   8.131  0.00  0.00     0.087 H 
ATOM     45  C26 05B d   1      -5.411 -59.319   8.211  0.00  0.00     0.105 A 
ATOM     46  O28 05B d   1      -4.564 -60.786   6.746  0.00  0.00    -0.323 OA
ATOM     47  C25 05B d   1      -5.363 -58.428   9.268  0.00  0.00    -0.034 A 
ATOM     48  O30 05B d   1      -6.444 -59.724   7.412  0.00  0.00    -0.323 OA
ATOM     49  H   05B d   1      -6.270 -57.913   9.585  0.00  0.00     0.089 H 
ATOM     50  C29 05B d   1      -5.812 -60.276   6.237  0.00  0.00     0.115 C 
ATOM     51  H   05B d   1      -6.416 -61.045   5.755  0.00  0.00     0.118 H 
ATOM     52  H   05B d   1      -5.675 -59.538   5.447  0.00  0.00     0.118 H 
ENDBRANCH  37  39
ENDBRANCH  14  31
TORSDOF 2
