REMARK  21 active torsions:
REMARK  status: ('A' for Active; 'I' for Inactive)
REMARK    1  A    between atoms: C27_27  and  C9_9 
REMARK    2  A    between atoms: C28_28  and  C10_10 
REMARK    3  A    between atoms: C14_14  and  C23_23 
REMARK       I    between atoms: N39_39  and  C14_14 
REMARK    4  A    between atoms: C15_15  and  C33_33 
REMARK       I    between atoms: N40_40  and  C15_15 
REMARK    5  A    between atoms: C20_20  and  O45_45 
REMARK    6  A    between atoms: C34_34  and  C21_21 
REMARK    7  A    between atoms: C22_22  and  C29_29 
REMARK    8  A    between atoms: C22_22  and  N39_39 
REMARK    9  A    between atoms: C30_30  and  C24_24 
REMARK   10  A    between atoms: C35_35  and  C25_25 
REMARK   11  A    between atoms: C35_35  and  C26_26 
REMARK   12  A    between atoms: C31_31  and  C27_27 
REMARK   13  A    between atoms: C36_36  and  C28_28 
REMARK   14  A    between atoms: C29_29  and  C35_35 
REMARK   15  A    between atoms: C32_32  and  C30_30 
REMARK   16  A    between atoms: C33_33  and  C31_31 
REMARK   17  A    between atoms: O45_45  and  C32_32 
REMARK   18  A    between atoms: C33_33  and  N38_38 
REMARK   19  A    between atoms: C36_36  and  C34_34 
REMARK   20  A    between atoms: C34_34  and  O44_44 
REMARK   21  A    between atoms: C36_36  and  N40_40 
ROOT
ATOM      1  C33 PB0 d   1      -2.101  15.859  29.659  0.00  0.00     0.092 C 
ATOM      2  H   PB0 d   1      -1.800  16.857  29.977  0.00  0.00     0.087 H 
ENDROOT
BRANCH   1   3
ATOM      3  C15 PB0 d   1      -3.267  15.418  30.508  0.00  0.00     0.241 C 
ATOM      4  N40 PB0 d   1      -3.104  15.329  31.845  0.00  0.00    -0.352 N 
ATOM      5  H   PB0 d   1      -2.200  15.570  32.250  0.00  0.00     0.163 HD
ATOM      6  O43 PB0 d   1      -4.341  15.144  30.003  0.00  0.00    -0.271 OA
BRANCH   4   7
ATOM      7  C36 PB0 d   1      -4.187  14.896  32.732  0.00  0.00     0.043 C 
ATOM      8  H   PB0 d   1      -5.013  14.508  32.136  0.00  0.00     0.077 H 
BRANCH   7   9
ATOM      9  C28 PB0 d   1      -3.676  13.779  33.667  0.00  0.00    -0.020 C 
ATOM     10  H   PB0 d   1      -2.870  14.207  34.262  0.00  0.00     0.043 H 
ATOM     11  H   PB0 d   1      -4.533  13.432  34.244  0.00  0.00     0.043 H 
BRANCH   9  12
ATOM     12  C10 PB0 d   1      -3.102  12.565  32.952  0.00  0.00    -0.050 A 
ATOM     13  C6  PB0 d   1      -3.795  11.961  31.907  0.00  0.00    -0.039 A 
ATOM     14  C11 PB0 d   1      -3.287  10.851  31.245  0.00  0.00     0.119 A 
ATOM     15  H   PB0 d   1      -4.759  12.369  31.601  0.00  0.00     0.089 H 
ATOM     16  C8  PB0 d   1      -2.071  10.299  31.607  0.00  0.00    -0.009 A 
ATOM     17  F46 PB0 d   1      -3.987  10.299  30.253  0.00  0.00    -0.206 F 
ATOM     18  C12 PB0 d   1      -1.358  10.895  32.646  0.00  0.00     0.119 A 
ATOM     19  H   PB0 d   1      -1.681   9.421  31.093  0.00  0.00     0.092 H 
ATOM     20  C7  PB0 d   1      -1.875  12.017  33.316  0.00  0.00    -0.039 A 
ATOM     21  F47 PB0 d   1      -0.165  10.373  32.995  0.00  0.00    -0.206 F 
ATOM     22  H   PB0 d   1      -1.308  12.464  34.132  0.00  0.00     0.089 H 
ENDBRANCH   9  12
ENDBRANCH   7   9
BRANCH   7  23
ATOM     23  C34 PB0 d   1      -4.692  16.100  33.563  0.00  0.00     0.083 C 
ATOM     24  H   PB0 d   1      -3.799  16.471  34.067  0.00  0.00     0.089 H 
BRANCH  23  25
ATOM     25  C21 PB0 d   1      -5.263  17.269  32.734  0.00  0.00     0.131 C 
ATOM     26  C17 PB0 d   1      -6.419  16.873  31.792  0.00  0.00    -0.010 C 
ATOM     27  C20 PB0 d   1      -7.485  17.963  31.912  0.00  0.00     0.063 C 
ATOM     28  H   PB0 d   1      -6.067  16.788  30.764  0.00  0.00     0.040 H 
ATOM     29  H   PB0 d   1      -6.827  15.901  32.069  0.00  0.00     0.040 H 
ATOM     30  C19 PB0 d   1      -6.720  19.066  32.635  0.00  0.00     0.106 C 
ATOM     31  H   PB0 d   1      -7.931  18.242  30.957  0.00  0.00     0.086 H 
ATOM     32  N37 PB0 d   1      -5.881  18.307  33.616  0.00  0.00    -0.066 N 
ATOM     33  H   PB0 d   1      -7.377  19.792  33.114  0.00  0.00     0.079 H 
ATOM     34  H   PB0 d   1      -6.127  19.681  31.959  0.00  0.00     0.079 H 
ATOM     35  H   PB0 d   1      -6.412  17.919  34.395  0.00  0.00     0.277 HD
ATOM     36  H   PB0 d   1      -5.199  18.886  34.106  0.00  0.00     0.277 HD
ATOM     37  H   PB0 d   1      -4.398  17.619  32.170  0.00  0.00     0.088 H 
BRANCH  27  38
ATOM     38  O45 PB0 d   1      -8.524  17.526  32.791  0.00  0.00    -0.384 OA
BRANCH  38  39
ATOM     39  C32 PB0 d   1      -9.755  17.094  32.184  0.00  0.00     0.020 C 
ATOM     40  H   PB0 d   1     -10.479  17.909  32.187  0.00  0.00     0.074 H 
ATOM     41  H   PB0 d   1      -9.578  16.797  31.150  0.00  0.00     0.074 H 
BRANCH  39  42
ATOM     42  C30 PB0 d   1     -10.299  15.902  32.989  0.00  0.00    -0.049 C 
ATOM     43  H   PB0 d   1     -11.105  15.445  32.415  0.00  0.00     0.035 H 
ATOM     44  H   PB0 d   1      -9.476  15.210  33.167  0.00  0.00     0.035 H 
BRANCH  42  45
ATOM     45  C24 PB0 d   1     -10.865  16.331  34.349  0.00  0.00    -0.075 C 
ATOM     46  H   PB0 d   1     -10.078  16.805  34.935  0.00  0.00     0.027 H 
ATOM     47  H   PB0 d   1     -11.681  17.037  34.195  0.00  0.00     0.027 H 
ATOM     48  H   PB0 d   1     -11.237  15.454  34.879  0.00  0.00     0.027 H 
ENDBRANCH  42  45
ENDBRANCH  39  42
ENDBRANCH  38  39
ENDBRANCH  27  38
ENDBRANCH  23  25
BRANCH  23  49
ATOM     49  O44 PB0 d   1      -5.691  15.688  34.501  0.00  0.00    -0.391 OA
ATOM     50  H   PB0 d   1      -5.318  15.035  35.097  0.00  0.00     0.210 HD
ENDBRANCH  23  49
ENDBRANCH   7  23
ENDBRANCH   4   7
ENDBRANCH   1   3
BRANCH   1  51
ATOM     51  C31 PB0 d   1      -2.440  16.032  28.182  0.00  0.00    -0.034 C 
ATOM     52  H   PB0 d   1      -2.533  15.053  27.713  0.00  0.00     0.037 H 
ATOM     53  H   PB0 d   1      -3.383  16.571  28.086  0.00  0.00     0.037 H 
BRANCH  51  54
ATOM     54  C27 PB0 d   1      -1.325  16.825  27.493  0.00  0.00    -0.039 C 
ATOM     55  H   PB0 d   1      -1.374  17.857  27.839  0.00  0.00     0.040 H 
ATOM     56  H   PB0 d   1      -0.370  16.360  27.741  0.00  0.00     0.040 H 
BRANCH  54  57
ATOM     57  C9  PB0 d   1      -1.480  16.820  25.994  0.00  0.00    -0.058 A 
ATOM     58  C4  PB0 d   1      -2.188  17.857  25.381  0.00  0.00    -0.077 A 
ATOM     59  C2  PB0 d   1      -2.348  17.893  23.994  0.00  0.00    -0.082 A 
ATOM     60  H   PB0 d   1      -2.621  18.648  25.993  0.00  0.00     0.084 H 
ATOM     61  C1  PB0 d   1      -1.792  16.870  23.225  0.00  0.00    -0.083 A 
ATOM     62  H   PB0 d   1      -2.898  18.706  23.520  0.00  0.00     0.083 H 
ATOM     63  C3  PB0 d   1      -1.082  15.825  23.845  0.00  0.00    -0.082 A 
ATOM     64  H   PB0 d   1      -1.908  16.880  22.141  0.00  0.00     0.083 H 
ATOM     65  C5  PB0 d   1      -0.920  15.795  25.235  0.00  0.00    -0.077 A 
ATOM     66  H   PB0 d   1      -0.653  15.030  23.235  0.00  0.00     0.083 H 
ATOM     67  H   PB0 d   1      -0.367  14.986  25.713  0.00  0.00     0.084 H 
ENDBRANCH  54  57
ENDBRANCH  51  54
ENDBRANCH   1  51
BRANCH   1  68
ATOM     68  N38 PB0 d   1      -1.014  14.908  29.865  0.00  0.00    -0.336 N 
ATOM     69  C13 PB0 d   1       0.240  15.219  30.215  0.00  0.00     0.249 C 
ATOM     70  C22 PB0 d   1       1.045  13.960  30.385  0.00  0.00     0.115 C 
ATOM     71  O41 PB0 d   1       0.651  16.340  30.416  0.00  0.00    -0.271 OA
ATOM     72  C16 PB0 d   1       0.265  12.885  29.618  0.00  0.00    -0.018 C 
ATOM     73  C18 PB0 d   1      -1.154  13.448  29.739  0.00  0.00     0.001 C 
ATOM     74  H   PB0 d   1       0.602  12.730  28.593  0.00  0.00     0.039 H 
ATOM     75  H   PB0 d   1       0.384  11.876  30.012  0.00  0.00     0.039 H 
ATOM     76  H   PB0 d   1      -1.668  13.029  30.604  0.00  0.00     0.064 H 
ATOM     77  H   PB0 d   1      -1.754  13.187  28.867  0.00  0.00     0.064 H 
BRANCH  70  78
ATOM     78  C29 PB0 d   1       0.907  13.528  31.851  0.00  0.00    -0.030 C 
ATOM     79  H   PB0 d   1       0.409  12.560  31.794  0.00  0.00     0.037 H 
ATOM     80  H   PB0 d   1       0.429  14.381  32.333  0.00  0.00     0.037 H 
BRANCH  78  81
ATOM     81  C35 PB0 d   1       2.135  13.260  32.712  0.00  0.00    -0.059 C 
ATOM     82  H   PB0 d   1       2.840  14.088  32.638  0.00  0.00     0.039 H 
BRANCH  81  83
ATOM     83  C25 PB0 d   1       1.610  13.033  34.135  0.00  0.00    -0.073 C 
ATOM     84  H   PB0 d   1       0.907  12.200  34.133  0.00  0.00     0.028 H 
ATOM     85  H   PB0 d   1       2.445  12.803  34.797  0.00  0.00     0.028 H 
ATOM     86  H   PB0 d   1       1.106  13.935  34.483  0.00  0.00     0.028 H 
ENDBRANCH  81  83
BRANCH  81  87
ATOM     87  C26 PB0 d   1       2.828  11.977  32.271  0.00  0.00    -0.073 C 
ATOM     88  H   PB0 d   1       3.651  11.758  32.951  0.00  0.00     0.028 H 
ATOM     89  H   PB0 d   1       2.112  11.155  32.288  0.00  0.00     0.028 H 
ATOM     90  H   PB0 d   1       3.215  12.104  31.260  0.00  0.00     0.028 H 
ENDBRANCH  81  87
ENDBRANCH  78  81
ENDBRANCH  70  78
BRANCH  70  91
ATOM     91  N39 PB0 d   1       2.415  14.041  29.845  0.00  0.00    -0.343 N 
ATOM     92  C14 PB0 d   1       2.773  14.424  28.601  0.00  0.00     0.214 C 
ATOM     93  O42 PB0 d   1       1.992  14.777  27.731  0.00  0.00    -0.274 OA
ATOM     94  H   PB0 d   1       3.171  13.780  30.478  0.00  0.00     0.163 HD
BRANCH  92  95
ATOM     95  C23 PB0 d   1       4.239  14.428  28.235  0.00  0.00    -0.003 C 
ATOM     96  H   PB0 d   1       4.404  13.754  27.395  0.00  0.00     0.040 H 
ATOM     97  H   PB0 d   1       4.540  15.438  27.956  0.00  0.00     0.040 H 
ATOM     98  H   PB0 d   1       4.827  14.095  29.091  0.00  0.00     0.040 H 
ENDBRANCH  92  95
ENDBRANCH  70  91
ENDBRANCH   1  68
TORSDOF 21
