REMARK  2 active torsions:
REMARK  status: ('A' for Active; 'I' for Inactive)
REMARK    1  A    between atoms: C18_10  and  C14_11 
REMARK    2  A    between atoms: C12_16  and  C2_17 
ROOT
ATOM      1  C14 P4O d   1       7.198  19.888  46.236  0.00  0.00     0.069 A 
ATOM      2  C13 P4O d   1       6.823  18.850  45.392  0.00  0.00    -0.042 A 
ATOM      3  N15 P4O d   1       7.682  20.999  45.702  0.00  0.00    -0.260 NA
ATOM      4  C10 P4O d   1       7.861  21.161  44.403  0.00  0.00     0.004 A 
ATOM      5  C11 P4O d   1       7.504  20.174  43.511  0.00  0.00    -0.054 A 
ATOM      6  C12 P4O d   1       6.972  18.990  44.009  0.00  0.00    -0.006 A 
ATOM      7  H7  P4O d   1       6.416  17.934  45.805  0.00  0.00     0.088 H 
ATOM      8  H8  P4O d   1       8.295  22.083  44.034  0.00  0.00     0.114 H 
ATOM      9  H9  P4O d   1       7.635  20.317  42.444  0.00  0.00     0.087 H 
ENDROOT
BRANCH   6  10
ATOM     10  C2  P4O d   1       6.575  17.907  43.102  0.00  0.00     0.043 A 
ATOM     11  C3  P4O d   1       6.786  17.892  41.765  0.00  0.00    -0.039 A 
ATOM     12  C4  P4O d   1       6.245  16.694  41.307  0.00  0.00     0.056 A 
ATOM     13  H10 P4O d   1       7.278  18.660  41.170  0.00  0.00     0.088 H 
ATOM     14  C6  P4O d   1       6.189  16.142  39.953  0.00  0.00     0.253 C 
ATOM     15  C5  P4O d   1       5.721  16.007  42.399  0.00  0.00     0.027 A 
ATOM     16  O26 P4O d   1       6.600  16.792  39.012  0.00  0.00    -0.268 OA
ATOM     17  N7  P4O d   1       5.669  14.904  39.828  0.00  0.00    -0.356 N 
ATOM     18  C8  P4O d   1       5.553  13.988  40.951  0.00  0.00     0.000 C 
ATOM     19  H11 P4O d   1       5.351  14.605  38.928  0.00  0.00     0.162 HD
ATOM     20  C9  P4O d   1       5.078  14.659  42.246  0.00  0.00    -0.011 C 
ATOM     21  H12 P4O d   1       6.539  13.537  41.135  0.00  0.00     0.064 H 
ATOM     22  H13 P4O d   1       4.833  13.200  40.684  0.00  0.00     0.064 H 
ATOM     23  H14 P4O d   1       5.351  14.027  43.104  0.00  0.00     0.044 H 
ATOM     24  H15 P4O d   1       3.985  14.780  42.213  0.00  0.00     0.044 H 
ATOM     25  N1  P4O d   1       5.916  16.749  43.476  0.00  0.00    -0.358 N 
ATOM     26  H16 P4O d   1       5.626  16.506  44.434  0.00  0.00     0.166 HD
ENDBRANCH   6  10
BRANCH   1  27
ATOM     27  C18 P4O d   1       7.061  19.812  47.721  0.00  0.00     0.011 A 
ATOM     28  C19 P4O d   1       6.194  18.914  48.312  0.00  0.00    -0.057 A 
ATOM     29  C20 P4O d   1       6.080  18.882  49.703  0.00  0.00    -0.006 A 
ATOM     30  H1  P4O d   1       5.606  18.239  47.700  0.00  0.00     0.086 H 
ATOM     31  C25 P4O d   1       5.209  17.973  50.325  0.00  0.00    -0.071 A 
ATOM     32  C21 P4O d   1       6.864  19.781  50.475  0.00  0.00     0.066 A 
ATOM     33  C24 P4O d   1       5.128  17.954  51.682  0.00  0.00    -0.082 A 
ATOM     34  H2  P4O d   1       4.608  17.294  49.730  0.00  0.00     0.084 H 
ATOM     35  C23 P4O d   1       5.898  18.833  52.461  0.00  0.00    -0.081 A 
ATOM     36  H3  P4O d   1       4.461  17.252  52.169  0.00  0.00     0.083 H 
ATOM     37  C22 P4O d   1       6.750  19.739  51.883  0.00  0.00    -0.054 A 
ATOM     38  H4  P4O d   1       5.817  18.795  53.541  0.00  0.00     0.083 H 
ATOM     39  H5  P4O d   1       7.330  20.416  52.500  0.00  0.00     0.087 H 
ATOM     40  N16 P4O d   1       7.691  20.636  49.865  0.00  0.00    -0.259 NA
ATOM     41  C17 P4O d   1       7.799  20.664  48.562  0.00  0.00     0.015 A 
ATOM     42  H6  P4O d   1       8.485  21.372  48.112  0.00  0.00     0.116 H 
ENDBRANCH   1  27
TORSDOF 2
