REMARK  29 active torsions:
REMARK  status: ('A' for Active; 'I' for Inactive)
REMARK    1  A    between atoms: N_1  and  CA_2 
REMARK    2  A    between atoms: CA_2  and  C_3 
REMARK    3  A    between atoms: CA_2  and  CB_5 
REMARK       I    between atoms: C_3  and  N_10 
REMARK    4  A    between atoms: CB_5  and  CG_6 
REMARK    5  A    between atoms: CG_6  and  CD_7 
REMARK       I    between atoms: CD_7  and  NE2_9 
REMARK    6  A    between atoms: N_10  and  CA_11 
REMARK    7  A    between atoms: CA_11  and  C_12 
REMARK    8  A    between atoms: CA_11  and  CB_14 
REMARK       I    between atoms: C_12  and  N_17 
REMARK    9  A    between atoms: CB_14  and  CG1_15 
REMARK   10  A    between atoms: CB_14  and  CG2_16 
REMARK   11  A    between atoms: CA_18  and  C_19 
REMARK       I    between atoms: C_19  and  N_24 
REMARK   12  A    between atoms: N_24  and  CA_25 
REMARK   13  A    between atoms: CA_25  and  C_26 
REMARK   14  A    between atoms: CA_25  and  CB_28 
REMARK       I    between atoms: C_26  and  N_30 
REMARK   15  A    between atoms: CB_28  and  OG_29 
REMARK   16  A    between atoms: N_30  and  CA_31 
REMARK   17  A    between atoms: CA_31  and  C_32 
REMARK   18  A    between atoms: CA_31  and  CB_34 
REMARK       I    between atoms: C_32  and  N_38 
REMARK   19  A    between atoms: CB_34  and  CG_35 
REMARK   20  A    between atoms: CA_39  and  C_40 
REMARK       I    between atoms: C_40  and  N_45 
REMARK   21  A    between atoms: N_45  and  CA_46 
REMARK   22  A    between atoms: CA_46  and  C_47 
REMARK   23  A    between atoms: CA_46  and  CB_49 
REMARK       I    between atoms: C_47  and  N_57 
REMARK   24  A    between atoms: CB_49  and  CG_50 
REMARK   25  A    between atoms: CZ_55  and  OH_56 
REMARK   26  A    between atoms: N_57  and  CA_58 
REMARK   27  A    between atoms: CA_58  and  C_59 
REMARK   28  A    between atoms: CA_58  and  CB_61 
REMARK   29  A    between atoms: CB_61  and  CG_62 
REMARK       I    between atoms: CG_62  and  ND2_64 
ROOT
ATOM      1  C   SER d   1       7.532  14.199  -6.503  0.00  0.00     0.243 C 
ATOM      2  O   SER d   1       8.458  14.218  -5.698  0.00  0.00    -0.271 OA
ATOM      3  N   ASP d   1       6.798  15.264  -6.761  0.00  0.00    -0.345 N 
ATOM      4  H   ASP d   1       5.917  15.167  -7.266  0.00  0.00     0.163 HD
ENDROOT
BRANCH   3   5
ATOM      5  CA  ASP d   1       7.247  16.576  -6.325  0.00  0.00     0.099 C 
ATOM      6  H   ASP d   1       7.715  16.563  -5.341  0.00  0.00     0.088 H 
BRANCH   5   7
ATOM      7  C   ASP d   1       6.025  17.463  -6.296  0.00  0.00     0.243 C 
ATOM      8  O   ASP d   1       5.483  17.779  -7.356  0.00  0.00    -0.271 OA
ATOM      9  N   PRO d   1       5.584  17.869  -5.091  0.00  0.00    -0.337 N 
ATOM     10  CA  PRO d   1       4.335  18.628  -5.005  0.00  0.00     0.091 C 
ATOM     11  CD  PRO d   1       6.282  17.808  -3.793  0.00  0.00    -0.001 C 
ATOM     12  CB  PRO d   1       4.098  18.725  -3.494  0.00  0.00    -0.036 C 
ATOM     13  H   PRO d   1       3.517  18.153  -5.547  0.00  0.00     0.087 H 
ATOM     14  CG  PRO d   1       5.489  18.724  -2.913  0.00  0.00    -0.048 C 
ATOM     15  H   PRO d   1       3.489  17.904  -3.115  0.00  0.00     0.036 H 
ATOM     16  H   PRO d   1       3.533  19.615  -3.218  0.00  0.00     0.036 H 
ATOM     17  H   PRO d   1       5.491  18.387  -1.876  0.00  0.00     0.035 H 
ATOM     18  H   PRO d   1       5.915  19.727  -2.889  0.00  0.00     0.035 H 
ATOM     19  H   PRO d   1       7.326  18.110  -3.870  0.00  0.00     0.064 H 
ATOM     20  H   PRO d   1       6.331  16.794  -3.397  0.00  0.00     0.064 H 
BRANCH  10  21
ATOM     21  C   PRO d   1       4.462  20.022  -5.633  0.00  0.00     0.241 C 
ATOM     22  O   PRO d   1       3.469  20.733  -5.737  0.00  0.00    -0.271 OA
ATOM     23  N   TYR d   1       5.667  20.410  -6.044  0.00  0.00    -0.346 N 
ATOM     24  H   TYR d   1       6.460  19.777  -5.936  0.00  0.00     0.163 HD
BRANCH  23  25
ATOM     25  CA  TYR d   1       5.878  21.730  -6.650  0.00  0.00     0.093 C 
ATOM     26  H   TYR d   1       4.962  22.292  -6.467  0.00  0.00     0.088 H 
BRANCH  25  27
ATOM     27  C   TYR d   1       6.083  21.665  -8.159  0.00  0.00     0.241 C 
ATOM     28  O   TYR d   1       6.038  22.691  -8.839  0.00  0.00    -0.271 OA
ATOM     29  N   ASN d   1       6.304  20.462  -8.679  0.00  0.00    -0.344 N 
ATOM     30  H   ASN d   1       6.232  19.639  -8.081  0.00  0.00     0.163 HD
BRANCH  29  31
ATOM     31  CA  ASN d   1       6.647  20.293 -10.088  0.00  0.00     0.104 C 
ATOM     32  H   ASN d   1       6.192  21.121 -10.632  0.00  0.00     0.090 H 
BRANCH  31  33
ATOM     33  C   ASN d   1       6.078  19.005 -10.680  0.00  0.00     0.197 C 
ATOM     34  O   ASN d   1       4.962  18.992 -11.203  0.00  0.00    -0.646 OA
ATOM     35  O   ASN d   1       6.757  17.945 -10.633  0.00  0.00    -0.646 OA
ENDBRANCH  31  33
BRANCH  31  36
ATOM     36  CB  ASN d   1       8.170  20.334 -10.268  0.00  0.00     0.037 C 
ATOM     37  H   ASN d   1       8.382  20.323 -11.337  0.00  0.00     0.051 H 
ATOM     38  H   ASN d   1       8.593  19.474  -9.749  0.00  0.00     0.051 H 
BRANCH  36  39
ATOM     39  CG  ASN d   1       8.796  21.594  -9.677  0.00  0.00     0.217 C 
ATOM     40  OD1 ASN d   1       8.341  22.706  -9.939  0.00  0.00    -0.274 OA
ATOM     41  ND2 ASN d   1       9.847  21.422  -8.879  0.00  0.00    -0.370 N 
ATOM     42  H   ASN d   1      10.306  22.230  -8.459  0.00  0.00     0.159 HD
ATOM     43  H   ASN d   1      10.193  20.482  -8.687  0.00  0.00     0.159 HD
ENDBRANCH  36  39
ENDBRANCH  31  36
ENDBRANCH  29  31
ENDBRANCH  25  27
BRANCH  25  44
ATOM     44  CB  TYR d   1       7.060  22.457  -5.998  0.00  0.00    -0.014 C 
ATOM     45  H   TYR d   1       7.331  23.295  -6.640  0.00  0.00     0.043 H 
ATOM     46  H   TYR d   1       7.869  21.736  -5.878  0.00  0.00     0.043 H 
BRANCH  44  47
ATOM     47  CG  TYR d   1       6.729  23.009  -4.635  0.00  0.00    -0.056 A 
ATOM     48  CD1 TYR d   1       6.104  24.245  -4.496  0.00  0.00    -0.074 A 
ATOM     49  CE1 TYR d   1       5.781  24.751  -3.241  0.00  0.00    -0.051 A 
ATOM     50  H   TYR d   1       5.864  24.826  -5.386  0.00  0.00     0.084 H 
ATOM     51  CZ  TYR d   1       6.094  24.011  -2.117  0.00  0.00     0.065 A 
ATOM     52  H   TYR d   1       5.288  25.718  -3.146  0.00  0.00     0.087 H 
ATOM     53  CE2 TYR d   1       6.715  22.776  -2.237  0.00  0.00    -0.051 A 
ATOM     54  CD2 TYR d   1       7.027  22.289  -3.486  0.00  0.00    -0.074 A 
ATOM     55  H   TYR d   1       6.955  22.195  -1.347  0.00  0.00     0.087 H 
ATOM     56  H   TYR d   1       7.517  21.320  -3.575  0.00  0.00     0.084 H 
BRANCH  51  57
ATOM     57  OH  TYR d   1       5.790  24.483  -0.865  0.00  0.00    -0.361 OA
ATOM     58  H   TYR d   1       5.367  25.341  -0.942  0.00  0.00     0.217 HD
ENDBRANCH  51  57
ENDBRANCH  44  47
ENDBRANCH  25  44
ENDBRANCH  23  25
ENDBRANCH  10  21
ENDBRANCH   5   7
BRANCH   5  59
ATOM     59  CB  ASP d   1       8.267  17.078  -7.352  0.00  0.00     0.043 C 
ATOM     60  H   ASP d   1       7.752  17.175  -8.308  0.00  0.00     0.052 H 
ATOM     61  H   ASP d   1       9.089  16.363  -7.376  0.00  0.00     0.052 H 
BRANCH  59  62
ATOM     62  CG  ASP d   1       8.843  18.422  -7.008  0.00  0.00     0.175 C 
ATOM     63  OD1 ASP d   1       9.951  18.720  -7.505  0.00  0.00    -0.648 OA
ATOM     64  OD2 ASP d   1       8.196  19.182  -6.252  0.00  0.00    -0.648 OA
ENDBRANCH  59  62
ENDBRANCH   5  59
ENDBRANCH   3   5
BRANCH   1  65
ATOM     65  CA  SER d   1       7.140  12.924  -7.236  0.00  0.00     0.109 C 
ATOM     66  H   SER d   1       7.038  13.141  -8.299  0.00  0.00     0.090 H 
BRANCH  65  67
ATOM     67  N   SER d   1       8.178  11.907  -7.095  0.00  0.00    -0.344 N 
ATOM     68  C   PRO d   1       8.394  10.999  -8.036  0.00  0.00     0.241 C 
ATOM     69  O   PRO d   1       7.706  10.915  -9.064  0.00  0.00    -0.271 OA
ATOM     70  H   SER d   1       8.751  11.895  -6.251  0.00  0.00     0.163 HD
BRANCH  68  71
ATOM     71  CA  PRO d   1       9.561  10.039  -7.786  0.00  0.00     0.091 C 
ATOM     72  N   PRO d   1       9.264   8.682  -8.263  0.00  0.00    -0.337 N 
ATOM     73  C   VAL d   1       8.157   8.062  -7.816  0.00  0.00     0.243 C 
ATOM     74  CD  PRO d   1      10.342   8.132  -9.112  0.00  0.00    -0.001 C 
ATOM     75  O   VAL d   1       7.414   8.554  -6.970  0.00  0.00    -0.271 OA
ATOM     76  CG  PRO d   1      11.460   9.138  -8.949  0.00  0.00    -0.048 C 
ATOM     77  H   PRO d   1      10.037   8.008 -10.151  0.00  0.00     0.064 H 
ATOM     78  H   PRO d   1      10.637   7.125  -8.816  0.00  0.00     0.064 H 
ATOM     79  CB  PRO d   1      10.764  10.454  -8.622  0.00  0.00    -0.036 C 
ATOM     80  H   PRO d   1      12.156   8.844  -8.164  0.00  0.00     0.035 H 
ATOM     81  H   PRO d   1      12.067   9.216  -9.851  0.00  0.00     0.035 H 
ATOM     82  H   PRO d   1      11.418  11.145  -8.090  0.00  0.00     0.036 H 
ATOM     83  H   PRO d   1      10.474  11.001  -9.519  0.00  0.00     0.036 H 
ATOM     84  H   PRO d   1       9.741  10.065  -6.711  0.00  0.00     0.087 H 
BRANCH  73  85
ATOM     85  CA  VAL d   1       7.846   6.673  -8.381  0.00  0.00     0.092 C 
ATOM     86  H   VAL d   1       8.737   6.045  -8.352  0.00  0.00     0.088 H 
BRANCH  85  87
ATOM     87  N   VAL d   1       6.806   6.070  -7.567  0.00  0.00    -0.346 N 
ATOM     88  C   GLN d   1       7.069   5.081  -6.723  0.00  0.00     0.249 C 
ATOM     89  O   GLN d   1       8.172   4.566  -6.633  0.00  0.00    -0.271 OA
ATOM     90  H   VAL d   1       5.849   6.415  -7.646  0.00  0.00     0.163 HD
BRANCH  88  91
ATOM     91  CA  GLN d   1       5.909   4.587  -5.866  0.00  0.00     0.176 C 
ATOM     92  H   GLN d   1       5.047   4.439  -6.516  0.00  0.00     0.099 H 
BRANCH  91  93
ATOM     93  N   GLN d   1       6.233   3.306  -5.245  0.00  0.00    -0.066 N 
ATOM     94  H   GLN d   1       6.483   2.632  -5.969  0.00  0.00     0.275 HD
ATOM     95  H   GLN d   1       7.019   3.428  -4.606  0.00  0.00     0.275 HD
ATOM     96  H   GLN d   1       5.423   2.966  -4.728  0.00  0.00     0.275 HD
ENDBRANCH  91  93
BRANCH  91  97
ATOM     97  CB  GLN d   1       5.525   5.633  -4.803  0.00  0.00    -0.022 C 
ATOM     98  H   GLN d   1       4.597   5.295  -4.341  0.00  0.00     0.037 H 
ATOM     99  H   GLN d   1       5.450   6.594  -5.312  0.00  0.00     0.037 H 
BRANCH  97 100
ATOM    100  CG  GLN d   1       6.538   5.796  -3.695  0.00  0.00     0.011 C 
ATOM    101  H   GLN d   1       7.463   6.152  -4.147  0.00  0.00     0.047 H 
ATOM    102  H   GLN d   1       6.639   4.830  -3.199  0.00  0.00     0.047 H 
BRANCH 100 103
ATOM    103  CD  GLN d   1       6.122   6.820  -2.629  0.00  0.00     0.215 C 
ATOM    104  OE1 GLN d   1       5.413   7.791  -2.914  0.00  0.00    -0.274 OA
ATOM    105  NE2 GLN d   1       6.578   6.602  -1.395  0.00  0.00    -0.370 N 
ATOM    106  H   GLN d   1       6.344   7.250  -0.643  0.00  0.00     0.159 HD
ATOM    107  H   GLN d   1       7.161   5.787  -1.203  0.00  0.00     0.159 HD
ENDBRANCH 100 103
ENDBRANCH  97 100
ENDBRANCH  91  97
ENDBRANCH  88  91
ENDBRANCH  85  87
BRANCH  85 108
ATOM    108  CB  VAL d   1       7.404   6.784  -9.852  0.00  0.00    -0.033 C 
ATOM    109  H   VAL d   1       8.240   7.171 -10.434  0.00  0.00     0.042 H 
BRANCH 108 110
ATOM    110  CG1 VAL d   1       7.022   5.397 -10.396  0.00  0.00    -0.071 C 
ATOM    111  H   VAL d   1       7.883   4.732 -10.330  0.00  0.00     0.028 H 
ATOM    112  H   VAL d   1       6.201   4.990  -9.805  0.00  0.00     0.028 H 
ATOM    113  H   VAL d   1       6.711   5.489 -11.437  0.00  0.00     0.028 H 
ENDBRANCH 108 110
BRANCH 108 114
ATOM    114  CG2 VAL d   1       6.235   7.758  -9.998  0.00  0.00    -0.071 C 
ATOM    115  H   VAL d   1       5.392   7.404  -9.404  0.00  0.00     0.028 H 
ATOM    116  H   VAL d   1       6.540   8.744  -9.648  0.00  0.00     0.028 H 
ATOM    117  H   VAL d   1       5.942   7.818 -11.046  0.00  0.00     0.028 H 
ENDBRANCH 108 114
ENDBRANCH  85 108
ENDBRANCH  73  85
ENDBRANCH  68  71
ENDBRANCH  65  67
BRANCH  65 118
ATOM    118  CB  SER d   1       5.798  12.423  -6.716  0.00  0.00     0.044 C 
ATOM    119  H   SER d   1       5.510  11.540  -7.287  0.00  0.00     0.077 H 
ATOM    120  H   SER d   1       5.062  13.219  -6.827  0.00  0.00     0.077 H 
BRANCH 118 121
ATOM    121  OG  SER d   1       5.881  12.072  -5.354  0.00  0.00    -0.398 OA
ATOM    122  H   SER d   1       6.533  11.376  -5.243  0.00  0.00     0.209 HD
ENDBRANCH 118 121
ENDBRANCH  65 118
ENDBRANCH   1  65
TORSDOF 29
