REMARK  8 active torsions:
REMARK  status: ('A' for Active; 'I' for Inactive)
REMARK    1  A    between atoms: C8_8  and  C9_9 
REMARK    2  A    between atoms: C10_10  and  C8_8 
REMARK    3  A    between atoms: C9_9  and  C21_21 
REMARK    4  A    between atoms: O28_28  and  C10_10 
REMARK    5  A    between atoms: C12_12  and  O28_28 
REMARK    6  A    between atoms: C17_17  and  C16_16 
REMARK    7  A    between atoms: C18_18  and  N22_22 
REMARK    8  A    between atoms: N25_25  and  C19_19 
REMARK       I    between atoms: C20_20  and  N25_25 
REMARK       I    between atoms: C20_20  and  N26_26 
ROOT
ATOM      1  C6  FU3 d   1       0.467 -33.564  48.247  0.00  0.00     0.004 A 
ATOM      2  C7  FU3 d   1       0.676 -34.538  46.019  0.00  0.00     0.018 A 
ATOM      3  C14 FU3 d   1       1.832 -33.366  47.718  0.00  0.00     0.041 A 
ATOM      4  C15 FU3 d   1       1.976 -33.907  46.452  0.00  0.00     0.106 A 
ATOM      5  C17 FU3 d   1       2.945 -32.739  48.286  0.00  0.00     0.104 A 
ATOM      6  C18 FU3 d   1       4.194 -33.229  46.357  0.00  0.00     0.721 A 
ATOM      7  C20 FU3 d   1      -1.513 -34.736  47.422  0.00  0.00     0.326 C 
ATOM      8  N23 FU3 d   1       3.127 -33.865  45.739  0.00  0.00    -0.061 NA
ATOM      9  N24 FU3 d   1       4.136 -32.663  47.616  0.00  0.00    -0.061 NA
ATOM     10  N25 FU3 d   1      -2.127 -35.421  46.376  0.00  0.00    -0.338 N 
ATOM     11  N26 FU3 d   1      -0.214 -34.291  47.191  0.00  0.00    -0.282 N 
ATOM     12  O27 FU3 d   1      -2.090 -34.530  48.499  0.00  0.00    -0.246 OA
ATOM     13  H   FU3 d   1       0.065 -33.240  49.207  0.00  0.00     0.114 H 
ATOM     14  H   FU3 d   1       0.445 -35.047  45.084  0.00  0.00     0.116 H 
ATOM     15  H   FU3 d   1      -1.623 -35.578  45.503  0.00  0.00     0.164 HD
ENDROOT
BRANCH   5  16
ATOM     16  C16 FU3 d   1       2.827 -32.141  49.656  0.00  0.00     0.049 A 
ATOM     17  C12 FU3 d   1       2.765 -33.015  50.832  0.00  0.00     0.084 A 
ATOM     18  C1  FU3 d   1       2.608 -32.462  52.128  0.00  0.00    -0.029 A 
ATOM     19  C11 FU3 d   1       2.508 -31.063  52.281  0.00  0.00     0.038 A 
ATOM     20  H   FU3 d   1       2.565 -33.114  53.001  0.00  0.00     0.090 H 
ATOM     21  C2  FU3 d   1       2.576 -30.194  51.158  0.00  0.00    -0.040 A 
ATOM     22 CL32 FU3 d   1       2.301 -30.416  53.866  0.00  0.00    -0.084 Cl
ATOM     23  C13 FU3 d   1       2.738 -30.729  49.852  0.00  0.00     0.051 A 
ATOM     24  H   FU3 d   1       2.504 -29.116  51.299  0.00  0.00     0.088 H 
ATOM     25 CL33 FU3 d   1       2.835 -29.628  48.513  0.00  0.00    -0.083 Cl
BRANCH  17  26
ATOM     26  O28 FU3 d   1       2.866 -34.360  50.543  0.00  0.00    -0.350 OA
BRANCH  26  27
ATOM     27  C10 FU3 d   1       2.830 -35.375  51.537  0.00  0.00     0.026 C 
ATOM     28  H   FU3 d   1       3.698 -35.332  52.195  0.00  0.00     0.075 H 
ATOM     29  H   FU3 d   1       1.975 -35.263  52.203  0.00  0.00     0.075 H 
BRANCH  27  30
ATOM     30  C8  FU3 d   1       2.774 -36.676  50.754  0.00  0.00    -0.037 C 
ATOM     31  H   FU3 d   1       3.645 -36.743  50.102  0.00  0.00     0.036 H 
ATOM     32  H   FU3 d   1       2.769 -37.516  51.449  0.00  0.00     0.036 H 
BRANCH  30  33
ATOM     33  C9  FU3 d   1       1.494 -36.713  49.900  0.00  0.00     0.028 C 
ATOM     34  H   FU3 d   1       1.423 -35.767  49.363  0.00  0.00     0.046 H 
ATOM     35  H   FU3 d   1       0.650 -36.882  50.569  0.00  0.00     0.046 H 
BRANCH  33  36
ATOM     36  C21 FU3 d   1       1.505 -37.816  48.887  0.00  0.00     0.388 C 
ATOM     37  F29 FU3 d   1       1.605 -39.007  49.492  0.00  0.00    -0.171 F 
ATOM     38  F30 FU3 d   1       0.367 -37.809  48.170  0.00  0.00    -0.171 F 
ATOM     39  F31 FU3 d   1       2.523 -37.681  48.018  0.00  0.00    -0.171 F 
ENDBRANCH  33  36
ENDBRANCH  30  33
ENDBRANCH  27  30
ENDBRANCH  26  27
ENDBRANCH  17  26
ENDBRANCH   5  16
BRANCH   6  40
ATOM     40  N22 FU3 d   1       5.408 -33.152  45.679  0.00  0.00    -0.231 N 
ATOM     41  H   FU3 d   1       5.499 -33.558  44.748  0.00  0.00     0.174 HD
ATOM     42  H   FU3 d   1       6.206 -32.689  46.114  0.00  0.00     0.174 HD
ENDBRANCH   6  40
BRANCH  10  43
ATOM     43  C19 FU3 d   1      -3.506 -35.919  46.533  0.00  0.00     0.014 C 
ATOM     44  C4  FU3 d   1      -3.566 -37.377  47.024  0.00  0.00    -0.046 C 
ATOM     45  C3  FU3 d   1      -4.809 -37.494  46.133  0.00  0.00    -0.061 C 
ATOM     46  H   FU3 d   1      -2.720 -38.060  46.948  0.00  0.00     0.035 H 
ATOM     47  H   FU3 d   1      -3.571 -37.643  48.081  0.00  0.00     0.035 H 
ATOM     48  C5  FU3 d   1      -4.140 -36.426  45.239  0.00  0.00    -0.046 C 
ATOM     49  H   FU3 d   1      -5.819 -37.375  46.525  0.00  0.00     0.033 H 
ATOM     50  H   FU3 d   1      -5.154 -38.450  45.739  0.00  0.00     0.033 H 
ATOM     51  H   FU3 d   1      -4.707 -35.780  44.568  0.00  0.00     0.035 H 
ATOM     52  H   FU3 d   1      -3.554 -36.680  44.356  0.00  0.00     0.035 H 
ATOM     53  H   FU3 d   1      -3.931 -35.087  47.094  0.00  0.00     0.072 H 
ENDBRANCH  10  43
TORSDOF 8
