REMARK  20 active torsions:
REMARK  status: ('A' for Active; 'I' for Inactive)
REMARK    1  A    between atoms: C_1  and  CH3_3 
REMARK       I    between atoms: C_1  and  N_4 
REMARK    2  A    between atoms: N_4  and  CA_5 
REMARK    3  A    between atoms: CA_5  and  C_6 
REMARK    4  A    between atoms: CA_5  and  CB_8 
REMARK       I    between atoms: C_6  and  N_9 
REMARK    5  A    between atoms: N_9  and  CA_10 
REMARK    6  A    between atoms: CA_10  and  C_11 
REMARK    7  A    between atoms: CA_10  and  CB_13 
REMARK       I    between atoms: C_11  and  N_17 
REMARK    8  A    between atoms: CB_13  and  CG_14 
REMARK    9  A    between atoms: N_17  and  CA_18 
REMARK   10  A    between atoms: CA_18  and  C_19 
REMARK   11  A    between atoms: CA_18  and  CB_21 
REMARK       I    between atoms: C_19  and  N_24 
REMARK   12  A    between atoms: CB_21  and  CG1_22 
REMARK   13  A    between atoms: CB_21  and  CG2_23 
REMARK   14  A    between atoms: N_24  and  CA_25 
REMARK   15  A    between atoms: CA_25  and  C_26 
REMARK   16  A    between atoms: CA_25  and  CB_28 
REMARK       I    between atoms: C_26  and  N_29 
REMARK   17  A    between atoms: N_29  and  CA_30 
REMARK   18  A    between atoms: CA_30  and  C_31 
REMARK   19  A    between atoms: CA_30  and  CB_33 
REMARK   20  A    between atoms: CB_33  and  CG_34 
ROOT
ATOM      1  CA  VAL d   1     -28.400   9.776  32.975  0.00  0.00     0.092 C 
ATOM      2  H   VAL d   1     -28.372   9.823  34.064  0.00  0.00     0.088 H 
ENDROOT
BRANCH   1   3
ATOM      3  N   VAL d   1     -27.808  11.040  32.499  0.00  0.00    -0.346 N 
ATOM      4  C   ASP d   1     -27.556  12.092  33.285  0.00  0.00     0.241 C 
ATOM      5  O   ASP d   1     -27.852  12.131  34.487  0.00  0.00    -0.271 OA
ATOM      6  H   VAL d   1     -27.576  11.117  31.509  0.00  0.00     0.163 HD
BRANCH   4   7
ATOM      7  CA  ASP d   1     -26.888  13.295  32.602  0.00  0.00     0.098 C 
ATOM      8  H   ASP d   1     -27.003  13.116  31.533  0.00  0.00     0.088 H 
BRANCH   7   9
ATOM      9  N   ASP d   1     -27.539  14.557  32.937  0.00  0.00    -0.346 N 
ATOM     10  C   ALA d   1     -28.637  14.976  32.315  0.00  0.00     0.240 C 
ATOM     11  O   ALA d   1     -29.164  14.365  31.377  0.00  0.00    -0.271 OA
ATOM     12  H   ASP d   1     -27.138  15.138  33.673  0.00  0.00     0.163 HD
BRANCH  10  13
ATOM     13  CA  ALA d   1     -29.236  16.269  32.858  0.00  0.00     0.086 C 
ATOM     14  H   ALA d   1     -28.407  16.932  33.105  0.00  0.00     0.086 H 
BRANCH  13  15
ATOM     15  N   ALA d   1     -30.056  16.964  31.871  0.00  0.00    -0.348 N 
ATOM     16  C   ACE d   1     -29.652  18.051  31.211  0.00  0.00     0.214 C 
ATOM     17  O   ACE d   1     -28.854  18.859  31.683  0.00  0.00    -0.274 OA
ATOM     18  H   ALA d   1     -30.988  16.599  31.675  0.00  0.00     0.163 HD
BRANCH  16  19
ATOM     19  CH3 ACE d   1     -30.351  18.305  29.904  0.00  0.00    -0.003 C 
ATOM     20  H   ACE d   1     -30.939  19.219  29.980  0.00  0.00     0.040 H 
ATOM     21  H   ACE d   1     -29.610  18.413  29.112  0.00  0.00     0.040 H 
ATOM     22  H   ACE d   1     -31.009  17.466  29.676  0.00  0.00     0.040 H 
ENDBRANCH  16  19
ENDBRANCH  13  15
BRANCH  13  23
ATOM     23  CB  ALA d   1     -30.049  15.978  34.109  0.00  0.00    -0.049 C 
ATOM     24  H   ALA d   1     -30.853  15.284  33.865  0.00  0.00     0.030 H 
ATOM     25  H   ALA d   1     -29.402  15.535  34.866  0.00  0.00     0.030 H 
ATOM     26  H   ALA d   1     -30.473  16.907  34.490  0.00  0.00     0.030 H 
ENDBRANCH  13  23
ENDBRANCH  10  13
ENDBRANCH   7   9
BRANCH   7  27
ATOM     27  CB  ASP d   1     -25.393  13.396  32.919  0.00  0.00     0.043 C 
ATOM     28  H   ASP d   1     -24.939  12.423  32.728  0.00  0.00     0.052 H 
ATOM     29  H   ASP d   1     -25.287  13.703  33.959  0.00  0.00     0.052 H 
BRANCH  27  30
ATOM     30  CG  ASP d   1     -24.683  14.434  32.041  0.00  0.00     0.175 C 
ATOM     31  OD1 ASP d   1     -24.830  14.364  30.800  0.00  0.00    -0.648 OA
ATOM     32  OD2 ASP d   1     -23.958  15.307  32.567  0.00  0.00    -0.648 OA
ENDBRANCH  27  30
ENDBRANCH   7  27
ENDBRANCH   4   7
ENDBRANCH   1   3
BRANCH   1  33
ATOM     33  C   VAL d   1     -27.594   8.567  32.481  0.00  0.00     0.241 C 
ATOM     34  O   VAL d   1     -26.719   8.712  31.623  0.00  0.00    -0.271 OA
ATOM     35  N   ALA d   1     -27.912   7.385  33.012  0.00  0.00    -0.346 N 
ATOM     36  H   ALA d   1     -28.685   7.342  33.676  0.00  0.00     0.163 HD
BRANCH  35  37
ATOM     37  CA  ALA d   1     -27.199   6.142  32.683  0.00  0.00     0.086 C 
ATOM     38  H   ALA d   1     -26.218   6.435  32.309  0.00  0.00     0.086 H 
BRANCH  37  39
ATOM     39  C   ALA d   1     -27.871   5.337  31.563  0.00  0.00     0.240 C 
ATOM     40  O   ALA d   1     -29.081   5.094  31.594  0.00  0.00    -0.271 OA
ATOM     41  N   ASA d   1     -27.073   4.924  30.580  0.00  0.00    -0.344 N 
ATOM     42  H   ASA d   1     -26.093   5.205  30.598  0.00  0.00     0.163 HD
BRANCH  41  43
ATOM     43  CA  ASA d   1     -27.542   4.083  29.473  0.00  0.00     0.105 C 
ATOM     44  H   ASA d   1     -28.481   4.514  29.126  0.00  0.00     0.090 H 
BRANCH  43  45
ATOM     45  C   ASA d   1     -27.862   2.645  29.906  0.00  0.00     0.197 C 
ATOM     46  O   ASA d   1     -27.547   1.648  29.204  0.00  0.00    -0.646 OA
ATOM     47  O   ASA d   1     -28.459   2.456  30.999  0.00  0.00    -0.646 OA
ENDBRANCH  43  45
BRANCH  43  48
ATOM     48  CB  ASA d   1     -26.529   4.099  28.316  0.00  0.00     0.044 C 
ATOM     49  H   ASA d   1     -26.363   3.070  27.997  0.00  0.00     0.053 H 
ATOM     50  H   ASA d   1     -25.615   4.574  28.673  0.00  0.00     0.053 H 
BRANCH  48  51
ATOM     51  CG  ASA d   1     -27.030   4.882  27.128  0.00  0.00     0.175 C 
ATOM     52  OD1 ASA d   1     -26.219   5.212  26.237  0.00  0.00    -0.648 OA
ATOM     53  OD2 ASA d   1     -28.251   5.156  27.087  0.00  0.00    -0.648 OA
ENDBRANCH  48  51
ENDBRANCH  43  48
ENDBRANCH  41  43
ENDBRANCH  37  39
BRANCH  37  54
ATOM     54  CB  ALA d   1     -27.038   5.281  33.930  0.00  0.00    -0.049 C 
ATOM     55  H   ALA d   1     -26.469   5.832  34.679  0.00  0.00     0.030 H 
ATOM     56  H   ALA d   1     -28.022   5.034  34.329  0.00  0.00     0.030 H 
ATOM     57  H   ALA d   1     -26.508   4.364  33.671  0.00  0.00     0.030 H 
ENDBRANCH  37  54
ENDBRANCH  35  37
ENDBRANCH   1  33
BRANCH   1  58
ATOM     58  CB  VAL d   1     -29.883   9.605  32.520  0.00  0.00    -0.033 C 
ATOM     59  H   VAL d   1     -30.230   8.637  32.882  0.00  0.00     0.042 H 
BRANCH  58  60
ATOM     60  CG1 VAL d   1     -30.783  10.678  33.145  0.00  0.00    -0.071 C 
ATOM     61  H   VAL d   1     -30.741  10.598  34.231  0.00  0.00     0.028 H 
ATOM     62  H   VAL d   1     -30.436  11.665  32.838  0.00  0.00     0.028 H 
ATOM     63  H   VAL d   1     -31.809  10.531  32.808  0.00  0.00     0.028 H 
ENDBRANCH  58  60
BRANCH  58  64
ATOM     64  CG2 VAL d   1     -30.003   9.586  30.986  0.00  0.00    -0.071 C 
ATOM     65  H   VAL d   1     -29.623  10.524  30.581  0.00  0.00     0.028 H 
ATOM     66  H   VAL d   1     -29.421   8.755  30.588  0.00  0.00     0.028 H 
ATOM     67  H   VAL d   1     -31.050   9.466  30.706  0.00  0.00     0.028 H 
ENDBRANCH  58  64
ENDBRANCH   1  58
TORSDOF 20
