REMARK  7 active torsions:
REMARK  status: ('A' for Active; 'I' for Inactive)
REMARK    1  A    between atoms: CAF_6  and  CAB_2 
REMARK    2  A    between atoms: CAO_15  and  OAC_3 
REMARK    3  A    between atoms: CAP_16  and  OAD_4 
REMARK    4  A    between atoms: CAM_13  and  CAE_5 
REMARK    5  A    between atoms: CAQ_17  and  CAM_13 
REMARK    6  A    between atoms: CAR_18  and  CAN_14 
REMARK    7  A    between atoms: CAS_19  and  CAT_20 
ROOT
ATOM      1  CAG MLO d   1      17.419  13.456  17.706  0.00  0.00    -0.050 A 
ATOM      2  CAI MLO d   1      17.233  13.968  18.990  0.00  0.00    -0.074 A 
ATOM      3  CAK MLO d   1      15.053  14.804  18.306  0.00  0.00    -0.063 A 
ATOM      4  CAO MLO d   1      16.425  13.613  16.730  0.00  0.00     0.076 A 
ATOM      5  CAQ MLO d   1      16.045  14.643  19.288  0.00  0.00    -0.054 A 
ATOM      6  CAS MLO d   1      15.230  14.298  17.010  0.00  0.00     0.011 A 
ATOM      7  H   MLO d   1      18.342  12.931  17.460  0.00  0.00     0.087 H 
ATOM      8  H   MLO d   1      18.003  13.844  19.751  0.00  0.00     0.084 H 
ATOM      9  H   MLO d   1      14.132  15.330  18.555  0.00  0.00     0.085 H 
ENDROOT
BRANCH   6  10
ATOM     10  CAT MLO d   1      14.212  14.436  16.043  0.00  0.00     0.011 A 
ATOM     11  CAL MLO d   1      12.944  13.909  16.320  0.00  0.00    -0.060 A 
ATOM     12  CAR MLO d   1      11.888  13.995  15.413  0.00  0.00    -0.035 A 
ATOM     13  H   MLO d   1      12.777  13.415  17.277  0.00  0.00     0.086 H 
ATOM     14  CAJ MLO d   1      12.104  14.625  14.188  0.00  0.00    -0.070 A 
ATOM     15  CAH MLO d   1      13.362  15.152  13.891  0.00  0.00    -0.049 A 
ATOM     16  H   MLO d   1      11.293  14.706  13.464  0.00  0.00     0.084 H 
ATOM     17  CAP MLO d   1      14.407  15.058  14.808  0.00  0.00     0.076 A 
ATOM     18  H   MLO d   1      13.529  15.642  12.932  0.00  0.00     0.087 H 
BRANCH  12  19
ATOM     19  CAN MLO d   1      10.526  13.387  15.803  0.00  0.00    -0.077 C 
ATOM     20  CAF MLO d   1       9.508  13.692  14.895  0.00  0.00    -0.106 C 
ATOM     21  H   MLO d   1       9.735  14.047  13.890  0.00  0.00     0.076 H 
ATOM     22  H   MLO d   1      10.373  12.781  16.696  0.00  0.00     0.084 H 
BRANCH  20  23
ATOM     23  CAB MLO d   1       8.148  13.520  15.336  0.00  0.00    -0.060 C 
ATOM     24  H   MLO d   1       7.986  12.478  15.611  0.00  0.00     0.032 H 
ATOM     25  H   MLO d   1       7.964  14.158  16.200  0.00  0.00     0.032 H 
ATOM     26  H   MLO d   1       7.468  13.794  14.529  0.00  0.00     0.032 H 
ENDBRANCH  20  23
ENDBRANCH  12  19
BRANCH  17  27
ATOM     27  OAD MLO d   1      15.612  15.582  14.483  0.00  0.00    -0.360 OA
ATOM     28  H   MLO d   1      16.226  15.442  15.207  0.00  0.00     0.217 HD
ENDBRANCH  17  27
ENDBRANCH   6  10
BRANCH   4  29
ATOM     29  OAC MLO d   1      16.634  13.095  15.495  0.00  0.00    -0.360 OA
ATOM     30  H   MLO d   1      15.873  13.279  14.939  0.00  0.00     0.217 HD
ENDBRANCH   4  29
BRANCH   5  31
ATOM     31  CAM MLO d   1      15.841  15.214  20.696  0.00  0.00    -0.026 C 
ATOM     32  H   MLO d   1      16.566  14.764  21.374  0.00  0.00     0.045 H 
ATOM     33  H   MLO d   1      15.978  16.295  20.668  0.00  0.00     0.045 H 
BRANCH  31  34
ATOM     34  CAE MLO d   1      14.556  14.927  21.144  0.00  0.00    -0.108 C 
ATOM     35  CAA MLO d   1      13.648  15.958  21.352  0.00  0.00    -0.124 C 
ATOM     36  H   MLO d   1      13.943  16.990  21.164  0.00  0.00     0.066 H 
ATOM     37  H   MLO d   1      12.641  15.735  21.703  0.00  0.00     0.066 H 
ATOM     38  H   MLO d   1      14.261  13.895  21.332  0.00  0.00     0.076 H 
ENDBRANCH  31  34
ENDBRANCH   5  31
TORSDOF 7
