REMARK  7 active torsions:
REMARK  status: ('A' for Active; 'I' for Inactive)
REMARK    1  A    between atoms: CAO_15  and  OAC_3 
REMARK    2  A    between atoms: CAP_16  and  OAD_4 
REMARK    3  A    between atoms: CAM_13  and  CAE_5 
REMARK    4  A    between atoms: CAN_14  and  CAF_6 
REMARK    5  A    between atoms: CAQ_17  and  CAM_13 
REMARK    6  A    between atoms: CAR_18  and  CAN_14 
REMARK    7  A    between atoms: CAS_19  and  CAT_20 
ROOT
ATOM      1  CAG MLO d   1      53.365  22.851   3.869  0.00  0.00    -0.050 A 
ATOM      2  CAI MLO d   1      54.060  23.494   4.888  0.00  0.00    -0.074 A 
ATOM      3  CAK MLO d   1      55.809  24.043   3.312  0.00  0.00    -0.063 A 
ATOM      4  CAO MLO d   1      53.887  22.801   2.575  0.00  0.00     0.076 A 
ATOM      5  CAQ MLO d   1      55.286  24.089   4.608  0.00  0.00    -0.054 A 
ATOM      6  CAS MLO d   1      55.119  23.403   2.276  0.00  0.00     0.011 A 
ATOM      7  H   MLO d   1      52.404  22.382   4.083  0.00  0.00     0.087 H 
ATOM      8  H   MLO d   1      53.648  23.531   5.896  0.00  0.00     0.084 H 
ATOM      9  H   MLO d   1      56.770  24.514   3.105  0.00  0.00     0.085 H 
ENDROOT
BRANCH   6  10
ATOM     10  CAT MLO d   1      55.706  23.385   0.994  0.00  0.00     0.011 A 
ATOM     11  CAL MLO d   1      57.100  23.287   0.912  0.00  0.00    -0.063 A 
ATOM     12  CAR MLO d   1      57.754  23.269  -0.321  0.00  0.00    -0.054 A 
ATOM     13  H   MLO d   1      57.686  23.224   1.829  0.00  0.00     0.085 H 
ATOM     14  CAJ MLO d   1      57.016  23.356  -1.500  0.00  0.00    -0.074 A 
ATOM     15  CAH MLO d   1      55.629  23.457  -1.435  0.00  0.00    -0.050 A 
ATOM     16  H   MLO d   1      57.521  23.345  -2.466  0.00  0.00     0.084 H 
ATOM     17  CAP MLO d   1      54.975  23.476  -0.203  0.00  0.00     0.076 A 
ATOM     18  H   MLO d   1      55.049  23.522  -2.355  0.00  0.00     0.087 H 
BRANCH  12  19
ATOM     19  CAN MLO d   1      59.283  23.163  -0.379  0.00  0.00    -0.026 C 
ATOM     20  H   MLO d   1      59.647  23.768  -1.210  0.00  0.00     0.045 H 
ATOM     21  H   MLO d   1      59.696  23.516   0.566  0.00  0.00     0.045 H 
BRANCH  19  22
ATOM     22  CAF MLO d   1      59.678  21.845  -0.577  0.00  0.00    -0.108 C 
ATOM     23  CAB MLO d   1      60.762  21.572  -1.405  0.00  0.00    -0.124 C 
ATOM     24  H   MLO d   1      61.294  22.389  -1.893  0.00  0.00     0.066 H 
ATOM     25  H   MLO d   1      61.079  20.542  -1.566  0.00  0.00     0.066 H 
ATOM     26  H   MLO d   1      59.142  21.032  -0.087  0.00  0.00     0.076 H 
ENDBRANCH  19  22
ENDBRANCH  12  19
BRANCH  17  27
ATOM     27  OAD MLO d   1      53.619  23.576  -0.216  0.00  0.00    -0.360 OA
ATOM     28  H   MLO d   1      53.291  23.579   0.686  0.00  0.00     0.217 HD
ENDBRANCH  17  27
ENDBRANCH   6  10
BRANCH   4  29
ATOM     29  OAC MLO d   1      53.163  22.159   1.620  0.00  0.00    -0.360 OA
ATOM     30  H   MLO d   1      53.632  22.199   0.783  0.00  0.00     0.217 HD
ENDBRANCH   4  29
BRANCH   5  31
ATOM     31  CAM MLO d   1      56.055  24.797   5.726  0.00  0.00    -0.026 C 
ATOM     32  H   MLO d   1      56.508  25.707   5.333  0.00  0.00     0.045 H 
ATOM     33  H   MLO d   1      55.368  25.048   6.534  0.00  0.00     0.045 H 
BRANCH  31  34
ATOM     34  CAE MLO d   1      57.053  23.958   6.213  0.00  0.00    -0.108 C 
ATOM     35  CAA MLO d   1      58.374  24.155   5.828  0.00  0.00    -0.124 C 
ATOM     36  H   MLO d   1      58.627  24.966   5.145  0.00  0.00     0.066 H 
ATOM     37  H   MLO d   1      59.156  23.498   6.209  0.00  0.00     0.066 H 
ATOM     38  H   MLO d   1      56.799  23.147   6.896  0.00  0.00     0.076 H 
ENDBRANCH  31  34
ENDBRANCH   5  31
TORSDOF 7
