REMARK  4 active torsions:
REMARK  status: ('A' for Active; 'I' for Inactive)
REMARK    1  A    between atoms: OAL_12  and  CAA_1 
REMARK    2  A    between atoms: CAQ_17  and  OAL_12 
REMARK    3  A    between atoms: CAR_18  and  CAO_15 
REMARK    4  A    between atoms: CAS_19  and  CAY_25 
ROOT
ATOM      1  CAF 17N d   1      10.552  -7.187  28.712  0.00  0.00    -0.079 A 
ATOM      2  CAG 17N d   1      10.511  -6.771  27.379  0.00  0.00    -0.050 A 
ATOM      3  CAH 17N d   1       9.406  -7.153  29.506  0.00  0.00    -0.071 A 
ATOM      4  CAI 17N d   1       4.701  -6.621  31.293  0.00  0.00    -0.030 A 
ATOM      5  CAJ 17N d   1       6.998  -5.839  27.079  0.00  0.00    -0.052 A 
ATOM      6  CAK 17N d   1       7.568  -7.284  33.205  0.00  0.00     0.115 C 
ATOM      7  OAM 17N d   1       6.166  -7.503  33.091  0.00  0.00    -0.323 OA
ATOM      8  OAN 17N d   1       8.044  -7.562  31.867  0.00  0.00    -0.322 OA
ATOM      9  CAP 17N d   1       5.887  -7.060  31.845  0.00  0.00     0.107 A 
ATOM     10  CAQ 17N d   1       9.317  -6.313  26.829  0.00  0.00     0.079 A 
ATOM     11  CAR 17N d   1       4.662  -6.191  29.983  0.00  0.00     0.055 A 
ATOM     12  CAS 17N d   1       5.826  -5.806  27.813  0.00  0.00     0.053 A 
ATOM     13  CAT 17N d   1       7.039  -7.093  31.076  0.00  0.00     0.117 A 
ATOM     14  CAU 17N d   1       8.178  -6.288  27.636  0.00  0.00     0.009 A 
ATOM     15  CAV 17N d   1       8.199  -6.700  28.971  0.00  0.00    -0.009 A 
ATOM     16  CAW 17N d   1       5.813  -6.215  29.169  0.00  0.00     0.012 A 
ATOM     17  CAX 17N d   1       7.020  -6.662  29.741  0.00  0.00     0.024 A 
ATOM     18  H4  17N d   1      11.486  -7.540  29.134  0.00  0.00     0.083 H 
ATOM     19  H5  17N d   1      11.409  -6.805  26.773  0.00  0.00     0.087 H 
ATOM     20  H6  17N d   1       9.453  -7.479  30.539  0.00  0.00     0.084 H 
ATOM     21  H7  17N d   1       3.797  -6.614  31.891  0.00  0.00     0.089 H 
ATOM     22  H8  17N d   1       6.989  -5.506  26.047  0.00  0.00     0.086 H 
ATOM     23  H9  17N d   1       8.018  -7.971  33.937  0.00  0.00     0.118 H 
ATOM     24  H10 17N d   1       7.785  -6.245  33.495  0.00  0.00     0.118 H 
ENDROOT
BRANCH  10  25
ATOM     25  OAL 17N d   1       9.216  -5.879  25.524  0.00  0.00    -0.355 OA
BRANCH  25  26
ATOM     26  CAA 17N d   1      10.376  -6.133  24.697  0.00  0.00     0.010 C 
ATOM     27  H1  17N d   1      10.194  -5.750  23.682  0.00  0.00     0.066 H 
ATOM     28  H2  17N d   1      10.565  -7.216  24.652  0.00  0.00     0.066 H 
ATOM     29  H3  17N d   1      11.252  -5.626  25.128  0.00  0.00     0.066 H 
ENDBRANCH  25  26
ENDBRANCH  10  25
BRANCH  12  30
ATOM     30  CAY 17N d   1       4.772  -5.339  27.142  0.00  0.00     0.210 C 
ATOM     31  OAC 17N d   1       4.122  -4.162  27.614  0.00  0.00    -0.644 OA
ATOM     32  OAE 17N d   1       4.378  -5.923  25.914  0.00  0.00    -0.644 OA
ENDBRANCH  12  30
BRANCH  11  33
ATOM     33  CAO 17N d   1       3.276  -5.803  29.499  0.00  0.00     0.210 C 
ATOM     34  OAB 17N d   1       2.623  -4.888  30.028  0.00  0.00    -0.644 OA
ATOM     35  OAD 17N d   1       2.815  -6.630  28.658  0.00  0.00    -0.644 OA
ENDBRANCH  11  33
TORSDOF 4
