REMARK  10 active torsions:
REMARK  status: ('A' for Active; 'I' for Inactive)
REMARK    1  A    between atoms: C6_2  and  C2_3 
REMARK       I    between atoms: C6_2  and  N16_18 
REMARK    2  A    between atoms: C3_4  and  O20_5 
REMARK    3  A    between atoms: C9_6  and  O21_7 
REMARK    4  A    between atoms: C7_10  and  C13_11 
REMARK    5  A    between atoms: N16_18  and  C27_19 
REMARK    6  A    between atoms: C27_19  and  C19_20 
REMARK    7  A    between atoms: C15_21  and  C12_22 
REMARK    8  A    between atoms: C8_24  and  O22_25 
REMARK    9  A    between atoms: C1_26  and  N28_28 
REMARK   10  A    between atoms: C34_36  and  C37_37 
ROOT
ATOM      1  C19 LU1 d   1      -2.785   9.590  25.323  0.00  0.00    -0.087 C 
ATOM      2  C15 LU1 d   1      -3.380   8.695  24.585  0.00  0.00    -0.078 C 
ATOM      3  H   LU1 d   1      -1.958   9.249  25.947  0.00  0.00     0.079 H 
ATOM      4  H   LU1 d   1      -4.186   9.032  23.933  0.00  0.00     0.080 H 
ENDROOT
BRANCH   1   5
ATOM      5  C27 LU1 d   1      -3.138  11.053  25.391  0.00  0.00     0.010 C 
ATOM      6  H   LU1 d   1      -3.794  11.325  24.564  0.00  0.00     0.070 H 
ATOM      7  H   LU1 d   1      -3.667  11.274  26.318  0.00  0.00     0.070 H 
BRANCH   5   8
ATOM      8  N16 LU1 d   1      -1.885  11.816  25.322  0.00  0.00    -0.353 N 
ATOM      9  C6  LU1 d   1      -1.893  13.069  24.899  0.00  0.00     0.254 C 
ATOM     10  O14 LU1 d   1      -2.941  13.625  24.643  0.00  0.00    -0.268 OA
ATOM     11  H   LU1 d   1      -1.007  11.379  25.601  0.00  0.00     0.163 HD
BRANCH   9  12
ATOM     12  C2  LU1 d   1      -0.561  13.728  24.739  0.00  0.00     0.068 A 
ATOM     13  C3  LU1 d   1       0.650  13.197  25.232  0.00  0.00     0.114 A 
ATOM     14  C9  LU1 d   1       1.839  13.907  24.968  0.00  0.00     0.100 A 
ATOM     15  C10 LU1 d   1       1.801  15.091  24.249  0.00  0.00    -0.037 A 
ATOM     16  C7  LU1 d   1       0.584  15.640  23.758  0.00  0.00    -0.022 A 
ATOM     17  H   LU1 d   1       2.734  15.619  24.053  0.00  0.00     0.089 H 
ATOM     18  C4  LU1 d   1      -0.574  14.917  24.017  0.00  0.00    -0.054 A 
ATOM     19  H   LU1 d   1      -1.525  15.294  23.642  0.00  0.00     0.086 H 
BRANCH  13  20
ATOM     20  O20 LU1 d   1       0.737  12.085  25.971  0.00  0.00    -0.357 OA
ATOM     21  H   LU1 d   1       1.657  11.919  26.190  0.00  0.00     0.217 HD
ENDBRANCH  13  20
BRANCH  14  22
ATOM     22  O21 LU1 d   1       2.982  13.387  25.453  0.00  0.00    -0.358 OA
ATOM     23  H   LU1 d   1       3.116  12.511  25.083  0.00  0.00     0.217 HD
ENDBRANCH  14  22
BRANCH  16  24
ATOM     24  C13 LU1 d   1       0.572  16.908  22.984  0.00  0.00    -0.026 A 
ATOM     25  C17 LU1 d   1       1.413  17.958  23.366  0.00  0.00    -0.069 A 
ATOM     26  C24 LU1 d   1       1.402  19.164  22.640  0.00  0.00    -0.045 A 
ATOM     27  H   LU1 d   1       2.075  17.843  24.224  0.00  0.00     0.085 H 
ATOM     28  C23 LU1 d   1       0.557  19.269  21.552  0.00  0.00     0.116 A 
ATOM     29  H   LU1 d   1       2.045  19.995  22.929  0.00  0.00     0.088 H 
ATOM     30  C25 LU1 d   1      -0.290  18.242  21.169  0.00  0.00    -0.045 A 
ATOM     31  F26 LU1 d   1       0.559  20.400  20.858  0.00  0.00    -0.206 F 
ATOM     32  C18 LU1 d   1      -0.280  17.091  21.893  0.00  0.00    -0.069 A 
ATOM     33  H   LU1 d   1      -0.949  18.354  20.308  0.00  0.00     0.088 H 
ATOM     34  H   LU1 d   1      -0.959  16.285  21.613  0.00  0.00     0.085 H 
ENDBRANCH  16  24
ENDBRANCH   9  12
ENDBRANCH   5   8
ENDBRANCH   1   5
BRANCH   2  35
ATOM     35  C12 LU1 d   1      -3.038   7.243  24.569  0.00  0.00     0.060 C 
ATOM     36  C11 LU1 d   1      -3.660   6.547  23.366  0.00  0.00    -0.010 C 
ATOM     37  C8  LU1 d   1      -5.069   6.278  23.918  0.00  0.00     0.080 C 
ATOM     38  H   LU1 d   1      -3.127   5.656  23.034  0.00  0.00     0.041 H 
ATOM     39  H   LU1 d   1      -3.639   7.130  22.445  0.00  0.00     0.041 H 
ATOM     40  C1  LU1 d   1      -4.701   5.810  25.337  0.00  0.00     0.137 C 
ATOM     41  H   LU1 d   1      -5.743   7.134  23.875  0.00  0.00     0.089 H 
ATOM     42  O5  LU1 d   1      -3.570   6.565  25.740  0.00  0.00    -0.354 OA
ATOM     43  H   LU1 d   1      -4.513   4.737  25.303  0.00  0.00     0.122 H 
ATOM     44  H   LU1 d   1      -1.950   7.189  24.541  0.00  0.00     0.089 H 
BRANCH  37  45
ATOM     45  O22 LU1 d   1      -5.812   5.330  23.179  0.00  0.00    -0.391 OA
ATOM     46  H   LU1 d   1      -5.346   4.491  23.177  0.00  0.00     0.210 HD
ENDBRANCH  37  45
BRANCH  40  47
ATOM     47  N28 LU1 d   1      -5.775   6.021  26.321  0.00  0.00    -0.294 N 
ATOM     48  C29 LU1 d   1      -6.234   5.134  27.227  0.00  0.00     0.165 A 
ATOM     49  C30 LU1 d   1      -7.170   5.858  28.011  0.00  0.00     0.128 A 
ATOM     50  N33 LU1 d   1      -5.968   3.822  27.365  0.00  0.00    -0.222 NA
ATOM     51  N31 LU1 d   1      -7.201   7.157  27.610  0.00  0.00    -0.238 NA
ATOM     52  C34 LU1 d   1      -7.884   5.144  28.936  0.00  0.00     0.064 A 
ATOM     53  C32 LU1 d   1      -6.350   7.245  26.621  0.00  0.00     0.070 A 
ATOM     54  H   LU1 d   1      -6.120   8.172  26.095  0.00  0.00     0.144 H 
ATOM     55  N35 LU1 d   1      -7.595   3.835  29.121  0.00  0.00    -0.244 NA
ATOM     56  C36 LU1 d   1      -6.649   3.250  28.357  0.00  0.00     0.089 A 
ATOM     57  H   LU1 d   1      -6.419   2.207  28.573  0.00  0.00     0.146 H 
BRANCH  52  58
ATOM     58  C37 LU1 d   1      -8.964   5.763  29.738  0.00  0.00    -0.033 C 
ATOM     59  H   LU1 d   1      -8.553   6.584  30.326  0.00  0.00     0.035 H 
ATOM     60  H   LU1 d   1      -9.738   6.143  29.071  0.00  0.00     0.035 H 
ATOM     61  H   LU1 d   1      -9.393   5.016  30.406  0.00  0.00     0.035 H 
ENDBRANCH  52  58
ENDBRANCH  40  47
ENDBRANCH   2  35
TORSDOF 10
