REMARK  17 active torsions:
REMARK  status: ('A' for Active; 'I' for Inactive)
REMARK    1  A    between atoms: C_1  and  CH3_3 
REMARK       I    between atoms: C_1  and  N_4 
REMARK    2  A    between atoms: N_4  and  CA_5 
REMARK    3  A    between atoms: CA_5  and  C_6 
REMARK    4  A    between atoms: CA_5  and  CB_8 
REMARK       I    between atoms: C_6  and  N_12 
REMARK    5  A    between atoms: CB_8  and  CG_9 
REMARK    6  A    between atoms: N_12  and  CA_13 
REMARK    7  A    between atoms: CA_13  and  C_14 
REMARK    8  A    between atoms: CA_13  and  CB_16 
REMARK       I    between atoms: C_14  and  N_19 
REMARK    9  A    between atoms: CB_16  and  CG1_17 
REMARK   10  A    between atoms: CB_16  and  CG2_18 
REMARK   11  A    between atoms: N_19  and  CA_20 
REMARK   12  A    between atoms: CA_20  and  C_21 
REMARK   13  A    between atoms: CA_20  and  CB_23 
REMARK       I    between atoms: C_21  and  N_24 
REMARK   14  A    between atoms: N_24  and  CA_25 
REMARK   15  A    between atoms: CA_25  and  C_26 
REMARK   16  A    between atoms: CA_25  and  CB_28 
REMARK   17  A    between atoms: CB_28  and  CG_29 
ROOT
ATOM      1  CA  VAL d   1       0.787  26.537  25.800  0.00  0.00     0.092 C 
ATOM      2  H   VAL d   1       0.138  27.230  26.336  0.00  0.00     0.088 H 
ENDROOT
BRANCH   1   3
ATOM      3  N   VAL d   1       1.813  26.054  26.732  0.00  0.00    -0.346 N 
ATOM      4  C   ASP d   1       2.084  26.654  27.894  0.00  0.00     0.241 C 
ATOM      5  O   ASP d   1       1.548  27.705  28.254  0.00  0.00    -0.271 OA
ATOM      6  H   VAL d   1       2.344  25.221  26.480  0.00  0.00     0.163 HD
BRANCH   4   7
ATOM      7  CA  ASP d   1       3.147  25.994  28.764  0.00  0.00     0.098 C 
ATOM      8  H   ASP d   1       3.700  25.292  28.140  0.00  0.00     0.088 H 
BRANCH   7   9
ATOM      9  N   ASP d   1       4.079  27.000  29.282  0.00  0.00    -0.348 N 
ATOM     10  C   ACE d   1       5.107  27.412  28.546  0.00  0.00     0.214 C 
ATOM     11  O   ACE d   1       5.241  27.035  27.377  0.00  0.00    -0.274 OA
ATOM     12  H   ASP d   1       3.938  27.387  30.215  0.00  0.00     0.163 HD
BRANCH  10  13
ATOM     13  CH3 ACE d   1       6.019  28.449  29.160  0.00  0.00    -0.003 C 
ATOM     14  H   ACE d   1       7.047  28.087  29.135  0.00  0.00     0.040 H 
ATOM     15  H   ACE d   1       5.945  29.377  28.593  0.00  0.00     0.040 H 
ATOM     16  H   ACE d   1       5.720  28.628  30.193  0.00  0.00     0.040 H 
ENDBRANCH  10  13
ENDBRANCH   7   9
BRANCH   7  17
ATOM     17  CB  ASP d   1       2.518  25.193  29.915  0.00  0.00     0.043 C 
ATOM     18  H   ASP d   1       1.761  24.532  29.493  0.00  0.00     0.052 H 
ATOM     19  H   ASP d   1       2.096  25.901  30.629  0.00  0.00     0.052 H 
BRANCH  17  20
ATOM     20  CG  ASP d   1       3.536  24.339  30.644  0.00  0.00     0.175 C 
ATOM     21  OD1 ASP d   1       4.287  23.598  29.964  0.00  0.00    -0.648 OA
ATOM     22  OD2 ASP d   1       3.590  24.390  31.898  0.00  0.00    -0.648 OA
ENDBRANCH  17  20
ENDBRANCH   7  17
ENDBRANCH   4   7
ENDBRANCH   1   3
BRANCH   1  23
ATOM     23  C   VAL d   1      -0.022  25.331  25.280  0.00  0.00     0.241 C 
ATOM     24  O   VAL d   1       0.406  24.188  25.454  0.00  0.00    -0.271 OA
ATOM     25  N   ALA d   1      -1.150  25.589  24.609  0.00  0.00    -0.346 N 
ATOM     26  H   ALA d   1      -1.428  26.559  24.460  0.00  0.00     0.163 HD
BRANCH  25  27
ATOM     27  CA  ALA d   1      -2.006  24.503  24.077  0.00  0.00     0.086 C 
ATOM     28  H   ALA d   1      -1.774  23.628  24.684  0.00  0.00     0.086 H 
BRANCH  27  29
ATOM     29  C   ALA d   1      -1.711  24.108  22.633  0.00  0.00     0.240 C 
ATOM     30  O   ALA d   1      -1.469  24.970  21.788  0.00  0.00    -0.271 OA
ATOM     31  N   ASA d   1      -1.769  22.807  22.349  0.00  0.00    -0.344 N 
ATOM     32  H   ASA d   1      -1.866  22.145  23.119  0.00  0.00     0.163 HD
BRANCH  31  33
ATOM     33  CA  ASA d   1      -1.700  22.284  20.979  0.00  0.00     0.105 C 
ATOM     34  H   ASA d   1      -0.997  22.931  20.454  0.00  0.00     0.090 H 
BRANCH  33  35
ATOM     35  C   ASA d   1      -3.025  22.364  20.207  0.00  0.00     0.197 C 
ATOM     36  O   ASA d   1      -3.380  21.452  19.413  0.00  0.00    -0.646 OA
ATOM     37  O   ASA d   1      -3.774  23.364  20.371  0.00  0.00    -0.646 OA
ENDBRANCH  33  35
BRANCH  33  38
ATOM     38  CB  ASA d   1      -1.202  20.840  20.987  0.00  0.00     0.044 C 
ATOM     39  H   ASA d   1      -1.792  20.274  20.266  0.00  0.00     0.053 H 
ATOM     40  H   ASA d   1      -1.306  20.452  22.000  0.00  0.00     0.053 H 
BRANCH  38  41
ATOM     41  CG  ASA d   1       0.245  20.734  20.592  0.00  0.00     0.175 C 
ATOM     42  OD1 ASA d   1       0.866  19.714  20.955  0.00  0.00    -0.648 OA
ATOM     43  OD2 ASA d   1       0.739  21.679  19.921  0.00  0.00    -0.648 OA
ENDBRANCH  38  41
ENDBRANCH  33  38
ENDBRANCH  31  33
ENDBRANCH  27  29
BRANCH  27  44
ATOM     44  CB  ALA d   1      -3.479  24.889  24.204  0.00  0.00    -0.049 C 
ATOM     45  H   ALA d   1      -3.720  25.055  25.254  0.00  0.00     0.030 H 
ATOM     46  H   ALA d   1      -3.664  25.802  23.638  0.00  0.00     0.030 H 
ATOM     47  H   ALA d   1      -4.099  24.084  23.810  0.00  0.00     0.030 H 
ENDBRANCH  27  44
ENDBRANCH  25  27
ENDBRANCH   1  23
BRANCH   1  48
ATOM     48  CB  VAL d   1       1.406  27.323  24.597  0.00  0.00    -0.033 C 
ATOM     49  H   VAL d   1       0.574  27.694  23.999  0.00  0.00     0.042 H 
BRANCH  48  50
ATOM     50  CG1 VAL d   1       2.248  28.533  25.083  0.00  0.00    -0.071 C 
ATOM     51  H   VAL d   1       1.612  29.213  25.650  0.00  0.00     0.028 H 
ATOM     52  H   VAL d   1       3.059  28.178  25.718  0.00  0.00     0.028 H 
ATOM     53  H   VAL d   1       2.662  29.055  24.221  0.00  0.00     0.028 H 
ENDBRANCH  48  50
BRANCH  48  54
ATOM     54  CG2 VAL d   1       2.259  26.429  23.744  0.00  0.00    -0.071 C 
ATOM     55  H   VAL d   1       3.070  26.020  24.346  0.00  0.00     0.028 H 
ATOM     56  H   VAL d   1       1.650  25.615  23.351  0.00  0.00     0.028 H 
ATOM     57  H   VAL d   1       2.674  27.006  22.917  0.00  0.00     0.028 H 
ENDBRANCH  48  54
ENDBRANCH   1  48
TORSDOF 17
