REMARK  17 active torsions:
REMARK  status: ('A' for Active; 'I' for Inactive)
REMARK    1  A    between atoms: C_1  and  CH3_3 
REMARK       I    between atoms: C_1  and  N_4 
REMARK    2  A    between atoms: N_4  and  CA_5 
REMARK    3  A    between atoms: CA_5  and  C_6 
REMARK    4  A    between atoms: CA_5  and  CB_8 
REMARK       I    between atoms: C_6  and  N_12 
REMARK    5  A    between atoms: CB_8  and  CG_9 
REMARK    6  A    between atoms: N_12  and  CA_13 
REMARK    7  A    between atoms: CA_13  and  C_14 
REMARK    8  A    between atoms: CA_13  and  CB_16 
REMARK       I    between atoms: C_14  and  N_19 
REMARK    9  A    between atoms: CB_16  and  CG1_17 
REMARK   10  A    between atoms: CB_16  and  CG2_18 
REMARK   11  A    between atoms: N_19  and  CA_20 
REMARK   12  A    between atoms: CA_20  and  C_21 
REMARK   13  A    between atoms: CA_20  and  CB_23 
REMARK       I    between atoms: C_21  and  N_24 
REMARK   14  A    between atoms: N_24  and  CA_25 
REMARK   15  A    between atoms: CA_25  and  C_26 
REMARK   16  A    between atoms: CA_25  and  CB_28 
REMARK   17  A    between atoms: CB_28  and  CG_29 
ROOT
ATOM      1  CA  VAL d   1     -28.444   9.815  32.821  0.00  0.00     0.092 C 
ATOM      2  H   VAL d   1     -28.407   9.874  33.909  0.00  0.00     0.088 H 
ENDROOT
BRANCH   1   3
ATOM      3  N   VAL d   1     -27.875  11.063  32.294  0.00  0.00    -0.346 N 
ATOM      4  C   ASP d   1     -27.704  12.166  33.023  0.00  0.00     0.241 C 
ATOM      5  O   ASP d   1     -28.094  12.274  34.192  0.00  0.00    -0.271 OA
ATOM      6  H   VAL d   1     -27.595  11.087  31.314  0.00  0.00     0.163 HD
BRANCH   4   7
ATOM      7  CA  ASP d   1     -27.023  13.324  32.328  0.00  0.00     0.098 C 
ATOM      8  H   ASP d   1     -27.102  13.104  31.263  0.00  0.00     0.088 H 
BRANCH   7   9
ATOM      9  N   ASP d   1     -27.681  14.604  32.612  0.00  0.00    -0.348 N 
ATOM     10  C   ACE d   1     -28.792  15.016  32.003  0.00  0.00     0.214 C 
ATOM     11  O   ACE d   1     -29.268  14.381  31.039  0.00  0.00    -0.274 OA
ATOM     12  H   ASP d   1     -27.264  15.213  33.316  0.00  0.00     0.163 HD
BRANCH  10  13
ATOM     13  CH3 ACE d   1     -29.251  16.406  32.422  0.00  0.00    -0.003 C 
ATOM     14  H   ACE d   1     -29.094  17.103  31.598  0.00  0.00     0.040 H 
ATOM     15  H   ACE d   1     -30.310  16.376  32.678  0.00  0.00     0.040 H 
ATOM     16  H   ACE d   1     -28.676  16.731  33.289  0.00  0.00     0.040 H 
ENDBRANCH  10  13
ENDBRANCH   7   9
BRANCH   7  17
ATOM     17  CB  ASP d   1     -25.547  13.446  32.708  0.00  0.00     0.043 C 
ATOM     18  H   ASP d   1     -25.081  12.467  32.600  0.00  0.00     0.052 H 
ATOM     19  H   ASP d   1     -25.484  13.808  33.734  0.00  0.00     0.052 H 
BRANCH  17  20
ATOM     20  CG  ASP d   1     -24.828  14.415  31.818  0.00  0.00     0.175 C 
ATOM     21  OD1 ASP d   1     -24.997  14.312  30.573  0.00  0.00    -0.648 OA
ATOM     22  OD2 ASP d   1     -24.112  15.288  32.331  0.00  0.00    -0.648 OA
ENDBRANCH  17  20
ENDBRANCH   7  17
ENDBRANCH   4   7
ENDBRANCH   1   3
BRANCH   1  23
ATOM     23  C   VAL d   1     -27.625   8.649  32.276  0.00  0.00     0.241 C 
ATOM     24  O   VAL d   1     -26.786   8.827  31.399  0.00  0.00    -0.271 OA
ATOM     25  N   ALA d   1     -27.905   7.446  32.767  0.00  0.00    -0.346 N 
ATOM     26  H   ALA d   1     -28.635   7.375  33.476  0.00  0.00     0.163 HD
BRANCH  25  27
ATOM     27  CA  ALA d   1     -27.223   6.211  32.348  0.00  0.00     0.086 C 
ATOM     28  H   ALA d   1     -26.263   6.529  31.943  0.00  0.00     0.086 H 
BRANCH  27  29
ATOM     29  C   ALA d   1     -27.877   5.415  31.176  0.00  0.00     0.240 C 
ATOM     30  O   ALA d   1     -29.109   5.301  31.081  0.00  0.00    -0.271 OA
ATOM     31  N   ASA d   1     -27.037   4.856  30.296  0.00  0.00    -0.344 N 
ATOM     32  H   ASA d   1     -26.057   5.139  30.314  0.00  0.00     0.163 HD
BRANCH  31  33
ATOM     33  CA  ASA d   1     -27.464   3.840  29.291  0.00  0.00     0.105 C 
ATOM     34  H   ASA d   1     -28.475   4.134  29.009  0.00  0.00     0.090 H 
BRANCH  33  35
ATOM     35  C   ASA d   1     -27.626   2.388  29.835  0.00  0.00     0.197 C 
ATOM     36  O   ASA d   1     -27.389   1.367  29.137  0.00  0.00    -0.646 OA
ATOM     37  O   ASA d   1     -28.011   2.229  31.024  0.00  0.00    -0.646 OA
ENDBRANCH  33  35
BRANCH  33  38
ATOM     38  CB  ASA d   1     -26.552   3.879  28.044  0.00  0.00     0.044 C 
ATOM     39  H   ASA d   1     -26.518   2.875  27.621  0.00  0.00     0.053 H 
ATOM     40  H   ASA d   1     -25.570   4.235  28.357  0.00  0.00     0.053 H 
BRANCH  38  41
ATOM     41  CG  ASA d   1     -27.072   4.822  26.970  0.00  0.00     0.175 C 
ATOM     42  OD1 ASA d   1     -26.235   5.348  26.214  0.00  0.00    -0.648 OA
ATOM     43  OD2 ASA d   1     -28.311   5.028  26.873  0.00  0.00    -0.648 OA
ENDBRANCH  38  41
ENDBRANCH  33  38
ENDBRANCH  31  33
ENDBRANCH  27  29
BRANCH  27  44
ATOM     44  CB  ALA d   1     -27.087   5.314  33.562  0.00  0.00    -0.049 C 
ATOM     45  H   ALA d   1     -26.503   5.826  34.327  0.00  0.00     0.030 H 
ATOM     46  H   ALA d   1     -28.077   5.083  33.954  0.00  0.00     0.030 H 
ATOM     47  H   ALA d   1     -26.584   4.391  33.275  0.00  0.00     0.030 H 
ENDBRANCH  27  44
ENDBRANCH  25  27
ENDBRANCH   1  23
BRANCH   1  48
ATOM     48  CB  VAL d   1     -29.960   9.597  32.417  0.00  0.00    -0.033 C 
ATOM     49  H   VAL d   1     -30.219   8.600  32.773  0.00  0.00     0.042 H 
BRANCH  48  50
ATOM     50  CG1 VAL d   1     -30.919  10.603  33.137  0.00  0.00    -0.071 C 
ATOM     51  H   VAL d   1     -30.835  10.474  34.216  0.00  0.00     0.028 H 
ATOM     52  H   VAL d   1     -30.642  11.623  32.869  0.00  0.00     0.028 H 
ATOM     53  H   VAL d   1     -31.946  10.411  32.825  0.00  0.00     0.028 H 
ENDBRANCH  48  50
BRANCH  48  54
ATOM     54  CG2 VAL d   1     -30.186   9.577  30.877  0.00  0.00    -0.071 C 
ATOM     55  H   VAL d   1     -29.864  10.527  30.451  0.00  0.00     0.028 H 
ATOM     56  H   VAL d   1     -29.607   8.765  30.437  0.00  0.00     0.028 H 
ATOM     57  H   VAL d   1     -31.245   9.424  30.668  0.00  0.00     0.028 H 
ENDBRANCH  48  54
ENDBRANCH   1  48
TORSDOF 17
