REMARK  3 active torsions:
REMARK  status: ('A' for Active; 'I' for Inactive)
REMARK       I    between atoms: C12_16  and  N1_2 
REMARK    1  A    between atoms: N1_2  and  C13_17 
REMARK    2  A    between atoms: N1_2  and  C19_23 
REMARK    3  A    between atoms: C11_15  and  C12_16 
ROOT
ATOM      1  C1  FAV d   1      16.488  62.554  21.242  0.00  0.00    -0.082 A 
ATOM      2  O1  FAV d   1      18.419  59.639  23.571  0.00  0.00    -0.346 OA
ATOM      3  S1  FAV d   1      20.995  61.542  20.441  0.00  0.00    -0.083 SA
ATOM      4  C2  FAV d   1      15.793  61.834  22.212  0.00  0.00    -0.080 A 
ATOM      5  C3  FAV d   1      16.432  60.867  22.993  0.00  0.00    -0.050 A 
ATOM      6  C4  FAV d   1      17.780  60.583  22.815  0.00  0.00     0.080 A 
ATOM      7  C5  FAV d   1      18.464  61.291  21.822  0.00  0.00     0.015 A 
ATOM      8  C6  FAV d   1      17.833  62.272  21.052  0.00  0.00    -0.069 A 
ATOM      9  C7  FAV d   1      19.834  59.609  23.816  0.00  0.00     0.051 C 
ATOM     10  C8  FAV d   1      20.578  60.206  22.631  0.00  0.00    -0.015 A 
ATOM     11  C9  FAV d   1      19.901  60.985  21.684  0.00  0.00     0.027 A 
ATOM     12  C10 FAV d   1      21.908  60.059  22.354  0.00  0.00    -0.051 A 
ATOM     13  C11 FAV d   1      22.346  60.686  21.220  0.00  0.00     0.074 A 
ATOM     14  H1  FAV d   1      15.991  63.315  20.651  0.00  0.00     0.083 H 
ATOM     15  H2  FAV d   1      14.737  62.028  22.363  0.00  0.00     0.083 H 
ATOM     16  H3  FAV d   1      15.868  60.331  23.748  0.00  0.00     0.087 H 
ATOM     17  H4  FAV d   1      18.397  62.815  20.303  0.00  0.00     0.085 H 
ATOM     18  H5  FAV d   1      20.157  58.568  23.962  0.00  0.00     0.082 H 
ATOM     19  H6  FAV d   1      20.060  60.193  24.720  0.00  0.00     0.082 H 
ATOM     20  H7  FAV d   1      22.574  59.481  22.993  0.00  0.00     0.086 H 
ENDROOT
BRANCH  13  21
ATOM     21  C12 FAV d   1      23.754  60.632  20.807  0.00  0.00     0.265 C 
ATOM     22  N1  FAV d   1      24.244  61.212  19.684  0.00  0.00    -0.316 N 
ATOM     23  O2  FAV d   1      24.525  60.065  21.554  0.00  0.00    -0.267 OA
BRANCH  22  24
ATOM     24  C13 FAV d   1      23.444  61.934  18.780  0.00  0.00     0.058 A 
ATOM     25  C14 FAV d   1      23.406  63.320  18.934  0.00  0.00    -0.055 A 
ATOM     26  C15 FAV d   1      22.649  64.127  18.093  0.00  0.00    -0.081 A 
ATOM     27  H8  FAV d   1      23.981  63.779  19.730  0.00  0.00     0.087 H 
ATOM     28  C16 FAV d   1      21.918  63.547  17.075  0.00  0.00    -0.081 A 
ATOM     29  H9  FAV d   1      22.633  65.202  18.235  0.00  0.00     0.083 H 
ATOM     30  C17 FAV d   1      21.948  62.165  16.898  0.00  0.00    -0.060 A 
ATOM     31  H10 FAV d   1      21.322  64.166  16.414  0.00  0.00     0.083 H 
ATOM     32  C18 FAV d   1      22.702  61.348  17.739  0.00  0.00     0.060 A 
ATOM     33  H11 FAV d   1      21.376  61.718  16.093  0.00  0.00     0.086 H 
ATOM     34 CL1  FAV d   1      22.689  59.635  17.468  0.00  0.00    -0.082 Cl
ENDBRANCH  22  24
BRANCH  22  35
ATOM     35  C19 FAV d   1      25.677  61.103  19.419  0.00  0.00    -0.011 C 
ATOM     36  H12 FAV d   1      26.153  60.511  20.215  0.00  0.00     0.057 H 
ATOM     37  H13 FAV d   1      26.123  62.108  19.393  0.00  0.00     0.057 H 
ATOM     38  H14 FAV d   1      25.834  60.607  18.450  0.00  0.00     0.057 H 
ENDBRANCH  22  35
ENDBRANCH  13  21
TORSDOF 3
