REMARK  5 active torsions:
REMARK  status: ('A' for Active; 'I' for Inactive)
REMARK    1  A    between atoms: C1_1  and  N2_6 
REMARK       I    between atoms: C13_19  and  N1_2 
REMARK    2  A    between atoms: N1_2  and  C14_20 
REMARK    3  A    between atoms: N1_2  and  C22_28 
REMARK       I    between atoms: N2_6  and  C20_26 
REMARK    4  A    between atoms: C11_17  and  C13_19 
REMARK    5  A    between atoms: C20_26  and  C21_27 
ROOT
ATOM      1  C1  FAZ d   1      17.496  62.813  22.322  0.00  0.00     0.037 A 
ATOM      2  O1  FAZ d   1      19.233  60.241  24.095  0.00  0.00    -0.350 OA
ATOM      3  S1  FAZ d   1      22.646  62.063  21.328  0.00  0.00    -0.083 SA
ATOM      4  C2  FAZ d   1      18.495  63.400  21.564  0.00  0.00    -0.056 A 
ATOM      5  C3  FAZ d   1      19.778  62.928  21.653  0.00  0.00    -0.067 A 
ATOM      6  C4  FAZ d   1      20.095  61.866  22.476  0.00  0.00     0.015 A 
ATOM      7  C5  FAZ d   1      19.065  61.266  23.246  0.00  0.00     0.082 A 
ATOM      8  C6  FAZ d   1      17.791  61.754  23.150  0.00  0.00    -0.024 A 
ATOM      9  C7  FAZ d   1      21.506  61.451  22.468  0.00  0.00     0.025 A 
ATOM     10  C8  FAZ d   1      22.146  60.579  23.311  0.00  0.00    -0.037 A 
ATOM     11  C9  FAZ d   1      21.467  59.866  24.437  0.00  0.00    -0.019 C 
ATOM     12  C10 FAZ d   1      20.212  59.257  23.863  0.00  0.00     0.030 C 
ATOM     13  C11 FAZ d   1      23.954  61.124  22.003  0.00  0.00     0.074 A 
ATOM     14  C12 FAZ d   1      23.468  60.411  23.036  0.00  0.00    -0.053 A 
ATOM     15  H   FAZ d   1      18.262  64.233  20.900  0.00  0.00     0.086 H 
ATOM     16  H   FAZ d   1      20.564  63.400  21.063  0.00  0.00     0.085 H 
ATOM     17  H   FAZ d   1      16.996  61.297  23.739  0.00  0.00     0.091 H 
ATOM     18  H   FAZ d   1      21.231  60.554  25.249  0.00  0.00     0.043 H 
ATOM     19  H   FAZ d   1      22.115  59.099  24.860  0.00  0.00     0.043 H 
ATOM     20  H   FAZ d   1      20.313  59.010  22.806  0.00  0.00     0.075 H 
ATOM     21  H   FAZ d   1      19.962  58.302  24.325  0.00  0.00     0.075 H 
ATOM     22  H   FAZ d   1      24.097  59.738  23.619  0.00  0.00     0.086 H 
ENDROOT
BRANCH  13  23
ATOM     23  C13 FAZ d   1      25.337  61.078  21.574  0.00  0.00     0.265 C 
ATOM     24  N1  FAZ d   1      25.818  61.789  20.553  0.00  0.00    -0.316 N 
ATOM     25  O2  FAZ d   1      26.111  60.360  22.166  0.00  0.00    -0.267 OA
BRANCH  24  26
ATOM     26  C14 FAZ d   1      25.019  62.647  19.823  0.00  0.00     0.058 A 
ATOM     27  C15 FAZ d   1      24.978  63.992  20.122  0.00  0.00    -0.055 A 
ATOM     28  C16 FAZ d   1      24.169  64.815  19.365  0.00  0.00    -0.081 A 
ATOM     29  H   FAZ d   1      25.573  64.398  20.940  0.00  0.00     0.087 H 
ATOM     30  C17 FAZ d   1      23.402  64.304  18.317  0.00  0.00    -0.081 A 
ATOM     31  H   FAZ d   1      24.128  65.881  19.589  0.00  0.00     0.083 H 
ATOM     32  C18 FAZ d   1      23.448  62.965  18.024  0.00  0.00    -0.060 A 
ATOM     33  H   FAZ d   1      22.767  64.969  17.732  0.00  0.00     0.083 H 
ATOM     34  C19 FAZ d   1      24.263  62.161  18.783  0.00  0.00     0.060 A 
ATOM     35  H   FAZ d   1      22.854  62.550  17.210  0.00  0.00     0.086 H 
ATOM     36 CL1  FAZ d   1      24.341  60.485  18.439  0.00  0.00    -0.082 Cl
ENDBRANCH  24  26
BRANCH  24  37
ATOM     37  C22 FAZ d   1      27.228  61.659  20.235  0.00  0.00    -0.011 C 
ATOM     38  H   FAZ d   1      27.823  61.962  21.097  0.00  0.00     0.057 H 
ATOM     39  H   FAZ d   1      27.449  60.621  19.986  0.00  0.00     0.057 H 
ATOM     40  H   FAZ d   1      27.468  62.297  19.384  0.00  0.00     0.057 H 
ENDBRANCH  24  37
ENDBRANCH  13  23
BRANCH   1  41
ATOM     41  N2  FAZ d   1      16.181  63.254  22.266  0.00  0.00    -0.327 N 
ATOM     42  C20 FAZ d   1      15.886  64.537  22.020  0.00  0.00     0.218 C 
ATOM     43  O3  FAZ d   1      16.763  65.354  21.846  0.00  0.00    -0.274 OA
ATOM     44  H   FAZ d   1      15.424  62.587  22.415  0.00  0.00     0.169 HD
BRANCH  42  45
ATOM     45  C21 FAZ d   1      14.442  64.939  21.976  0.00  0.00    -0.003 C 
ATOM     46  H   FAZ d   1      14.251  65.687  22.745  0.00  0.00     0.040 H 
ATOM     47  H   FAZ d   1      14.212  65.357  20.996  0.00  0.00     0.040 H 
ATOM     48  H   FAZ d   1      13.817  64.064  22.155  0.00  0.00     0.040 H 
ENDBRANCH  42  45
ENDBRANCH   1  41
TORSDOF 5
