REMARK  8 active torsions:
REMARK  status: ('A' for Active; 'I' for Inactive)
REMARK    1  A    between atoms: C1_1  and  C2_2 
REMARK    2  A    between atoms: C2_2  and  C3_3 
REMARK    3  A    between atoms: C3_3  and  N4_4 
REMARK    4  A    between atoms: N4_4  and  C5_5 
REMARK    5  A    between atoms: C7_7  and  C11_11 
REMARK    6  A    between atoms: C8_8  and  N10_10 
REMARK    7  A    between atoms: C11_11  and  C12_12 
REMARK    8  A    between atoms: C11_11  and  O22_22 
ROOT
ATOM      1  C11 Z31 d   1     -67.282-115.837 -49.354  0.00  0.00     0.096 C 
ATOM      2  H11 Z31 d   1     -68.080-116.563 -49.139  0.00  0.00     0.099 H 
ENDROOT
BRANCH   1   3
ATOM      3  C7  Z31 d   1     -66.397-116.869 -49.535  0.00  0.00     0.065 A 
ATOM      4  S6  Z31 d   1     -65.475-117.488 -48.236  0.00  0.00    -0.050 SA
ATOM      5  C5  Z31 d   1     -64.724-118.585 -49.304  0.00  0.00     0.169 A 
ATOM      6  N9  Z31 d   1     -65.142-118.510 -50.568  0.00  0.00    -0.206 NA
ATOM      7  C8  Z31 d   1     -66.084-117.557 -50.724  0.00  0.00     0.140 A 
BRANCH   5   8
ATOM      8  N4  Z31 d   1     -63.757-119.479 -48.923  0.00  0.00    -0.369 N 
ATOM      9  H8  Z31 d   1     -63.200-119.974 -49.634  0.00  0.00     0.161 HD
BRANCH   8  10
ATOM     10  C3  Z31 d   1     -63.522-119.726 -47.501  0.00  0.00    -0.006 C 
ATOM     11  H6  Z31 d   1     -64.256-119.159 -46.910  0.00  0.00     0.064 H 
ATOM     12  H7  Z31 d   1     -63.638-120.801 -47.297  0.00  0.00     0.064 H 
BRANCH  10  13
ATOM     13  C2  Z31 d   1     -62.266-119.336 -47.148  0.00  0.00    -0.054 C 
ATOM     14  H4  Z31 d   1     -61.980-119.957 -46.286  0.00  0.00     0.034 H 
ATOM     15  H5  Z31 d   1     -61.616-119.574 -48.003  0.00  0.00     0.034 H 
BRANCH  13  16
ATOM     16  C1  Z31 d   1     -61.965-117.942 -46.774  0.00  0.00    -0.075 C 
ATOM     17  H1  Z31 d   1     -60.897-117.851 -46.527  0.00  0.00     0.027 H 
ATOM     18  H2  Z31 d   1     -62.569-117.659 -45.899  0.00  0.00     0.027 H 
ATOM     19  H3  Z31 d   1     -62.205-117.276 -47.616  0.00  0.00     0.027 H 
ENDBRANCH  13  16
ENDBRANCH  10  13
ENDBRANCH   8  10
ENDBRANCH   5   8
BRANCH   7  20
ATOM     20  N10 Z31 d   1     -66.623-117.329 -51.933  0.00  0.00    -0.383 N 
ATOM     21  H9  Z31 d   1     -66.325-117.890 -52.744  0.00  0.00     0.157 HD
ATOM     22  H10 Z31 d   1     -67.335-116.593 -52.049  0.00  0.00     0.157 HD
ENDBRANCH   7  20
ENDBRANCH   1   3
BRANCH   1  23
ATOM     23  C12 Z31 d   1     -67.483-115.193 -48.007  0.00  0.00    -0.024 A 
ATOM     24  C13 Z31 d   1     -67.711-115.977 -46.816  0.00  0.00    -0.063 A 
ATOM     25  C14 Z31 d   1     -67.868-115.342 -45.545  0.00  0.00    -0.025 A 
ATOM     26  H12 Z31 d   1     -67.764-117.057 -46.886  0.00  0.00     0.085 H 
ATOM     27  C15 Z31 d   1     -67.800-113.891 -45.460  0.00  0.00    -0.026 A 
ATOM     28  C18 Z31 d   1     -68.087-116.115 -44.353  0.00  0.00    -0.072 A 
ATOM     29  C16 Z31 d   1     -67.582-113.126 -46.638  0.00  0.00    -0.072 A 
ATOM     30  C21 Z31 d   1     -67.950-113.250 -44.186  0.00  0.00    -0.072 A 
ATOM     31  C17 Z31 d   1     -67.422-113.771 -47.902  0.00  0.00    -0.073 A 
ATOM     32  H13 Z31 d   1     -67.537-112.045 -46.576  0.00  0.00     0.084 H 
ATOM     33  H14 Z31 d   1     -67.252-113.174 -48.791  0.00  0.00     0.084 H 
ATOM     34  C20 Z31 d   1     -68.165-114.033 -43.014  0.00  0.00    -0.082 A 
ATOM     35  H18 Z31 d   1     -67.900-112.170 -44.114  0.00  0.00     0.084 H 
ATOM     36  C19 Z31 d   1     -68.234-115.455 -43.095  0.00  0.00    -0.082 A 
ATOM     37  H17 Z31 d   1     -68.277-113.543 -42.053  0.00  0.00     0.083 H 
ATOM     38  H16 Z31 d   1     -68.399-116.038 -42.197  0.00  0.00     0.083 H 
ATOM     39  H15 Z31 d   1     -68.140-117.196 -44.409  0.00  0.00     0.084 H 
ENDBRANCH   1  23
BRANCH   1  40
ATOM     40  O22 Z31 d   1     -67.996-115.334 -50.395  0.00  0.00    -0.386 OA
ATOM     41  H19 Z31 d   1     -67.786-115.818 -51.185  0.00  0.00     0.210 HD
ENDBRANCH   1  40
TORSDOF 8
