REMARK  9 active torsions:
REMARK  status: ('A' for Active; 'I' for Inactive)
REMARK    1  A    between atoms: C2_2  and  N3_3 
REMARK    2  A    between atoms: C4_4  and  C5_5 
REMARK    3  A    between atoms: C5_5  and  C6_6 
REMARK    4  A    between atoms: C5_5  and  O12_12 
REMARK    5  A    between atoms: C8_8  and  N19_19 
REMARK    6  A    between atoms: C14_14  and  N15_15 
REMARK    7  A    between atoms: N15_15  and  C16_16 
REMARK    8  A    between atoms: C16_16  and  C17_17 
REMARK    9  A    between atoms: C17_17  and  C18_18 
ROOT
ATOM      1  N1  Z62 d   1     -65.044 -81.956 -86.849  0.00  0.00    -0.206 NA
ATOM      2  C2  Z62 d   1     -65.962 -80.985 -86.985  0.00  0.00     0.140 A 
ATOM      3  C4  Z62 d   1     -66.245 -80.290 -85.780  0.00  0.00     0.065 A 
ATOM      4  S13 Z62 d   1     -65.317 -80.925 -84.478  0.00  0.00    -0.050 SA
ATOM      5  C14 Z62 d   1     -64.604 -82.044 -85.569  0.00  0.00     0.169 A 
ENDROOT
BRANCH   3   6
ATOM      6  C5  Z62 d   1     -67.123 -79.238 -85.611  0.00  0.00     0.096 C 
ATOM      7  H3  Z62 d   1     -67.924 -79.960 -85.394  0.00  0.00     0.099 H 
BRANCH   6   8
ATOM      8  C6  Z62 d   1     -67.384 -78.542 -84.310  0.00  0.00    -0.022 A 
ATOM      9  C7  Z62 d   1     -67.548 -79.273 -83.082  0.00  0.00    -0.042 A 
ATOM     10  C8  Z62 d   1     -67.819 -78.609 -81.837  0.00  0.00     0.103 A 
ATOM     11  H4  Z62 d   1     -67.465 -80.354 -83.096  0.00  0.00     0.088 H 
ATOM     12  C9  Z62 d   1     -67.927 -77.166 -81.864  0.00  0.00    -0.051 A 
ATOM     13  C10 Z62 d   1     -67.767 -76.438 -83.071  0.00  0.00    -0.080 A 
ATOM     14  H5  Z62 d   1     -68.134 -76.631 -80.944  0.00  0.00     0.087 H 
ATOM     15  C11 Z62 d   1     -67.496 -77.116 -84.290  0.00  0.00    -0.074 A 
ATOM     16  H6  Z62 d   1     -67.852 -75.357 -83.063  0.00  0.00     0.083 H 
ATOM     17  H7  Z62 d   1     -67.374 -76.551 -85.207  0.00  0.00     0.084 H 
BRANCH  10  18
ATOM     18  N19 Z62 d   1     -67.964 -79.309 -80.697  0.00  0.00    -0.116 N 
ATOM     19  O20 Z62 d   1     -67.852 -80.640 -80.673  0.00  0.00    -0.532 OA
ATOM     20  O21 Z62 d   1     -68.200 -78.766 -79.641  0.00  0.00    -0.532 OA
ENDBRANCH  10  18
ENDBRANCH   6   8
BRANCH   6  21
ATOM     21  O12 Z62 d   1     -67.807 -78.749 -86.661  0.00  0.00    -0.386 OA
ATOM     22  H8  Z62 d   1     -67.584 -79.244 -87.441  0.00  0.00     0.210 HD
ENDBRANCH   6  21
ENDBRANCH   3   6
BRANCH   2  23
ATOM     23  N3  Z62 d   1     -66.528 -80.737 -88.199  0.00  0.00    -0.383 N 
ATOM     24  H1  Z62 d   1     -67.231 -79.991 -88.296  0.00  0.00     0.157 HD
ATOM     25  H2  Z62 d   1     -66.253 -81.296 -89.019  0.00  0.00     0.157 HD
ENDBRANCH   2  23
BRANCH   5  26
ATOM     26  N15 Z62 d   1     -63.646 -82.966 -85.201  0.00  0.00    -0.369 N 
ATOM     27  H9  Z62 d   1     -63.201 -83.548 -85.925  0.00  0.00     0.161 HD
BRANCH  26  28
ATOM     28  C16 Z62 d   1     -63.248 -83.134 -83.798  0.00  0.00    -0.006 C 
ATOM     29  H10 Z62 d   1     -62.727 -84.097 -83.689  0.00  0.00     0.064 H 
ATOM     30  H11 Z62 d   1     -64.151 -83.132 -83.169  0.00  0.00     0.064 H 
BRANCH  28  31
ATOM     31  C17 Z62 d   1     -62.329 -82.026 -83.337  0.00  0.00    -0.054 C 
ATOM     32  H12 Z62 d   1     -62.120 -81.406 -84.222  0.00  0.00     0.034 H 
ATOM     33  H13 Z62 d   1     -61.401 -82.511 -83.001  0.00  0.00     0.034 H 
BRANCH  31  34
ATOM     34  C18 Z62 d   1     -62.732 -81.092 -82.255  0.00  0.00    -0.075 C 
ATOM     35  H14 Z62 d   1     -61.924 -80.368 -82.076  0.00  0.00     0.027 H 
ATOM     36  H15 Z62 d   1     -62.926 -81.660 -81.333  0.00  0.00     0.027 H 
ATOM     37  H16 Z62 d   1     -63.645 -80.556 -82.554  0.00  0.00     0.027 H 
ENDBRANCH  31  34
ENDBRANCH  28  31
ENDBRANCH  26  28
ENDBRANCH   5  26
TORSDOF 9
