REMARK  8 active torsions:
REMARK  status: ('A' for Active; 'I' for Inactive)
REMARK    1  A    between atoms: C2_2  and  N3_3 
REMARK    2  A    between atoms: C4_4  and  C5_5 
REMARK    3  A    between atoms: C5_5  and  C6_6 
REMARK    4  A    between atoms: C5_5  and  O12_12 
REMARK    5  A    between atoms: C14_14  and  N15_15 
REMARK    6  A    between atoms: N15_15  and  C16_16 
REMARK    7  A    between atoms: C16_16  and  C17_17 
REMARK    8  A    between atoms: C17_17  and  C18_18 
ROOT
ATOM      1  N1  Z63 d   1     -64.741 -46.553 -49.063  0.00  0.00    -0.206 NA
ATOM      2  C2  Z63 d   1     -65.744 -45.743 -49.402  0.00  0.00     0.140 A 
ATOM      3  C4  Z63 d   1     -66.306 -45.019 -48.340  0.00  0.00     0.065 A 
ATOM      4  S13 Z63 d   1     -65.503 -45.411 -46.851  0.00  0.00    -0.050 SA
ATOM      5  C14 Z63 d   1     -64.483 -46.494 -47.748  0.00  0.00     0.169 A 
ENDROOT
BRANCH   3   6
ATOM      6  C5  Z63 d   1     -67.359 -44.104 -48.441  0.00  0.00     0.096 C 
ATOM      7  H3  Z63 d   1     -66.622 -43.303 -48.599  0.00  0.00     0.099 H 
BRANCH   6   8
ATOM      8  C6  Z63 d   1     -67.951 -43.337 -47.296  0.00  0.00    -0.022 A 
ATOM      9  C7  Z63 d   1     -67.142 -42.597 -46.375  0.00  0.00    -0.057 A 
ATOM     10  C8  Z63 d   1     -67.765 -41.890 -45.313  0.00  0.00     0.002 A 
ATOM     11  H4  Z63 d   1     -66.064 -42.577 -46.487  0.00  0.00     0.086 H 
ATOM     12  N9  Z63 d   1     -69.145 -41.923 -45.182  0.00  0.00    -0.273 NA
ATOM     13  H5  Z63 d   1     -67.165 -41.327 -44.608  0.00  0.00     0.114 H 
ATOM     14  C10 Z63 d   1     -69.957 -42.626 -46.053  0.00  0.00     0.002 A 
ATOM     15  C11 Z63 d   1     -69.379 -43.348 -47.128  0.00  0.00    -0.057 A 
ATOM     16  H6  Z63 d   1     -71.032 -42.625 -45.914  0.00  0.00     0.114 H 
ATOM     17  H7  Z63 d   1     -70.007 -43.902 -47.816  0.00  0.00     0.086 H 
ENDBRANCH   6   8
BRANCH   6  18
ATOM     18  O12 Z63 d   1     -67.931 -43.854 -49.647  0.00  0.00    -0.386 OA
ATOM     19  H8  Z63 d   1     -67.837 -42.932 -49.856  0.00  0.00     0.210 HD
ENDBRANCH   6  18
ENDBRANCH   3   6
BRANCH   2  20
ATOM     20  N3  Z63 d   1     -66.135 -45.663 -50.682  0.00  0.00    -0.383 N 
ATOM     21  H1  Z63 d   1     -66.910 -45.038 -50.946  0.00  0.00     0.157 HD
ATOM     22  H2  Z63 d   1     -65.661 -46.227 -51.402  0.00  0.00     0.157 HD
ENDBRANCH   2  20
BRANCH   5  23
ATOM     23  N15 Z63 d   1     -63.477 -47.246 -47.203  0.00  0.00    -0.369 N 
ATOM     24  H9  Z63 d   1     -62.958 -47.910 -47.795  0.00  0.00     0.161 HD
BRANCH  23  25
ATOM     25  C16 Z63 d   1     -63.136 -47.116 -45.799  0.00  0.00    -0.006 C 
ATOM     26  H10 Z63 d   1     -63.010 -48.118 -45.363  0.00  0.00     0.064 H 
ATOM     27  H11 Z63 d   1     -63.947 -46.588 -45.277  0.00  0.00     0.064 H 
BRANCH  25  28
ATOM     28  C17 Z63 d   1     -61.862 -46.345 -45.638  0.00  0.00    -0.054 C 
ATOM     29  H12 Z63 d   1     -61.200 -46.665 -46.456  0.00  0.00     0.034 H 
ATOM     30  H13 Z63 d   1     -61.431 -46.655 -44.675  0.00  0.00     0.034 H 
BRANCH  28  31
ATOM     31  C18 Z63 d   1     -61.849 -44.882 -45.644  0.00  0.00    -0.075 C 
ATOM     32  H14 Z63 d   1     -60.817 -44.524 -45.512  0.00  0.00     0.027 H 
ATOM     33  H15 Z63 d   1     -62.475 -44.506 -44.821  0.00  0.00     0.027 H 
ATOM     34  H16 Z63 d   1     -62.245 -44.516 -46.603  0.00  0.00     0.027 H 
ENDBRANCH  28  31
ENDBRANCH  25  28
ENDBRANCH  23  25
ENDBRANCH   5  23
TORSDOF 8
