REMARK  6 active torsions:
REMARK  status: ('A' for Active; 'I' for Inactive)
REMARK    1  A    between atoms: C1_1  and  C2_2 
REMARK    2  A    between atoms: C8_10  and  C10_12 
REMARK    3  A    between atoms: C8_10  and  C11_13 
REMARK    4  A    between atoms: C15_17  and  C25_30 
REMARK    5  A    between atoms: C18_21  and  C24_29 
REMARK    6  A    between atoms: N3_24  and  C23_28 
REMARK       I    between atoms: C25_30  and  N4_32 
ROOT
ATOM      1  C2  06H d   1      39.646  10.179  23.616  0.00  0.00    -0.023 A 
ATOM      2  C3  06H d   1      38.293   9.840  23.719  0.00  0.00     0.024 A 
ATOM      3  N1  06H d   1      37.601  10.997  24.110  0.00  0.00    -0.318 N 
ATOM      4  C4  06H d   1      38.514  12.033  24.257  0.00  0.00     0.032 A 
ATOM      5  C5  06H d   1      39.770  11.559  23.966  0.00  0.00     0.041 A 
ATOM      6  C6  06H d   1      40.931  12.432  24.055  0.00  0.00     0.162 C 
ATOM      7  O1  06H d   1      42.061  11.958  24.003  0.00  0.00    -0.292 OA
ATOM      8  C7  06H d   1      40.705  13.874  24.518  0.00  0.00     0.002 C 
ATOM      9  C8  06H d   1      39.443  14.058  25.400  0.00  0.00    -0.036 C 
ATOM     10  C9  06H d   1      38.207  13.438  24.686  0.00  0.00    -0.019 C 
ATOM     11  C12 06H d   1      36.206  11.123  24.343  0.00  0.00     0.041 A 
ATOM     12  C13 06H d   1      35.400  12.059  23.687  0.00  0.00    -0.056 A 
ATOM     13  C14 06H d   1      34.024  12.062  23.926  0.00  0.00    -0.063 A 
ATOM     14  C15 06H d   1      33.444  11.145  24.819  0.00  0.00     0.058 A 
ATOM     15  C16 06H d   1      34.244  10.193  25.500  0.00  0.00     0.046 A 
ATOM     16  C17 06H d   1      35.630  10.233  25.261  0.00  0.00    -0.030 A 
ATOM     17  N2  06H d   1      33.667   9.298  26.393  0.00  0.00    -0.376 N 
ATOM     18  C18 06H d   1      34.348   8.317  27.256  0.00  0.00     0.083 C 
ATOM     19  C19 06H d   1      35.473   7.545  26.538  0.00  0.00     0.241 C 
ATOM     20  O2  06H d   1      36.498   7.313  27.174  0.00  0.00    -0.271 OA
ATOM     21  N3  06H d   1      35.373   7.143  25.198  0.00  0.00    -0.355 N 
ATOM     22  C20 06H d   1      36.551   6.465  24.630  0.00  0.00    -0.002 C 
ATOM     23  C21 06H d   1      37.746   7.455  24.561  0.00  0.00    -0.045 C 
ATOM     24  C22 06H d   1      37.636   8.498  23.428  0.00  0.00    -0.024 C 
ATOM     25  H4  06H d   1      40.602  14.512  23.628  0.00  0.00     0.046 H 
ATOM     26  H5  06H d   1      41.583  14.194  25.098  0.00  0.00     0.046 H 
ATOM     27  H6  06H d   1      37.353  13.429  25.379  0.00  0.00     0.043 H 
ATOM     28  H7  06H d   1      37.956  14.042  23.802  0.00  0.00     0.043 H 
ATOM     29  H14 06H d   1      35.839  12.774  23.001  0.00  0.00     0.087 H 
ATOM     30  H15 06H d   1      33.395  12.782  23.416  0.00  0.00     0.085 H 
ATOM     31  H16 06H d   1      36.275   9.552  25.805  0.00  0.00     0.090 H 
ATOM     32  H17 06H d   1      32.639   9.323  26.460  0.00  0.00     0.160 HD
ATOM     33  H18 06H d   1      34.823   8.881  28.072  0.00  0.00     0.086 H 
ATOM     34  H19 06H d   1      36.314   6.108  23.617  0.00  0.00     0.064 H 
ATOM     35  H20 06H d   1      36.822   5.609  25.266  0.00  0.00     0.064 H 
ATOM     36  H21 06H d   1      38.667   6.874  24.407  0.00  0.00     0.035 H 
ATOM     37  H22 06H d   1      37.806   7.991  25.520  0.00  0.00     0.035 H 
ATOM     38  H23 06H d   1      38.108   8.075  22.529  0.00  0.00     0.042 H 
ATOM     39  H24 06H d   1      36.569   8.677  23.232  0.00  0.00     0.042 H 
ENDROOT
BRANCH   9  40
ATOM     40  C10 06H d   1      39.177  15.556  25.647  0.00  0.00    -0.069 C 
ATOM     41  H8  06H d   1      40.045  16.004  26.152  0.00  0.00     0.028 H 
ATOM     42  H9  06H d   1      38.285  15.671  26.281  0.00  0.00     0.028 H 
ATOM     43  H10 06H d   1      39.011  16.062  24.685  0.00  0.00     0.028 H 
ENDBRANCH   9  40
BRANCH   9  44
ATOM     44  C11 06H d   1      39.672  13.407  26.777  0.00  0.00    -0.069 C 
ATOM     45  H11 06H d   1      39.866  12.332  26.647  0.00  0.00     0.028 H 
ATOM     46  H12 06H d   1      38.777  13.545  27.401  0.00  0.00     0.028 H 
ATOM     47  H13 06H d   1      40.536  13.879  27.267  0.00  0.00     0.028 H 
ENDBRANCH   9  44
BRANCH   1  48
ATOM     48  C1  06H d   1      40.761   9.263  23.230  0.00  0.00    -0.048 C 
ATOM     49  H1  06H d   1      40.356   8.263  23.017  0.00  0.00     0.033 H 
ATOM     50  H2  06H d   1      41.484   9.197  24.056  0.00  0.00     0.033 H 
ATOM     51  H3  06H d   1      41.263   9.654  22.333  0.00  0.00     0.033 H 
ENDBRANCH   1  48
BRANCH  14  52
ATOM     52  C25 06H d   1      31.971  11.201  25.057  0.00  0.00     0.251 C 
ATOM     53  O3  06H d   1      31.486  10.760  26.093  0.00  0.00    -0.268 OA
ATOM     54  N4  06H d   1      31.209  11.778  24.074  0.00  0.00    -0.366 N 
ATOM     55  H31 06H d   1      30.217  11.841  24.183  0.00  0.00     0.159 HD
ATOM     56  H32 06H d   1      31.645  12.136  23.248  0.00  0.00     0.159 HD
ENDBRANCH  14  52
BRANCH  21  57
ATOM     57  C23 06H d   1      34.220   7.317  24.298  0.00  0.00    -0.016 C 
ATOM     58  H25 06H d   1      33.410   7.832  24.835  0.00  0.00     0.056 H 
ATOM     59  H26 06H d   1      33.867   6.332  23.960  0.00  0.00     0.056 H 
ATOM     60  H27 06H d   1      34.522   7.917  23.427  0.00  0.00     0.056 H 
ENDBRANCH  21  57
BRANCH  18  61
ATOM     61  C24 06H d   1      33.328   7.375  27.889  0.00  0.00    -0.049 C 
ATOM     62  H28 06H d   1      33.849   6.648  28.530  0.00  0.00     0.030 H 
ATOM     63  H29 06H d   1      32.782   6.841  27.098  0.00  0.00     0.030 H 
ATOM     64  H30 06H d   1      32.618   7.957  28.495  0.00  0.00     0.030 H 
ENDBRANCH  18  61
TORSDOF 6
