REMARK  4 active torsions:
REMARK  status: ('A' for Active; 'I' for Inactive)
REMARK    1  A    between atoms: C1_1  and  C2_2 
REMARK    2  A    between atoms: C8_10  and  C10_12 
REMARK    3  A    between atoms: C8_10  and  C11_13 
REMARK    4  A    between atoms: C15_17  and  C26_30 
REMARK       I    between atoms: C26_30  and  N4_32 
ROOT
ATOM      1  C2  06J d   1       6.176  10.023  23.697  0.00  0.00    -0.023 A 
ATOM      2  C3  06J d   1       4.817   9.695  23.722  0.00  0.00     0.024 A 
ATOM      3  N1  06J d   1       4.110  10.856  24.090  0.00  0.00    -0.318 N 
ATOM      4  C4  06J d   1       5.020  11.887  24.268  0.00  0.00     0.032 A 
ATOM      5  C5  06J d   1       6.287  11.403  24.024  0.00  0.00     0.041 A 
ATOM      6  C6  06J d   1       7.451  12.277  24.115  0.00  0.00     0.162 C 
ATOM      7  O1  06J d   1       8.593  11.831  24.048  0.00  0.00    -0.292 OA
ATOM      8  C7  06J d   1       7.211  13.730  24.512  0.00  0.00     0.002 C 
ATOM      9  C8  06J d   1       5.925  13.965  25.345  0.00  0.00    -0.036 C 
ATOM     10  C9  06J d   1       4.706  13.300  24.655  0.00  0.00    -0.019 C 
ATOM     11  C12 06J d   1       2.705  10.950  24.273  0.00  0.00     0.041 A 
ATOM     12  C13 06J d   1       1.896  11.833  23.567  0.00  0.00    -0.056 A 
ATOM     13  C14 06J d   1       0.538  11.929  23.899  0.00  0.00    -0.063 A 
ATOM     14  C15 06J d   1      -0.010  11.139  24.931  0.00  0.00     0.058 A 
ATOM     15  C16 06J d   1       0.792  10.227  25.633  0.00  0.00     0.046 A 
ATOM     16  C17 06J d   1       2.129  10.134  25.237  0.00  0.00    -0.030 A 
ATOM     17  N2  06J d   1       0.310   9.408  26.650  0.00  0.00    -0.387 N 
ATOM     18  C18 06J d   1       1.188   8.778  27.630  0.00  0.00     0.019 C 
ATOM     19  C19 06J d   1       1.411   7.297  27.282  0.00  0.00     0.119 C 
ATOM     20  C20 06J d   1       0.098   6.528  27.093  0.00  0.00    -0.035 C 
ATOM     21  C21 06J d   1       0.393   5.457  26.054  0.00  0.00    -0.040 C 
ATOM     22  C22 06J d   1       1.826   5.679  25.602  0.00  0.00     0.084 C 
ATOM     23  N3  06J d   1       2.112   7.136  25.925  0.00  0.00    -0.065 N 
ATOM     24  C23 06J d   1       3.610   7.468  25.910  0.00  0.00     0.084 C 
ATOM     25  C24 06J d   1       4.354   7.248  24.576  0.00  0.00    -0.037 C 
ATOM     26  C25 06J d   1       4.150   8.343  23.504  0.00  0.00    -0.024 C 
ATOM     27  H4  06J d   1       7.139  14.330  23.593  0.00  0.00     0.046 H 
ATOM     28  H5  06J d   1       8.072  14.071  25.106  0.00  0.00     0.046 H 
ATOM     29  H6  06J d   1       3.853  13.303  25.349  0.00  0.00     0.043 H 
ATOM     30  H7  06J d   1       4.446  13.872  23.752  0.00  0.00     0.043 H 
ATOM     31  H14 06J d   1       2.310  12.440  22.770  0.00  0.00     0.087 H 
ATOM     32  H15 06J d   1      -0.099  12.618  23.356  0.00  0.00     0.085 H 
ATOM     33  H16 06J d   1       2.751   9.382  25.709  0.00  0.00     0.090 H 
ATOM     34  H17 06J d   1      -0.704   9.241  26.713  0.00  0.00     0.159 HD
ATOM     35  H18 06J d   1       0.728   8.850  28.627  0.00  0.00     0.067 H 
ATOM     36  H19 06J d   1       2.157   9.298  27.635  0.00  0.00     0.067 H 
ATOM     37  H20 06J d   1       2.010   6.835  28.081  0.00  0.00     0.087 H 
ATOM     38  H21 06J d   1      -0.693   7.203  26.734  0.00  0.00     0.036 H 
ATOM     39  H22 06J d   1      -0.216   6.066  28.041  0.00  0.00     0.036 H 
ATOM     40  H23 06J d   1      -0.294   5.555  25.201  0.00  0.00     0.035 H 
ATOM     41  H24 06J d   1       0.285   4.457  26.498  0.00  0.00     0.035 H 
ATOM     42  H25 06J d   1       1.925   5.495  24.522  0.00  0.00     0.076 H 
ATOM     43  H26 06J d   1       2.513   5.018  26.151  0.00  0.00     0.076 H 
ATOM     44  H27 06J d   1       1.667   7.733  25.245  0.00  0.00     0.280 HD
ATOM     45  H28 06J d   1       4.098   6.842  26.671  0.00  0.00     0.076 H 
ATOM     46  H29 06J d   1       3.720   8.528  26.182  0.00  0.00     0.076 H 
ATOM     47  H30 06J d   1       4.011   6.293  24.152  0.00  0.00     0.035 H 
ATOM     48  H31 06J d   1       5.430   7.187  24.796  0.00  0.00     0.035 H 
ATOM     49  H32 06J d   1       4.528   7.942  22.552  0.00  0.00     0.042 H 
ATOM     50  H33 06J d   1       3.068   8.522  23.422  0.00  0.00     0.042 H 
ENDROOT
BRANCH   9  51
ATOM     51  C10 06J d   1       6.116  13.346  26.742  0.00  0.00    -0.069 C 
ATOM     52  H8  06J d   1       6.980  13.815  27.236  0.00  0.00     0.028 H 
ATOM     53  H9  06J d   1       6.292  12.265  26.643  0.00  0.00     0.028 H 
ATOM     54  H10 06J d   1       5.212  13.516  27.345  0.00  0.00     0.028 H 
ENDBRANCH   9  51
BRANCH   9  55
ATOM     55  C11 06J d   1       5.662  15.474  25.536  0.00  0.00    -0.069 C 
ATOM     56  H11 06J d   1       5.521  15.949  24.554  0.00  0.00     0.028 H 
ATOM     57  H12 06J d   1       6.521  15.934  26.045  0.00  0.00     0.028 H 
ATOM     58  H13 06J d   1       4.757  15.614  26.145  0.00  0.00     0.028 H 
ENDBRANCH   9  55
BRANCH   1  59
ATOM     59  C1  06J d   1       7.319   9.132  23.344  0.00  0.00    -0.048 C 
ATOM     60  H1  06J d   1       6.944   8.119  23.138  0.00  0.00     0.033 H 
ATOM     61  H2  06J d   1       8.029   9.097  24.183  0.00  0.00     0.033 H 
ATOM     62  H3  06J d   1       7.827   9.524  22.450  0.00  0.00     0.033 H 
ENDBRANCH   1  59
BRANCH  14  63
ATOM     63  C26 06J d   1      -1.473  11.195  25.197  0.00  0.00     0.251 C 
ATOM     64  O2  06J d   1      -1.929  10.713  26.230  0.00  0.00    -0.268 OA
ATOM     65  N4  06J d   1      -2.242  11.802  24.231  0.00  0.00    -0.366 N 
ATOM     66  H34 06J d   1      -3.232  11.871  24.351  0.00  0.00     0.159 HD
ATOM     67  H35 06J d   1      -1.811  12.174  23.409  0.00  0.00     0.159 HD
ENDBRANCH  14  63
TORSDOF 4
