REMARK WARNING: 32 MAX_TORS EXCEEDED!!!
REMARK  52 active torsions:
REMARK  status: ('A' for Active; 'I' for Inactive)
REMARK    1  A    between atoms: N_1  and  CA_2 
REMARK    2  A    between atoms: CA_2  and  C_3 
REMARK    3  A    between atoms: CA_2  and  CB_5 
REMARK       I    between atoms: C_3  and  N_6 
REMARK    4  A    between atoms: N_6  and  CA_7 
REMARK    5  A    between atoms: CA_7  and  C_8 
REMARK    6  A    between atoms: CA_7  and  CB_10 
REMARK       I    between atoms: C_8  and  N_15 
REMARK    7  A    between atoms: CB_10  and  CG_11 
REMARK    8  A    between atoms: CG_11  and  CD_12 
REMARK       I    between atoms: CD_12  and  NE2_14 
REMARK    9  A    between atoms: N_15  and  CA_16 
REMARK   10  A    between atoms: CA_16  and  C_17 
REMARK   11  A    between atoms: CA_16  and  CB_19 
REMARK       I    between atoms: C_17  and  N_22 
REMARK   12  A    between atoms: CB_19  and  OG1_20 
REMARK   13  A    between atoms: CB_19  and  CG2_21 
REMARK   14  A    between atoms: N_22  and  CA_23 
REMARK   15  A    between atoms: CA_23  and  C_24 
REMARK   16  A    between atoms: CA_23  and  CB_26 
REMARK       I    between atoms: C_24  and  N_27 
REMARK   17  A    between atoms: N_27  and  CA_28 
REMARK   18  A    between atoms: CA_28  and  C_29 
REMARK   19  A    between atoms: CA_28  and  CB_31 
REMARK       I    between atoms: C_29  and  N_34 
REMARK   20  A    between atoms: CB_31  and  CG_32 
REMARK   21  A    between atoms: CG_32  and  CD_33 
REMARK   22  A    between atoms: N_34  and  CA_35 
REMARK   23  A    between atoms: CA_35  and  CB_36 
REMARK   24  A    between atoms: CA_35  and  C_41 
REMARK   25  A    between atoms: CB_36  and  CG_37 
REMARK   26  A    between atoms: CG_37  and  CD_38 
REMARK   27  A    between atoms: CD_38  and  CE_39 
REMARK   28  A    between atoms: CE_39  and  NZ_40 
REMARK   29  A    between atoms: NZ_40  and  CM1_43 
REMARK   30  A    between atoms: NZ_40  and  CM2_44 
REMARK   31  A    between atoms: NZ_40  and  CM3_45 
REMARK       I    between atoms: C_41  and  N_46 
REMARK   32  A    between atoms: N_46  and  CA_47 
REMARK   33  A    between atoms: CA_47  and  C_48 
REMARK   34  A    between atoms: CA_47  and  CB_50 
REMARK       I    between atoms: C_48  and  N_52 
REMARK   35  A    between atoms: CB_50  and  OG_51 
REMARK   36  A    between atoms: N_52  and  CA_53 
REMARK   37  A    between atoms: CA_53  and  C_54 
REMARK   38  A    between atoms: CA_53  and  CB_56 
REMARK       I    between atoms: C_54  and  N_59 
REMARK   39  A    between atoms: CB_56  and  OG1_57 
REMARK   40  A    between atoms: CB_56  and  CG2_58 
REMARK   41  A    between atoms: N_59  and  CA_60 
REMARK   42  A    between atoms: CA_60  and  C_61 
REMARK       I    between atoms: C_61  and  N_63 
REMARK   43  A    between atoms: N_63  and  CA_64 
REMARK   44  A    between atoms: CA_64  and  C_65 
REMARK       I    between atoms: C_65  and  N_67 
REMARK   45  A    between atoms: N_67  and  CA_68 
REMARK   46  A    between atoms: CA_68  and  C_69 
REMARK   47  A    between atoms: CA_68  and  CB_71 
REMARK       I    between atoms: C_69  and  N_74 
REMARK   48  A    between atoms: CB_71  and  CG_72 
REMARK   49  A    between atoms: CG_72  and  CD_73 
REMARK   50  A    between atoms: N_74  and  CA_75 
REMARK   51  A    between atoms: CA_75  and  C_76 
REMARK   52  A    between atoms: CA_75  and  CB_78 
ROOT
ATOM      1  CA  M3L d   1       6.794  17.980  23.202  0.00  0.00     0.089 C 
ATOM      2  H   M3L d   1       6.672  18.418  22.211  0.00  0.00     0.087 H 
ENDROOT
BRANCH   1   3
ATOM      3  N   M3L d   1       6.957  19.046  24.180  0.00  0.00    -0.346 N 
ATOM      4  C   ARG d   1       6.465  20.275  24.001  0.00  0.00     0.241 C 
ATOM      5  O   ARG d   1       5.962  20.657  22.950  0.00  0.00    -0.271 OA
ATOM      6  H   M3L d   1       7.469  18.846  25.039  0.00  0.00     0.163 HD
BRANCH   4   7
ATOM      7  CA  ARG d   1       6.539  21.244  25.183  0.00  0.00     0.089 C 
ATOM      8  H   ARG d   1       7.184  20.876  25.981  0.00  0.00     0.087 H 
BRANCH   7   9
ATOM      9  N   ARG d   1       7.078  22.515  24.685  0.00  0.00    -0.346 N 
ATOM     10  C   ALA d   1       8.339  22.662  24.256  0.00  0.00     0.240 C 
ATOM     11  O   ALA d   1       9.223  21.792  24.378  0.00  0.00    -0.271 OA
ATOM     12  H   ARG d   1       6.462  23.328  24.664  0.00  0.00     0.163 HD
BRANCH  10  13
ATOM     13  CA  ALA d   1       8.653  24.006  23.593  0.00  0.00     0.086 C 
ATOM     14  H   ALA d   1       8.147  24.788  24.159  0.00  0.00     0.086 H 
BRANCH  13  15
ATOM     15  N   ALA d   1      10.089  24.314  23.628  0.00  0.00    -0.346 N 
ATOM     16  C   THR d   1      10.569  25.508  23.282  0.00  0.00     0.243 C 
ATOM     17  O   THR d   1       9.852  26.419  22.852  0.00  0.00    -0.271 OA
ATOM     18  H   ALA d   1      10.741  23.589  23.927  0.00  0.00     0.163 HD
BRANCH  16  19
ATOM     19  CA  THR d   1      12.088  25.710  23.456  0.00  0.00     0.113 C 
ATOM     20  H   THR d   1      12.598  24.813  23.104  0.00  0.00     0.091 H 
BRANCH  19  21
ATOM     21  N   THR d   1      12.621  26.815  22.642  0.00  0.00    -0.344 N 
ATOM     22  C   GLN d   1      13.712  26.685  21.887  0.00  0.00     0.241 C 
ATOM     23  O   GLN d   1      14.309  25.614  21.737  0.00  0.00    -0.271 OA
ATOM     24  H   THR d   1      12.138  27.713  22.656  0.00  0.00     0.163 HD
BRANCH  22  25
ATOM     25  CA  GLN d   1      14.211  27.950  21.192  0.00  0.00     0.090 C 
ATOM     26  H   GLN d   1      13.664  28.808  21.582  0.00  0.00     0.087 H 
BRANCH  25  27
ATOM     27  N   GLN d   1      15.641  28.124  21.465  0.00  0.00    -0.346 N 
ATOM     28  C   LYS d   1      16.071  28.929  22.429  0.00  0.00     0.248 C 
ATOM     29  O   LYS d   1      15.306  29.502  23.215  0.00  0.00    -0.271 OA
ATOM     30  H   GLN d   1      16.321  27.615  20.901  0.00  0.00     0.163 HD
BRANCH  28  31
ATOM     31  CA  LYS d   1      17.581  29.115  22.526  0.00  0.00     0.172 C 
ATOM     32  H   LYS d   1      18.035  28.911  21.556  0.00  0.00     0.098 H 
BRANCH  31  33
ATOM     33  N   LYS d   1      17.881  30.521  22.914  0.00  0.00    -0.067 N 
ATOM     34  H   LYS d   1      17.477  31.156  22.226  0.00  0.00     0.275 HD
ATOM     35  H   LYS d   1      17.479  30.712  23.832  0.00  0.00     0.275 HD
ATOM     36  H   LYS d   1      18.892  30.654  22.949  0.00  0.00     0.275 HD
ENDBRANCH  31  33
BRANCH  31  37
ATOM     37  CB  LYS d   1      18.175  28.131  23.541  0.00  0.00    -0.042 C 
ATOM     38  H   LYS d   1      17.731  28.309  24.520  0.00  0.00     0.030 H 
ATOM     39  H   LYS d   1      17.962  27.110  23.224  0.00  0.00     0.030 H 
ATOM     40  H   LYS d   1      19.254  28.277  23.598  0.00  0.00     0.030 H 
ENDBRANCH  31  37
ENDBRANCH  28  31
ENDBRANCH  25  27
BRANCH  25  41
ATOM     41  CB  GLN d   1      13.956  27.880  19.687  0.00  0.00    -0.030 C 
ATOM     42  H   GLN d   1      12.891  28.060  19.540  0.00  0.00     0.037 H 
ATOM     43  H   GLN d   1      14.309  26.904  19.353  0.00  0.00     0.037 H 
BRANCH  41  44
ATOM     44  CG  GLN d   1      14.704  28.933  18.851  0.00  0.00     0.011 C 
ATOM     45  H   GLN d   1      14.755  28.561  17.828  0.00  0.00     0.047 H 
ATOM     46  H   GLN d   1      15.681  29.082  19.311  0.00  0.00     0.047 H 
BRANCH  44  47
ATOM     47  CD  GLN d   1      14.004  30.294  18.810  0.00  0.00     0.215 C 
ATOM     48  OE1 GLN d   1      12.823  30.397  18.479  0.00  0.00    -0.274 OA
ATOM     49  NE2 GLN d   1      14.750  31.344  19.117  0.00  0.00    -0.370 N 
ATOM     50  H   GLN d   1      14.349  32.281  19.084  0.00  0.00     0.159 HD
ATOM     51  H   GLN d   1      15.725  31.215  19.387  0.00  0.00     0.159 HD
ENDBRANCH  44  47
ENDBRANCH  41  44
ENDBRANCH  25  41
ENDBRANCH  22  25
ENDBRANCH  19  21
BRANCH  19  52
ATOM     52  CB  THR d   1      12.367  25.955  24.957  0.00  0.00     0.060 C 
ATOM     53  H   THR d   1      12.186  25.023  25.493  0.00  0.00     0.086 H 
BRANCH  52  54
ATOM     54  OG1 THR d   1      11.492  26.979  25.444  0.00  0.00    -0.393 OA
ATOM     55  H   THR d   1      10.580  26.701  25.328  0.00  0.00     0.210 HD
ENDBRANCH  52  54
BRANCH  52  56
ATOM     56  CG2 THR d   1      13.843  26.369  25.201  0.00  0.00    -0.050 C 
ATOM     57  H   THR d   1      14.504  25.576  24.852  0.00  0.00     0.031 H 
ATOM     58  H   THR d   1      14.056  27.288  24.655  0.00  0.00     0.031 H 
ATOM     59  H   THR d   1      14.002  26.533  26.267  0.00  0.00     0.031 H 
ENDBRANCH  52  56
ENDBRANCH  19  52
ENDBRANCH  16  19
ENDBRANCH  13  15
BRANCH  13  60
ATOM     60  CB  ALA d   1       8.134  24.005  22.158  0.00  0.00    -0.049 C 
ATOM     61  H   ALA d   1       8.294  24.988  21.714  0.00  0.00     0.030 H 
ATOM     62  H   ALA d   1       8.670  23.252  21.580  0.00  0.00     0.030 H 
ATOM     63  H   ALA d   1       7.069  23.774  22.159  0.00  0.00     0.030 H 
ENDBRANCH  13  60
ENDBRANCH  10  13
ENDBRANCH   7   9
BRANCH   7  64
ATOM     64  CB  ARG d   1       5.109  21.418  25.744  0.00  0.00    -0.038 C 
ATOM     65  H   ARG d   1       4.743  20.408  25.929  0.00  0.00     0.036 H 
ATOM     66  H   ARG d   1       4.578  22.022  25.008  0.00  0.00     0.036 H 
BRANCH  64  67
ATOM     67  CG  ARG d   1       4.953  22.156  27.065  0.00  0.00    -0.066 C 
ATOM     68  H   ARG d   1       5.290  23.183  26.929  0.00  0.00     0.032 H 
ATOM     69  H   ARG d   1       5.544  21.640  27.822  0.00  0.00     0.032 H 
BRANCH  67  70
ATOM     70  CD  ARG d   1       3.474  22.181  27.528  0.00  0.00    -0.076 C 
ATOM     71  H   ARG d   1       2.868  22.685  26.776  0.00  0.00     0.027 H 
ATOM     72  H   ARG d   1       3.118  21.159  27.658  0.00  0.00     0.027 H 
ATOM     73  H   ARG d   1       3.400  22.716  28.475  0.00  0.00     0.027 H 
ENDBRANCH  67  70
ENDBRANCH  64  67
ENDBRANCH   7  64
ENDBRANCH   4   7
ENDBRANCH   1   3
BRANCH   1  74
ATOM     74  CB  M3L d   1       8.043  17.099  23.224  0.00  0.00    -0.038 C 
ATOM     75  H   M3L d   1       8.130  16.654  24.215  0.00  0.00     0.036 H 
ATOM     76  H   M3L d   1       8.905  17.721  22.981  0.00  0.00     0.036 H 
BRANCH  74  77
ATOM     77  CG  M3L d   1       7.962  15.973  22.199  0.00  0.00    -0.061 C 
ATOM     78  H   M3L d   1       7.490  16.374  21.302  0.00  0.00     0.033 H 
ATOM     79  H   M3L d   1       7.398  15.155  22.648  0.00  0.00     0.033 H 
BRANCH  77  80
ATOM     80  CD  M3L d   1       9.337  15.426  21.798  0.00  0.00    -0.042 C 
ATOM     81  H   M3L d   1       9.983  16.282  21.602  0.00  0.00     0.035 H 
ATOM     82  H   M3L d   1       9.190  14.779  20.933  0.00  0.00     0.035 H 
BRANCH  80  83
ATOM     83  CE  M3L d   1      10.006  14.592  22.880  0.00  0.00     0.084 C 
ATOM     84  H   M3L d   1       9.475  13.642  22.933  0.00  0.00     0.076 H 
ATOM     85  H   M3L d   1       9.969  15.168  23.805  0.00  0.00     0.076 H 
BRANCH  83  86
ATOM     86  NZ  M3L d   1      11.431  14.288  22.605  0.00  0.00    -0.079 N 
BRANCH  86  87
ATOM     87  CM1 M3L d   1      11.640  13.602  21.318  0.00  0.00     0.067 C 
ATOM     88  H   M3L d   1      11.095  12.658  21.318  0.00  0.00     0.068 H 
ATOM     89  H   M3L d   1      11.275  14.233  20.508  0.00  0.00     0.068 H 
ATOM     90  H   M3L d   1      12.704  13.409  21.179  0.00  0.00     0.068 H 
ENDBRANCH  86  87
BRANCH  86  91
ATOM     91  CM2 M3L d   1      11.911  13.390  23.655  0.00  0.00     0.067 C 
ATOM     92  H   M3L d   1      11.809  13.879  24.624  0.00  0.00     0.068 H 
ATOM     93  H   M3L d   1      11.321  12.474  23.645  0.00  0.00     0.068 H 
ATOM     94  H   M3L d   1      12.959  13.151  23.475  0.00  0.00     0.068 H 
ENDBRANCH  86  91
BRANCH  86  95
ATOM     95  CM3 M3L d   1      12.250  15.513  22.619  0.00  0.00     0.067 C 
ATOM     96  H   M3L d   1      11.887  16.200  21.855  0.00  0.00     0.068 H 
ATOM     97  H   M3L d   1      12.178  15.986  23.599  0.00  0.00     0.068 H 
ATOM     98  H   M3L d   1      13.289  15.256  22.414  0.00  0.00     0.068 H 
ENDBRANCH  86  95
ENDBRANCH  83  86
ENDBRANCH  80  83
ENDBRANCH  77  80
ENDBRANCH  74  77
ENDBRANCH   1  74
BRANCH   1  99
ATOM     99  C   M3L d   1       5.552  17.164  23.479  0.00  0.00     0.241 C 
ATOM    100  O   M3L d   1       5.385  16.663  24.582  0.00  0.00    -0.271 OA
ATOM    101  N   SER d   1       4.672  17.027  22.482  0.00  0.00    -0.344 N 
ATOM    102  H   SER d   1       4.841  17.531  21.611  0.00  0.00     0.163 HD
BRANCH 101 103
ATOM    103  CA  SER d   1       3.469  16.182  22.582  0.00  0.00     0.109 C 
ATOM    104  H   SER d   1       2.991  16.414  23.534  0.00  0.00     0.090 H 
BRANCH 103 105
ATOM    105  C   SER d   1       3.863  14.705  22.500  0.00  0.00     0.243 C 
ATOM    106  O   SER d   1       4.382  14.258  21.488  0.00  0.00    -0.271 OA
ATOM    107  N   THR d   1       3.592  13.937  23.542  0.00  0.00    -0.344 N 
ATOM    108  H   THR d   1       3.171  14.347  24.376  0.00  0.00     0.163 HD
BRANCH 107 109
ATOM    109  CA  THR d   1       3.890  12.504  23.510  0.00  0.00     0.113 C 
ATOM    110  H   THR d   1       4.591  12.349  22.690  0.00  0.00     0.091 H 
BRANCH 109 111
ATOM    111  C   THR d   1       2.630  11.652  23.254  0.00  0.00     0.243 C 
ATOM    112  O   THR d   1       2.716  10.455  23.015  0.00  0.00    -0.271 OA
ATOM    113  N   GLY d   1       1.461  12.274  23.324  0.00  0.00    -0.350 N 
ATOM    114  H   GLY d   1       1.433  13.267  23.554  0.00  0.00     0.163 HD
BRANCH 113 115
ATOM    115  CA  GLY d   1       0.222  11.562  23.078  0.00  0.00     0.069 C 
ATOM    116  H   GLY d   1      -0.526  11.892  23.799  0.00  0.00     0.078 H 
ATOM    117  H   GLY d   1       0.401  10.492  23.180  0.00  0.00     0.078 H 
BRANCH 115 118
ATOM    118  C   GLY d   1      -0.279  11.846  21.684  0.00  0.00     0.235 C 
ATOM    119  O   GLY d   1       0.509  12.038  20.744  0.00  0.00    -0.272 OA
ATOM    120  N   GLY d   1      -1.601  11.890  21.559  0.00  0.00    -0.351 N 
ATOM    121  H   GLY d   1      -2.185  11.705  22.375  0.00  0.00     0.163 HD
BRANCH 120 122
ATOM    122  CA  GLY d   1      -2.235  12.195  20.287  0.00  0.00     0.069 C 
ATOM    123  H   GLY d   1      -1.468  12.226  19.513  0.00  0.00     0.078 H 
ATOM    124  H   GLY d   1      -2.744  13.155  20.372  0.00  0.00     0.078 H 
BRANCH 122 125
ATOM    125  C   GLY d   1      -3.244  11.146  19.922  0.00  0.00     0.236 C 
ATOM    126  O   GLY d   1      -3.529  10.233  20.713  0.00  0.00    -0.272 OA
ATOM    127  N   LYS d   1      -3.791  11.295  18.729  0.00  0.00    -0.346 N 
ATOM    128  H   LYS d   1      -3.392  11.981  18.089  0.00  0.00     0.163 HD
BRANCH 127 129
ATOM    129  CA  LYS d   1      -4.937  10.521  18.295  0.00  0.00     0.089 C 
ATOM    130  H   LYS d   1      -5.778  10.678  18.970  0.00  0.00     0.087 H 
BRANCH 129 131
ATOM    131  C   LYS d   1      -4.563   9.036  18.318  0.00  0.00     0.241 C 
ATOM    132  O   LYS d   1      -3.432   8.663  17.956  0.00  0.00    -0.271 OA
ATOM    133  N   ALA d   1      -5.523   8.209  18.732  0.00  0.00    -0.345 N 
ATOM    134  H   ALA d   1      -6.468   8.581  18.829  0.00  0.00     0.163 HD
BRANCH 133 135
ATOM    135  CA  ALA d   1      -5.301   6.799  19.055  0.00  0.00     0.093 C 
ATOM    136  H   ALA d   1      -4.226   6.658  19.163  0.00  0.00     0.089 H 
BRANCH 135 137
ATOM    137  C   ALA d   1      -5.761   5.858  17.943  0.00  0.00     0.196 C 
ATOM    138  O   ALA d   1      -5.340   5.995  16.790  0.00  0.00    -0.646 OA
ATOM    139  O   ALA d   1      -6.577   4.934  18.204  0.00  0.00    -0.646 OA
ENDBRANCH 135 137
BRANCH 135 140
ATOM    140  CB  ALA d   1      -6.014   6.450  20.371  0.00  0.00    -0.048 C 
ATOM    141  H   ALA d   1      -5.617   7.072  21.174  0.00  0.00     0.030 H 
ATOM    142  H   ALA d   1      -7.083   6.632  20.263  0.00  0.00     0.030 H 
ATOM    143  H   ALA d   1      -5.845   5.399  20.607  0.00  0.00     0.030 H 
ENDBRANCH 135 140
ENDBRANCH 133 135
ENDBRANCH 129 131
BRANCH 129 144
ATOM    144  CB  LYS d   1      -5.394  10.981  16.895  0.00  0.00    -0.038 C 
ATOM    145  H   LYS d   1      -5.057  10.230  16.181  0.00  0.00     0.036 H 
ATOM    146  H   LYS d   1      -4.972  11.972  16.725  0.00  0.00     0.036 H 
BRANCH 144 147
ATOM    147  CG  LYS d   1      -6.918  11.102  16.747  0.00  0.00    -0.066 C 
ATOM    148  H   LYS d   1      -7.241  11.990  17.291  0.00  0.00     0.032 H 
ATOM    149  H   LYS d   1      -7.369  10.190  17.137  0.00  0.00     0.032 H 
BRANCH 147 150
ATOM    150  CD  LYS d   1      -7.352  11.258  15.282  0.00  0.00    -0.076 C 
ATOM    151  H   LYS d   1      -6.900  12.157  14.864  0.00  0.00     0.027 H 
ATOM    152  H   LYS d   1      -7.026  10.387  14.713  0.00  0.00     0.027 H 
ATOM    153  H   LYS d   1      -8.438  11.339  15.233  0.00  0.00     0.027 H 
ENDBRANCH 147 150
ENDBRANCH 144 147
ENDBRANCH 129 144
ENDBRANCH 127 129
ENDBRANCH 122 125
ENDBRANCH 120 122
ENDBRANCH 115 118
ENDBRANCH 113 115
ENDBRANCH 109 111
BRANCH 109 154
ATOM    154  CB  THR d   1       4.498  12.064  24.831  0.00  0.00     0.060 C 
ATOM    155  H   THR d   1       4.598  10.979  24.859  0.00  0.00     0.086 H 
BRANCH 154 156
ATOM    156  OG1 THR d   1       3.636  12.485  25.888  0.00  0.00    -0.393 OA
ATOM    157  H   THR d   1       3.550  13.441  25.868  0.00  0.00     0.210 HD
ENDBRANCH 154 156
BRANCH 154 158
ATOM    158  CG2 THR d   1       5.894  12.662  24.990  0.00  0.00    -0.050 C 
ATOM    159  H   THR d   1       6.529  12.322  24.172  0.00  0.00     0.031 H 
ATOM    160  H   THR d   1       5.826  13.750  24.971  0.00  0.00     0.031 H 
ATOM    161  H   THR d   1       6.320  12.340  25.940  0.00  0.00     0.031 H 
ENDBRANCH 154 158
ENDBRANCH 109 154
ENDBRANCH 107 109
ENDBRANCH 103 105
BRANCH 103 162
ATOM    162  CB  SER d   1       2.493  16.457  21.427  0.00  0.00     0.044 C 
ATOM    163  H   SER d   1       1.670  15.749  21.524  0.00  0.00     0.077 H 
ATOM    164  H   SER d   1       3.055  16.359  20.498  0.00  0.00     0.077 H 
BRANCH 162 165
ATOM    165  OG  SER d   1       1.934  17.756  21.444  0.00  0.00    -0.398 OA
ATOM    166  H   SER d   1       2.637  18.407  21.383  0.00  0.00     0.209 HD
ENDBRANCH 162 165
ENDBRANCH 103 162
ENDBRANCH 101 103
ENDBRANCH   1  99
TORSDOF 52
