REMARK  7 active torsions:
REMARK  status: ('A' for Active; 'I' for Inactive)
REMARK    1  A    between atoms: N02_2  and  C08_8 
REMARK    2  A    between atoms: C09_9  and  N02_2 
REMARK       I    between atoms: C10_10  and  N03_3 
REMARK    3  A    between atoms: N03_3  and  C16_16 
REMARK    4  A    between atoms: C07_7  and  N04_4 
REMARK    5  A    between atoms: S27_27  and  N05_5 
REMARK    6  A    between atoms: C06_6  and  C10_10 
REMARK    7  A    between atoms: C13_13  and  S27_27 
ROOT
ATOM      1  N01 X6B d   1      65.171  81.983 -14.838  0.00  0.00    -0.205 NA
ATOM      2  C06 X6B d   1      66.859  80.540 -14.062  0.00  0.00     0.121 A 
ATOM      3  C07 X6B d   1      66.283  81.212 -15.136  0.00  0.00     0.147 A 
ATOM      4  C08 X6B d   1      64.895  81.907 -13.554  0.00  0.00     0.174 A 
ATOM      5  S26 X6B d   1      65.959  80.897 -12.628  0.00  0.00    -0.043 SA
ENDROOT
BRANCH   4   6
ATOM      6  N02 X6B d   1      63.880  82.574 -13.073  0.00  0.00    -0.335 N 
ATOM      7  H1  X6B d   1      63.604  83.409 -13.609  0.00  0.00     0.168 HD
BRANCH   6   8
ATOM      8  C09 X6B d   1      63.166  82.329 -12.007  0.00  0.00     0.034 A 
ATOM      9  C11 X6B d   1      62.178  83.294 -11.656  0.00  0.00    -0.056 A 
ATOM     10  C12 X6B d   1      61.355  83.108 -10.519  0.00  0.00    -0.058 A 
ATOM     11  H7  X6B d   1      62.055  84.181 -12.267  0.00  0.00     0.087 H 
ATOM     12  C13 X6B d   1      61.506  81.949  -9.715  0.00  0.00     0.079 A 
ATOM     13  H8  X6B d   1      60.609  83.852 -10.263  0.00  0.00     0.086 H 
ATOM     14  C14 X6B d   1      62.483  80.970 -10.036  0.00  0.00    -0.058 A 
ATOM     15  C15 X6B d   1      63.314  81.152 -11.177  0.00  0.00    -0.056 A 
ATOM     16  H9  X6B d   1      62.595  80.088  -9.415  0.00  0.00     0.086 H 
ATOM     17  H10 X6B d   1      64.061  80.406 -11.426  0.00  0.00     0.087 H 
BRANCH  12  18
ATOM     18  S27 X6B d   1      60.457  81.726  -8.303  0.00  0.00     0.256 S 
ATOM     19  O23 X6B d   1      59.421  80.818  -8.678  0.00  0.00    -0.201 OA
ATOM     20  O24 X6B d   1      59.875  83.013  -7.938  0.00  0.00    -0.201 OA
BRANCH  18  21
ATOM     21  N05 X6B d   1      61.328  81.064  -7.027  0.00  0.00    -0.324 N 
ATOM     22  H5  X6B d   1      60.874  80.877  -6.156  0.00  0.00     0.169 HD
ATOM     23  H6  X6B d   1      62.300  80.857  -7.139  0.00  0.00     0.169 HD
ENDBRANCH  18  21
ENDBRANCH  12  18
ENDBRANCH   6   8
ENDBRANCH   4   6
BRANCH   3  24
ATOM     24  N04 X6B d   1      66.730  81.138 -16.321  0.00  0.00    -0.383 N 
ATOM     25  H3  X6B d   1      67.558  80.560 -16.524  0.00  0.00     0.157 HD
ATOM     26  H4  X6B d   1      66.265  81.656 -17.080  0.00  0.00     0.157 HD
ENDBRANCH   3  24
BRANCH   2  27
ATOM     27  C10 X6B d   1      67.966  79.711 -14.090  0.00  0.00     0.267 C 
ATOM     28  N03 X6B d   1      68.386  79.150 -12.882  0.00  0.00    -0.322 N 
ATOM     29  H2  X6B d   1      67.848  79.383 -12.072  0.00  0.00     0.169 HD
ATOM     30  O22 X6B d   1      68.562  79.486 -15.144  0.00  0.00    -0.267 OA
BRANCH  28  31
ATOM     31  C16 X6B d   1      69.459  78.312 -12.686  0.00  0.00     0.037 A 
ATOM     32  C17 X6B d   1      69.395  77.366 -11.624  0.00  0.00    -0.057 A 
ATOM     33  C18 X6B d   1      70.492  76.486 -11.375  0.00  0.00    -0.078 A 
ATOM     34  H11 X6B d   1      68.509  77.313 -11.001  0.00  0.00     0.086 H 
ATOM     35  C19 X6B d   1      71.657  76.552 -12.196  0.00  0.00    -0.046 A 
ATOM     36  H12 X6B d   1      70.440  75.769 -10.564  0.00  0.00     0.083 H 
ATOM     37  C20 X6B d   1      71.729  77.491 -13.259  0.00  0.00     0.118 A 
ATOM     38  H13 X6B d   1      72.489  75.884 -12.008  0.00  0.00     0.088 H 
ATOM     39  C21 X6B d   1      70.639  78.371 -13.504  0.00  0.00    -0.020 A 
ATOM     40  F25 X6B d   1      72.811  77.553 -14.023  0.00  0.00    -0.206 F 
ATOM     41  H14 X6B d   1      70.699  79.091 -14.313  0.00  0.00     0.091 H 
ENDBRANCH  28  31
ENDBRANCH   2  27
TORSDOF 7
