REMARK  7 active torsions:
REMARK  status: ('A' for Active; 'I' for Inactive)
REMARK    1  A    between atoms: C6_6  and  C1_1 
REMARK    2  A    between atoms: C2_2  and  N7_7 
REMARK    3  A    between atoms: C4_4  and  N8_8 
REMARK       I    between atoms: N20_20  and  C6_6 
REMARK    4  A    between atoms: N8_8  and  C13_13 
REMARK    5  A    between atoms: C10_10  and  S16_16 
REMARK    6  A    between atoms: S16_16  and  N18_18 
REMARK    7  A    between atoms: C24_24  and  N20_20 
ROOT
ATOM      1  C1  Z67 d   1     -66.916  -8.965 -49.982  0.00  0.00     0.121 A 
ATOM      2  C2  Z67 d   1     -66.465  -9.747 -51.002  0.00  0.00     0.147 A 
ATOM      3  N3  Z67 d   1     -65.323 -10.474 -50.679  0.00  0.00    -0.205 NA
ATOM      4  C4  Z67 d   1     -64.906 -10.245 -49.446  0.00  0.00     0.174 A 
ATOM      5  S5  Z67 d   1     -65.905  -9.130 -48.554  0.00  0.00    -0.043 SA
ENDROOT
BRANCH   4   6
ATOM      6  N8  Z67 d   1     -63.765 -10.806 -48.943  0.00  0.00    -0.335 N 
ATOM      7  H3  Z67 d   1     -63.339 -11.478 -49.597  0.00  0.00     0.168 HD
BRANCH   6   8
ATOM      8  C13 Z67 d   1     -63.071 -10.694 -47.812  0.00  0.00     0.034 A 
ATOM      9  C12 Z67 d   1     -62.115 -11.702 -47.467  0.00  0.00    -0.056 A 
ATOM     10  C11 Z67 d   1     -61.317 -11.543 -46.314  0.00  0.00    -0.058 A 
ATOM     11  H5  Z67 d   1     -62.005 -12.583 -48.089  0.00  0.00     0.087 H 
ATOM     12  C10 Z67 d   1     -61.478 -10.366 -45.504  0.00  0.00     0.079 A 
ATOM     13  H4  Z67 d   1     -60.590 -12.300 -46.042  0.00  0.00     0.086 H 
ATOM     14  C15 Z67 d   1     -62.429  -9.362 -45.821  0.00  0.00    -0.058 A 
ATOM     15  C14 Z67 d   1     -63.223  -9.523 -46.973  0.00  0.00    -0.056 A 
ATOM     16  H7  Z67 d   1     -62.542  -8.489 -45.189  0.00  0.00     0.086 H 
ATOM     17  H6  Z67 d   1     -63.953  -8.765 -47.234  0.00  0.00     0.087 H 
BRANCH  12  18
ATOM     18  S16 Z67 d   1     -60.426 -10.142 -44.123  0.00  0.00     0.256 S 
ATOM     19  O17 Z67 d   1     -59.338  -9.312 -44.645  0.00  0.00    -0.201 OA
ATOM     20  O19 Z67 d   1     -60.118 -11.469 -43.556  0.00  0.00    -0.201 OA
BRANCH  18  21
ATOM     21  N18 Z67 d   1     -61.297  -9.230 -42.957  0.00  0.00    -0.324 N 
ATOM     22  H8  Z67 d   1     -60.868  -8.992 -42.086  0.00  0.00     0.169 HD
ATOM     23  H9  Z67 d   1     -62.233  -8.937 -43.149  0.00  0.00     0.169 HD
ENDBRANCH  18  21
ENDBRANCH  12  18
ENDBRANCH   6   8
ENDBRANCH   4   6
BRANCH   2  24
ATOM     24  N7  Z67 d   1     -67.038  -9.838 -52.268  0.00  0.00    -0.383 N 
ATOM     25  H1  Z67 d   1     -66.624 -10.460 -52.977  0.00  0.00     0.157 HD
ATOM     26  H2  Z67 d   1     -67.876  -9.284 -52.495  0.00  0.00     0.157 HD
ENDBRANCH   2  24
BRANCH   1  27
ATOM     27  C6  Z67 d   1     -68.055  -8.033 -49.926  0.00  0.00     0.267 C 
ATOM     28  O9  Z67 d   1     -68.646  -7.739 -50.968  0.00  0.00    -0.267 OA
ATOM     29  N20 Z67 d   1     -68.335  -7.515 -48.720  0.00  0.00    -0.317 N 
ATOM     30  H10 Z67 d   1     -67.770  -7.855 -47.968  0.00  0.00     0.169 HD
BRANCH  29  31
ATOM     31  C24 Z67 d   1     -69.318  -6.553 -48.354  0.00  0.00     0.113 A 
ATOM     32  C23 Z67 d   1     -70.732  -6.758 -48.629  0.00  0.00     0.146 A 
ATOM     33  C22 Z67 d   1     -71.684  -5.754 -48.242  0.00  0.00    -0.043 A 
ATOM     34  F28 Z67 d   1     -71.179  -7.884 -49.248  0.00  0.00    -0.204 F 
ATOM     35  C21 Z67 d   1     -71.241  -4.560 -47.587  0.00  0.00    -0.077 A 
ATOM     36  H12 Z67 d   1     -72.739  -5.900 -48.446  0.00  0.00     0.088 H 
ATOM     37  C26 Z67 d   1     -69.847  -4.359 -47.314  0.00  0.00    -0.043 A 
ATOM     38  H11 Z67 d   1     -71.962  -3.805 -47.296  0.00  0.00     0.083 H 
ATOM     39  C25 Z67 d   1     -68.892  -5.351 -47.699  0.00  0.00     0.146 A 
ATOM     40  H13 Z67 d   1     -69.517  -3.454 -46.816  0.00  0.00     0.088 H 
ATOM     41  F27 Z67 d   1     -67.566  -5.151 -47.442  0.00  0.00    -0.204 F 
ENDBRANCH  29  31
ENDBRANCH   1  27
TORSDOF 7
