REMARK  7 active torsions:
REMARK  status: ('A' for Active; 'I' for Inactive)
REMARK    1  A    between atoms: C2_5  and  N1_2 
REMARK    2  A    between atoms: C10_18  and  N3_9 
REMARK    3  A    between atoms: N3_9  and  C11_19 
REMARK    4  A    between atoms: C7_15  and  O3_10 
REMARK    5  A    between atoms: C7_15  and  C4_11 
REMARK    6  A    between atoms: C9_17  and  N4_12 
REMARK    7  A    between atoms: C7_15  and  C8_16 
ROOT
ATOM      1  S1  Z68 d   1      92.184  80.577 -48.309  0.00  0.00    -0.050 SA
ATOM      2  N2  Z68 d   1      91.803  81.667 -50.650  0.00  0.00    -0.206 NA
ATOM      3  C8  Z68 d   1      93.032  79.993 -49.679  0.00  0.00     0.065 A 
ATOM      4  C9  Z68 d   1      92.713  80.694 -50.844  0.00  0.00     0.140 A 
ATOM      5  C10 Z68 d   1      91.428  81.714 -49.346  0.00  0.00     0.169 A 
ENDROOT
BRANCH   5   6
ATOM      6  N3  Z68 d   1      90.505  82.609 -48.893  0.00  0.00    -0.364 N 
ATOM      7  H3  Z68 d   1      90.227  83.406 -49.483  0.00  0.00     0.162 HD
BRANCH   6   8
ATOM      8  C11 Z68 d   1      89.907  82.437 -47.564  0.00  0.00     0.011 C 
ATOM      9  C12 Z68 d   1      88.804  81.288 -47.551  0.00  0.00    -0.046 C 
ATOM     10  C13 Z68 d   1      88.184  81.122 -46.139  0.00  0.00    -0.063 C 
ATOM     11  H11 Z68 d   1      89.271  80.339 -47.852  0.00  0.00     0.035 H 
ATOM     12  H12 Z68 d   1      88.008  81.547 -48.264  0.00  0.00     0.035 H 
ATOM     13  C14 Z68 d   1      87.594  82.486 -45.629  0.00  0.00    -0.065 C 
ATOM     14  H13 Z68 d   1      88.962  80.781 -45.440  0.00  0.00     0.033 H 
ATOM     15  H14 Z68 d   1      87.379  80.374 -46.184  0.00  0.00     0.033 H 
ATOM     16  C15 Z68 d   1      88.637  83.649 -45.687  0.00  0.00    -0.063 C 
ATOM     17  H15 Z68 d   1      87.264  82.360 -44.587  0.00  0.00     0.033 H 
ATOM     18  H16 Z68 d   1      86.732  82.754 -46.257  0.00  0.00     0.033 H 
ATOM     19  C16 Z68 d   1      89.283  83.789 -47.099  0.00  0.00    -0.046 C 
ATOM     20  H17 Z68 d   1      89.431  83.450 -44.952  0.00  0.00     0.033 H 
ATOM     21  H18 Z68 d   1      88.131  84.592 -45.434  0.00  0.00     0.033 H 
ATOM     22  H19 Z68 d   1      88.510  84.095 -47.819  0.00  0.00     0.035 H 
ATOM     23  H20 Z68 d   1      90.072  84.555 -47.059  0.00  0.00     0.035 H 
ATOM     24  H10 Z68 d   1      90.704  82.156 -46.860  0.00  0.00     0.072 H 
ENDBRANCH   6   8
ENDBRANCH   5   6
BRANCH   3  25
ATOM     25  C7  Z68 d   1      93.993  78.844 -49.555  0.00  0.00     0.096 C 
ATOM     26  H9  Z68 d   1      94.810  79.549 -49.343  0.00  0.00     0.099 H 
BRANCH  25  27
ATOM     27  O3  Z68 d   1      94.599  78.445 -50.681  0.00  0.00    -0.386 OA
ATOM     28  H4  Z68 d   1      94.309  78.988 -51.405  0.00  0.00     0.210 HD
ENDBRANCH  25  27
BRANCH  25  29
ATOM     29  C4  Z68 d   1      94.269  78.186 -48.359  0.00  0.00    -0.022 A 
ATOM     30  C3  Z68 d   1      94.467  78.894 -47.159  0.00  0.00    -0.042 A 
ATOM     31  C2  Z68 d   1      94.774  78.215 -45.833  0.00  0.00     0.103 A 
ATOM     32  H2  Z68 d   1      94.397  79.975 -47.181  0.00  0.00     0.088 H 
ATOM     33  C1  Z68 d   1      94.862  76.693 -45.875  0.00  0.00    -0.051 A 
ATOM     34  C6  Z68 d   1      94.648  75.963 -47.165  0.00  0.00    -0.080 A 
ATOM     35  H1  Z68 d   1      95.080  76.138 -44.969  0.00  0.00     0.087 H 
ATOM     36  C5  Z68 d   1      94.371  76.654 -48.327  0.00  0.00    -0.074 A 
ATOM     37  H8  Z68 d   1      94.711  74.881 -47.186  0.00  0.00     0.083 H 
ATOM     38  H7  Z68 d   1      94.221  76.098 -49.245  0.00  0.00     0.084 H 
BRANCH  31  39
ATOM     39  N1  Z68 d   1      94.944  78.913 -44.753  0.00  0.00    -0.116 N 
ATOM     40  O1  Z68 d   1      94.853  80.247 -44.750  0.00  0.00    -0.532 OA
ATOM     41  O2  Z68 d   1      95.192  78.396 -43.688  0.00  0.00    -0.532 OA
ENDBRANCH  31  39
ENDBRANCH  25  29
ENDBRANCH   3  25
BRANCH   4  42
ATOM     42  N4  Z68 d   1      93.243  80.443 -52.078  0.00  0.00    -0.383 N 
ATOM     43  H5  Z68 d   1      93.938  79.692 -52.197  0.00  0.00     0.157 HD
ATOM     44  H6  Z68 d   1      92.948  81.005 -52.889  0.00  0.00     0.157 HD
ENDBRANCH   4  42
TORSDOF 7
