REMARK  7 active torsions:
REMARK  status: ('A' for Active; 'I' for Inactive)
REMARK    1  A    between atoms: C6_6  and  C1_1 
REMARK    2  A    between atoms: C2_2  and  N7_7 
REMARK    3  A    between atoms: C4_4  and  N8_8 
REMARK       I    between atoms: N20_20  and  C6_6 
REMARK    4  A    between atoms: N8_8  and  C13_13 
REMARK    5  A    between atoms: C10_10  and  S16_16 
REMARK    6  A    between atoms: S16_16  and  N18_18 
REMARK    7  A    between atoms: C24_24  and  N20_20 
ROOT
ATOM      1  C1  Z71 d   1     -67.038 -80.791 -13.938  0.00  0.00     0.121 A 
ATOM      2  C2  Z71 d   1     -66.518 -81.533 -14.969  0.00  0.00     0.147 A 
ATOM      3  N3  Z71 d   1     -65.360 -82.221 -14.646  0.00  0.00    -0.205 NA
ATOM      4  C4  Z71 d   1     -64.981 -82.013 -13.398  0.00  0.00     0.174 A 
ATOM      5  S5  Z71 d   1     -66.063 -80.945 -12.474  0.00  0.00    -0.043 SA
ENDROOT
BRANCH   4   6
ATOM      6  N8  Z71 d   1     -63.817 -82.564 -12.912  0.00  0.00    -0.335 N 
ATOM      7  H3  Z71 d   1     -63.374 -83.195 -13.595  0.00  0.00     0.168 HD
BRANCH   6   8
ATOM      8  C13 Z71 d   1     -63.124 -82.486 -11.787  0.00  0.00     0.034 A 
ATOM      9  C12 Z71 d   1     -62.163 -83.502 -11.470  0.00  0.00    -0.056 A 
ATOM     10  C11 Z71 d   1     -61.365 -83.359 -10.310  0.00  0.00    -0.058 A 
ATOM     11  H5  Z71 d   1     -62.049 -84.369 -12.111  0.00  0.00     0.087 H 
ATOM     12  C10 Z71 d   1     -61.527 -82.201  -9.474  0.00  0.00     0.079 A 
ATOM     13  H4  Z71 d   1     -60.636 -84.119 -10.053  0.00  0.00     0.086 H 
ATOM     14  C15 Z71 d   1     -62.485 -81.195  -9.772  0.00  0.00    -0.058 A 
ATOM     15  C14 Z71 d   1     -63.277 -81.336 -10.925  0.00  0.00    -0.056 A 
ATOM     16  H7  Z71 d   1     -62.603 -80.335  -9.123  0.00  0.00     0.086 H 
ATOM     17  H6  Z71 d   1     -64.009 -80.575 -11.170  0.00  0.00     0.087 H 
BRANCH  12  18
ATOM     18  S16 Z71 d   1     -60.494 -81.997  -8.068  0.00  0.00     0.256 S 
ATOM     19  O17 Z71 d   1     -59.426 -81.074  -8.464  0.00  0.00    -0.201 OA
ATOM     20  O19 Z71 d   1     -60.126 -83.366  -7.615  0.00  0.00    -0.201 OA
BRANCH  18  21
ATOM     21  N18 Z71 d   1     -61.436 -81.267  -6.851  0.00  0.00    -0.324 N 
ATOM     22  H8  Z71 d   1     -61.031 -81.063  -5.960  0.00  0.00     0.169 HD
ATOM     23  H9  Z71 d   1     -62.394 -81.043  -7.027  0.00  0.00     0.169 HD
ENDBRANCH  18  21
ENDBRANCH  12  18
ENDBRANCH   6   8
ENDBRANCH   4   6
BRANCH   2  24
ATOM     24  N7  Z71 d   1     -67.045 -81.618 -16.246  0.00  0.00    -0.383 N 
ATOM     25  H1  Z71 d   1     -66.582 -82.203 -16.956  0.00  0.00     0.157 HD
ATOM     26  H2  Z71 d   1     -67.900 -81.096 -16.486  0.00  0.00     0.157 HD
ENDBRANCH   2  24
BRANCH   1  27
ATOM     27  C6  Z71 d   1     -68.242 -79.924 -13.924  0.00  0.00     0.267 C 
ATOM     28  O9  Z71 d   1     -68.863 -79.770 -14.979  0.00  0.00    -0.267 OA
ATOM     29  N20 Z71 d   1     -68.589 -79.342 -12.750  0.00  0.00    -0.322 N 
ATOM     30  H10 Z71 d   1     -67.996 -79.541 -11.970  0.00  0.00     0.169 HD
BRANCH  29  31
ATOM     31  C24 Z71 d   1     -69.693 -78.483 -12.490  0.00  0.00     0.040 A 
ATOM     32  C23 Z71 d   1     -69.593 -77.585 -11.382  0.00  0.00    -0.020 A 
ATOM     33  C22 Z71 d   1     -70.686 -76.706 -11.081  0.00  0.00     0.121 A 
ATOM     34  H12 Z71 d   1     -68.697 -77.568 -10.773  0.00  0.00     0.091 H 
ATOM     35  C21 Z71 d   1     -71.874 -76.722 -11.886  0.00  0.00    -0.008 A 
ATOM     36  F27 Z71 d   1     -70.597 -75.854 -10.045  0.00  0.00    -0.206 F 
ATOM     37  C26 Z71 d   1     -71.971 -77.614 -12.991  0.00  0.00     0.121 A 
ATOM     38  H11 Z71 d   1     -72.697 -76.055 -11.653  0.00  0.00     0.092 H 
ATOM     39  C25 Z71 d   1     -70.893 -78.486 -13.289  0.00  0.00    -0.020 A 
ATOM     40  F28 Z71 d   1     -73.086 -77.638 -13.766  0.00  0.00    -0.206 F 
ATOM     41  H13 Z71 d   1     -70.972 -79.165 -14.130  0.00  0.00     0.091 H 
ENDBRANCH  29  31
ENDBRANCH   1  27
TORSDOF 7
