REMARK  6 active torsions:
REMARK  status: ('A' for Active; 'I' for Inactive)
REMARK    1  A    between atoms: C14_19  and  N3_6 
REMARK    2  A    between atoms: N3_6  and  C15_20 
REMARK    3  A    between atoms: C11_16  and  O3_7 
REMARK    4  A    between atoms: C13_18  and  N4_9 
REMARK    5  A    between atoms: C11_16  and  C10_15 
REMARK    6  A    between atoms: C11_16  and  C12_17 
ROOT
ATOM      1  S1  O1Z d   1      92.241  81.018 -48.545  0.00  0.00    -0.050 SA
ATOM      2  N2  O1Z d   1      91.865  82.074 -50.889  0.00  0.00    -0.206 NA
ATOM      3  C12 O1Z d   1      93.070  80.380 -49.898  0.00  0.00     0.065 A 
ATOM      4  C13 O1Z d   1      92.763  81.071 -51.071  0.00  0.00     0.140 A 
ATOM      5  C14 O1Z d   1      91.496  82.153 -49.578  0.00  0.00     0.169 A 
ENDROOT
BRANCH   3   6
ATOM      6  C11 O1Z d   1      94.001  79.208 -49.753  0.00  0.00     0.096 C 
ATOM      7  H12 O1Z d   1      94.838  79.885 -49.531  0.00  0.00     0.099 H 
BRANCH   6   8
ATOM      8  O3  O1Z d   1      94.608  78.762 -50.885  0.00  0.00    -0.386 OA
ATOM      9  H4  O1Z d   1      94.364  79.319 -51.614  0.00  0.00     0.210 HD
ENDBRANCH   6   8
BRANCH   6  10
ATOM     10  C10 O1Z d   1      94.220  78.546 -48.590  0.00  0.00    -0.024 A 
ATOM     11  C3  O1Z d   1      94.163  77.089 -48.510  0.00  0.00    -0.073 A 
ATOM     12  C2  O1Z d   1      94.360  76.389 -47.264  0.00  0.00    -0.072 A 
ATOM     13  H2  O1Z d   1      93.968  76.518 -49.411  0.00  0.00     0.084 H 
ATOM     14  C1  O1Z d   1      94.617  77.124 -46.052  0.00  0.00    -0.026 A 
ATOM     15  H1  O1Z d   1      94.314  75.306 -47.240  0.00  0.00     0.084 H 
ATOM     16  C5  O1Z d   1      94.687  78.616 -46.097  0.00  0.00    -0.025 A 
ATOM     17  C6  O1Z d   1      94.806  76.442 -44.788  0.00  0.00    -0.072 A 
ATOM     18  C4  O1Z d   1      94.491  79.296 -47.352  0.00  0.00    -0.063 A 
ATOM     19  C9  O1Z d   1      94.946  79.359 -44.875  0.00  0.00    -0.072 A 
ATOM     20  H5  O1Z d   1      94.544  80.378 -47.386  0.00  0.00     0.085 H 
ATOM     21  C8  O1Z d   1      95.129  78.651 -43.628  0.00  0.00    -0.082 A 
ATOM     22  H11 O1Z d   1      95.002  80.441 -44.899  0.00  0.00     0.084 H 
ATOM     23  C7  O1Z d   1      95.059  77.207 -43.586  0.00  0.00    -0.082 A 
ATOM     24  H10 O1Z d   1      95.320  79.207 -42.717  0.00  0.00     0.083 H 
ATOM     25  H9  O1Z d   1      95.198  76.692 -42.643  0.00  0.00     0.083 H 
ATOM     26  H8  O1Z d   1      94.758  75.360 -44.743  0.00  0.00     0.084 H 
ENDBRANCH   6  10
ENDBRANCH   3   6
BRANCH   4  27
ATOM     27  N4  O1Z d   1      93.281  80.785 -52.301  0.00  0.00    -0.383 N 
ATOM     28  H6  O1Z d   1      93.960  80.018 -52.408  0.00  0.00     0.157 HD
ATOM     29  H7  O1Z d   1      92.993  81.336 -53.122  0.00  0.00     0.157 HD
ENDBRANCH   4  27
BRANCH   5  30
ATOM     30  N3  O1Z d   1      90.581  83.076 -49.128  0.00  0.00    -0.364 N 
ATOM     31  H3  O1Z d   1      90.308  83.871 -49.723  0.00  0.00     0.162 HD
BRANCH  30  32
ATOM     32  C15 O1Z d   1      89.997  82.914 -47.788  0.00  0.00     0.011 C 
ATOM     33  C16 O1Z d   1      88.924  81.772 -47.761  0.00  0.00    -0.046 C 
ATOM     34  C17 O1Z d   1      88.321  81.602 -46.344  0.00  0.00    -0.063 C 
ATOM     35  H14 O1Z d   1      89.398  80.827 -48.065  0.00  0.00     0.035 H 
ATOM     36  H15 O1Z d   1      88.118  82.021 -48.466  0.00  0.00     0.035 H 
ATOM     37  C18 O1Z d   1      87.725  82.936 -45.825  0.00  0.00    -0.065 C 
ATOM     38  H16 O1Z d   1      89.112  81.270 -45.655  0.00  0.00     0.033 H 
ATOM     39  H17 O1Z d   1      87.525  80.844 -46.381  0.00  0.00     0.033 H 
ATOM     40  C19 O1Z d   1      88.740  84.105 -45.904  0.00  0.00    -0.063 C 
ATOM     41  H18 O1Z d   1      87.420  82.803 -44.777  0.00  0.00     0.033 H 
ATOM     42  H19 O1Z d   1      86.845  83.190 -46.434  0.00  0.00     0.033 H 
ATOM     43  C20 O1Z d   1      89.360  84.249 -47.317  0.00  0.00    -0.046 C 
ATOM     44  H20 O1Z d   1      89.548  83.922 -45.180  0.00  0.00     0.033 H 
ATOM     45  H21 O1Z d   1      88.222  85.041 -45.647  0.00  0.00     0.033 H 
ATOM     46  H22 O1Z d   1      88.572  84.541 -48.027  0.00  0.00     0.035 H 
ATOM     47  H23 O1Z d   1      90.136  85.028 -47.291  0.00  0.00     0.035 H 
ATOM     48  H13 O1Z d   1      90.804  82.646 -47.091  0.00  0.00     0.072 H 
ENDBRANCH  30  32
ENDBRANCH   5  30
TORSDOF 6
