REMARK  8 active torsions:
REMARK  status: ('A' for Active; 'I' for Inactive)
REMARK    1  A    between atoms: C13_18  and  N2_6 
REMARK    2  A    between atoms: S2_8  and  N4_13 
REMARK    3  A    between atoms: C18_23  and  S2_8 
REMARK    4  A    between atoms: N3_10  and  C14_19 
REMARK    5  A    between atoms: C15_20  and  N3_10 
REMARK    6  A    between atoms: C11_16  and  O3_11 
REMARK    7  A    between atoms: C11_16  and  C10_15 
REMARK    8  A    between atoms: C12_17  and  C11_16 
ROOT
ATOM      1  N1  03Z d   1      92.274  81.758 -50.800  0.00  0.00    -0.206 NA
ATOM      2  S1  03Z d   1      92.975  80.493 -48.664  0.00  0.00    -0.050 SA
ATOM      3  C12 03Z d   1      93.815  80.222 -50.113  0.00  0.00     0.065 A 
ATOM      4  C13 03Z d   1      93.320  80.979 -51.142  0.00  0.00     0.140 A 
ATOM      5  C14 03Z d   1      91.966  81.615 -49.510  0.00  0.00     0.173 A 
ENDROOT
BRANCH   5   6
ATOM      6  N3  03Z d   1      90.919  82.344 -48.999  0.00  0.00    -0.335 N 
ATOM      7  H6  03Z d   1      90.689  83.208 -49.511  0.00  0.00     0.168 HD
BRANCH   6   8
ATOM      8  C15 03Z d   1      90.134  82.080 -47.897  0.00  0.00     0.034 A 
ATOM      9  C16 03Z d   1      90.292  80.892 -47.029  0.00  0.00    -0.056 A 
ATOM     10  C17 03Z d   1      89.447  80.675 -45.920  0.00  0.00    -0.058 A 
ATOM     11  H13 03Z d   1      91.073  80.174 -47.250  0.00  0.00     0.087 H 
ATOM     12  C18 03Z d   1      88.410  81.633 -45.628  0.00  0.00     0.079 A 
ATOM     13  H14 03Z d   1      89.576  79.799 -45.295  0.00  0.00     0.086 H 
ATOM     14  C19 03Z d   1      88.242  82.812 -46.468  0.00  0.00    -0.058 A 
ATOM     15  C20 03Z d   1      89.082  83.035 -47.579  0.00  0.00    -0.056 A 
ATOM     16  H15 03Z d   1      87.461  83.527 -46.236  0.00  0.00     0.086 H 
ATOM     17  H16 03Z d   1      88.945  83.916 -48.195  0.00  0.00     0.087 H 
BRANCH  12  18
ATOM     18  S2  03Z d   1      87.425  81.403 -44.389  0.00  0.00     0.256 S 
ATOM     19  O1  03Z d   1      86.239  80.464 -44.908  0.00  0.00    -0.201 OA
ATOM     20  O2  03Z d   1      86.872  82.828 -43.886  0.00  0.00    -0.201 OA
BRANCH  18  21
ATOM     21  N4  03Z d   1      88.181  80.670 -43.235  0.00  0.00    -0.324 N 
ATOM     22  H9  03Z d   1      88.584  79.769 -43.395  0.00  0.00     0.169 HD
ATOM     23  H10 03Z d   1      88.262  81.102 -42.337  0.00  0.00     0.169 HD
ENDBRANCH  18  21
ENDBRANCH  12  18
ENDBRANCH   6   8
ENDBRANCH   5   6
BRANCH   4  24
ATOM     24  N2  03Z d   1      93.805  80.955 -52.399  0.00  0.00    -0.383 N 
ATOM     25  H3  03Z d   1      94.606  80.350 -52.631  0.00  0.00     0.157 HD
ATOM     26  H4  03Z d   1      93.375  81.542 -53.128  0.00  0.00     0.157 HD
ENDBRANCH   4  24
BRANCH   3  27
ATOM     27  C11 03Z d   1      94.952  79.258 -50.216  0.00  0.00     0.096 C 
ATOM     28  H12 03Z d   1      95.658  80.050 -49.925  0.00  0.00     0.099 H 
BRANCH  27  29
ATOM     29  O3  03Z d   1      95.574  79.117 -51.398  0.00  0.00    -0.386 OA
ATOM     30  H7  03Z d   1      95.483  78.220 -51.697  0.00  0.00     0.210 HD
ENDBRANCH  27  29
BRANCH  27  31
ATOM     31  C10 03Z d   1      95.380  78.445 -49.052  0.00  0.00    -0.025 A 
ATOM     32  C3  03Z d   1      96.778  78.402 -48.647  0.00  0.00    -0.074 A 
ATOM     33  C2  03Z d   1      97.176  77.606 -47.525  0.00  0.00    -0.082 A 
ATOM     34  H5  03Z d   1      97.518  78.973 -49.195  0.00  0.00     0.084 H 
ATOM     35  C1  03Z d   1      96.198  76.831 -46.775  0.00  0.00    -0.083 A 
ATOM     36  H2  03Z d   1      98.219  77.580 -47.230  0.00  0.00     0.083 H 
ATOM     37  C5  03Z d   1      94.778  76.860 -47.173  0.00  0.00    -0.082 A 
ATOM     38  H1  03Z d   1      96.513  76.234 -45.926  0.00  0.00     0.083 H 
ATOM     39  C4  03Z d   1      94.386  77.658 -48.299  0.00  0.00    -0.074 A 
ATOM     40  H11 03Z d   1      94.041  76.287 -46.623  0.00  0.00     0.083 H 
ATOM     41  H8  03Z d   1      93.345  77.683 -48.600  0.00  0.00     0.084 H 
ENDBRANCH  27  31
ENDBRANCH   3  27
TORSDOF 8
