REMARK  10 active torsions:
REMARK  status: ('A' for Active; 'I' for Inactive)
REMARK    1  A    between atoms: C2_5  and  O6_15 
REMARK    2  A    between atoms: C13_20  and  N2_6 
REMARK    3  A    between atoms: S2_8  and  N4_13 
REMARK    4  A    between atoms: C18_25  and  S2_8 
REMARK    5  A    between atoms: N3_10  and  C14_21 
REMARK    6  A    between atoms: C15_22  and  N3_10 
REMARK    7  A    between atoms: C11_18  and  O3_11 
REMARK    8  A    between atoms: O6_15  and  C7_16 
REMARK    9  A    between atoms: C11_18  and  C10_17 
REMARK   10  A    between atoms: C12_19  and  C11_18 
ROOT
ATOM      1  N1  04Z d   1      92.183  82.225 -50.791  0.00  0.00    -0.206 NA
ATOM      2  S1  04Z d   1      92.839  80.939 -48.646  0.00  0.00    -0.050 SA
ATOM      3  C12 04Z d   1      93.716  80.674 -50.086  0.00  0.00     0.065 A 
ATOM      4  C13 04Z d   1      93.233  81.443 -51.127  0.00  0.00     0.140 A 
ATOM      5  C14 04Z d   1      91.854  82.073 -49.503  0.00  0.00     0.173 A 
ENDROOT
BRANCH   3   6
ATOM      6  C11 04Z d   1      94.861  79.712 -50.159  0.00  0.00     0.096 C 
ATOM      7  H14 04Z d   1      95.559  80.507 -49.859  0.00  0.00     0.099 H 
BRANCH   6   8
ATOM      8  O3  04Z d   1      95.522  79.568 -51.330  0.00  0.00    -0.386 OA
ATOM      9  H6  04Z d   1      95.449  78.668 -51.625  0.00  0.00     0.210 HD
ENDBRANCH   6   8
BRANCH   6  10
ATOM     10  C10 04Z d   1      95.244  78.919 -48.949  0.00  0.00    -0.022 A 
ATOM     11  C3  04Z d   1      96.582  79.004 -48.369  0.00  0.00    -0.042 A 
ATOM     12  C2  04Z d   1      96.910  78.236 -47.196  0.00  0.00     0.068 A 
ATOM     13  H4  04Z d   1      97.329  79.646 -48.822  0.00  0.00     0.088 H 
ATOM     14  C1  04Z d   1      95.908  77.367 -46.581  0.00  0.00    -0.051 A 
ATOM     15  C5  04Z d   1      94.562  77.271 -47.157  0.00  0.00    -0.080 A 
ATOM     16  H1  04Z d   1      96.160  76.792 -45.697  0.00  0.00     0.087 H 
ATOM     17  C4  04Z d   1      94.249  78.042 -48.323  0.00  0.00    -0.074 A 
ATOM     18  H10 04Z d   1      93.816  76.626 -46.707  0.00  0.00     0.083 H 
ATOM     19  H7  04Z d   1      93.256  77.976 -48.752  0.00  0.00     0.084 H 
BRANCH  12  20
ATOM     20  O6  04Z d   1      98.200  78.350 -46.663  0.00  0.00    -0.356 OA
BRANCH  20  21
ATOM     21  C7  04Z d   1      98.620  77.697 -45.578  0.00  0.00     0.010 C 
ATOM     22  H11 04Z d   1      99.668  77.962 -45.373  0.00  0.00     0.066 H 
ATOM     23  H12 04Z d   1      98.543  76.613 -45.749  0.00  0.00     0.066 H 
ATOM     24  H13 04Z d   1      97.996  77.977 -44.717  0.00  0.00     0.066 H 
ENDBRANCH  20  21
ENDBRANCH  12  20
ENDBRANCH   6  10
ENDBRANCH   3   6
BRANCH   4  25
ATOM     25  N2  04Z d   1      93.736  81.427 -52.376  0.00  0.00    -0.383 N 
ATOM     26  H2  04Z d   1      94.537  80.820 -52.601  0.00  0.00     0.157 HD
ATOM     27  H3  04Z d   1      93.320  82.022 -53.107  0.00  0.00     0.157 HD
ENDBRANCH   4  25
BRANCH   5  28
ATOM     28  N3  04Z d   1      90.808  82.804 -48.998  0.00  0.00    -0.335 N 
ATOM     29  H5  04Z d   1      90.587  83.669 -49.512  0.00  0.00     0.168 HD
BRANCH  28  30
ATOM     30  C15 04Z d   1      90.008  82.548 -47.900  0.00  0.00     0.034 A 
ATOM     31  C16 04Z d   1      90.152  81.360 -47.021  0.00  0.00    -0.056 A 
ATOM     32  C17 04Z d   1      89.291  81.152 -45.922  0.00  0.00    -0.058 A 
ATOM     33  H15 04Z d   1      90.934  80.638 -47.227  0.00  0.00     0.087 H 
ATOM     34  C18 04Z d   1      88.249  82.115 -45.642  0.00  0.00     0.079 A 
ATOM     35  H16 04Z d   1      89.410  80.277 -45.293  0.00  0.00     0.086 H 
ATOM     36  C19 04Z d   1      88.095  83.294 -46.487  0.00  0.00    -0.058 A 
ATOM     37  C20 04Z d   1      88.958  83.507 -47.596  0.00  0.00    -0.056 A 
ATOM     38  H17 04Z d   1      87.315  84.014 -46.267  0.00  0.00     0.086 H 
ATOM     39  H18 04Z d   1      88.833  84.387 -48.217  0.00  0.00     0.087 H 
BRANCH  34  40
ATOM     40  S2  04Z d   1      87.254  81.879 -44.408  0.00  0.00     0.256 S 
ATOM     41  O1  04Z d   1      86.032  80.982 -44.952  0.00  0.00    -0.201 OA
ATOM     42  O2  04Z d   1      86.720  83.322 -43.858  0.00  0.00    -0.201 OA
BRANCH  40  43
ATOM     43  N4  04Z d   1      87.983  81.102 -43.273  0.00  0.00    -0.324 N 
ATOM     44  H8  04Z d   1      88.368  80.197 -43.454  0.00  0.00     0.169 HD
ATOM     45  H9  04Z d   1      88.066  81.508 -42.363  0.00  0.00     0.169 HD
ENDBRANCH  40  43
ENDBRANCH  34  40
ENDBRANCH  28  30
ENDBRANCH   5  28
TORSDOF 10
