REMARK  16 active torsions:
REMARK  status: ('A' for Active; 'I' for Inactive)
REMARK    1  A    between atoms: CAK_11  and  CAA_1 
REMARK    2  A    between atoms: CAL_12  and  CAK_11 
REMARK    3  A    between atoms: CAM_13  and  CAL_12 
REMARK    4  A    between atoms: CAN_14  and  CAM_13 
REMARK    5  A    between atoms: CAO_15  and  CAN_14 
REMARK    6  A    between atoms: CAP_16  and  CAO_15 
REMARK    7  A    between atoms: CAQ_17  and  CAP_16 
REMARK    8  A    between atoms: CAR_18  and  CAQ_17 
REMARK    9  A    between atoms: CAS_19  and  CAR_18 
REMARK   10  A    between atoms: CAT_20  and  CAS_19 
REMARK   11  A    between atoms: CAU_21  and  CAT_20 
REMARK   12  A    between atoms: NAX_24  and  CAU_21 
REMARK   13  A    between atoms: CAW_23  and  CAV_22 
REMARK   14  A    between atoms: CAV_22  and  NAY_25 
REMARK   15  A    between atoms: CAW_23  and  PAZ_26 
REMARK   16  A    between atoms: CAW_23  and  PBA_27 
ROOT
ATOM      1  CAS B73 d   1     -34.402  12.640 -14.564  0.00  0.00    -0.064 C 
ATOM      2  H   B73 d   1     -33.355  12.341 -14.510  0.00  0.00     0.033 H 
ATOM      3  H   B73 d   1     -34.473  13.711 -14.752  0.00  0.00     0.033 H 
ENDROOT
BRANCH   1   4
ATOM      4  CAR B73 d   1     -35.086  12.316 -13.241  0.00  0.00    -0.065 C 
ATOM      5  H   B73 d   1     -36.145  12.569 -13.299  0.00  0.00     0.033 H 
ATOM      6  H   B73 d   1     -34.993  11.251 -13.027  0.00  0.00     0.033 H 
BRANCH   4   7
ATOM      7  CAQ B73 d   1     -34.419  13.128 -12.135  0.00  0.00    -0.065 C 
ATOM      8  H   B73 d   1     -33.338  13.120 -12.273  0.00  0.00     0.033 H 
ATOM      9  H   B73 d   1     -34.772  14.159 -12.171  0.00  0.00     0.033 H 
BRANCH   7  10
ATOM     10  CAP B73 d   1     -34.772  12.507 -10.783  0.00  0.00    -0.065 C 
ATOM     11  H   B73 d   1     -35.279  13.255 -10.173  0.00  0.00     0.033 H 
ATOM     12  H   B73 d   1     -35.417  11.644 -10.949  0.00  0.00     0.033 H 
BRANCH  10  13
ATOM     13  CAO B73 d   1     -33.526  12.054 -10.063  0.00  0.00    -0.065 C 
ATOM     14  H   B73 d   1     -33.251  11.046 -10.372  0.00  0.00     0.033 H 
ATOM     15  H   B73 d   1     -32.688  12.708 -10.302  0.00  0.00     0.033 H 
BRANCH  13  16
ATOM     16  CAN B73 d   1     -33.825  12.092  -8.563  0.00  0.00    -0.065 C 
ATOM     17  H   B73 d   1     -32.876  12.064  -8.028  0.00  0.00     0.033 H 
ATOM     18  H   B73 d   1     -34.391  13.000  -8.354  0.00  0.00     0.033 H 
BRANCH  16  19
ATOM     19  CAM B73 d   1     -34.659  10.899  -8.108  0.00  0.00    -0.065 C 
ATOM     20  H   B73 d   1     -35.678  11.013  -8.478  0.00  0.00     0.033 H 
ATOM     21  H   B73 d   1     -34.218   9.983  -8.501  0.00  0.00     0.033 H 
BRANCH  19  22
ATOM     22  CAL B73 d   1     -34.685  10.828  -6.579  0.00  0.00    -0.065 C 
ATOM     23  H   B73 d   1     -34.531  11.834  -6.188  0.00  0.00     0.033 H 
ATOM     24  H   B73 d   1     -35.646  10.415  -6.273  0.00  0.00     0.033 H 
BRANCH  22  25
ATOM     25  CAK B73 d   1     -33.575   9.922  -6.028  0.00  0.00    -0.069 C 
ATOM     26  H   B73 d   1     -33.995   9.316  -5.225  0.00  0.00     0.032 H 
ATOM     27  H   B73 d   1     -33.198   9.308  -6.846  0.00  0.00     0.032 H 
BRANCH  25  28
ATOM     28  CAA B73 d   1     -32.400  10.737  -5.454  0.00  0.00    -0.077 C 
ATOM     29  H   B73 d   1     -31.974  11.361  -6.240  0.00  0.00     0.027 H 
ATOM     30  H   B73 d   1     -32.760  11.369  -4.642  0.00  0.00     0.027 H 
ATOM     31  H   B73 d   1     -31.638  10.056  -5.075  0.00  0.00     0.027 H 
ENDBRANCH  25  28
ENDBRANCH  22  25
ENDBRANCH  19  22
ENDBRANCH  16  19
ENDBRANCH  13  16
ENDBRANCH  10  13
ENDBRANCH   7  10
ENDBRANCH   4   7
ENDBRANCH   1   4
BRANCH   1  32
ATOM     32  CAT B73 d   1     -35.082  11.885 -15.698  0.00  0.00    -0.050 C 
ATOM     33  H   B73 d   1     -36.059  11.518 -15.384  0.00  0.00     0.035 H 
ATOM     34  H   B73 d   1     -34.492  11.016 -15.990  0.00  0.00     0.035 H 
BRANCH  32  35
ATOM     35  CAU B73 d   1     -35.220  12.852 -16.856  0.00  0.00     0.000 C 
ATOM     36  H   B73 d   1     -34.278  13.384 -16.992  0.00  0.00     0.064 H 
ATOM     37  H   B73 d   1     -36.022  13.558 -16.639  0.00  0.00     0.064 H 
BRANCH  35  38
ATOM     38  NAX B73 d   1     -35.543  12.120 -18.091  0.00  0.00    -0.352 N 
ATOM     39  CAH B73 d   1     -35.323  12.668 -19.294  0.00  0.00    -0.005 C 
ATOM     40  CAI B73 d   1     -35.810  11.790 -20.171  0.00  0.00    -0.005 C 
ATOM     41  H   B73 d   1     -34.848  13.625 -19.509  0.00  0.00     0.113 H 
ATOM     42  NAY B73 d   1     -36.600  10.930 -19.492  0.00  0.00    -0.350 N 
ATOM     43  H   B73 d   1     -35.608  11.770 -21.242  0.00  0.00     0.113 H 
ATOM     44  CAJ B73 d   1     -36.389  11.063 -18.183  0.00  0.00     0.044 C 
ATOM     45  H   B73 d   1     -36.801  10.461 -17.373  0.00  0.00     0.141 H 
BRANCH  42  46
ATOM     46  CAV B73 d   1     -37.101   9.730 -20.155  0.00  0.00     0.028 C 
ATOM     47  H   B73 d   1     -36.875   9.841 -21.215  0.00  0.00     0.067 H 
ATOM     48  H   B73 d   1     -36.626   8.880 -19.665  0.00  0.00     0.067 H 
BRANCH  46  49
ATOM     49  CAW B73 d   1     -38.621   9.507 -20.049  0.00  0.00     0.177 C 
ATOM     50  H   B73 d   1     -38.707   9.285 -18.985  0.00  0.00     0.086 H 
BRANCH  49  51
ATOM     51  PAZ B73 d   1     -39.173   8.126 -21.085  0.00  0.00     0.279 P 
ATOM     52  OAB B73 d   1     -40.222   8.324 -22.121  0.00  0.00    -0.639 OA
ATOM     53  OAD B73 d   1     -37.805   7.499 -21.721  0.00  0.00    -0.639 OA
ATOM     54  OAE B73 d   1     -39.572   7.161 -19.825  0.00  0.00    -0.639 OA
ENDBRANCH  49  51
BRANCH  49  55
ATOM     55  PBA B73 d   1     -39.744  10.907 -20.258  0.00  0.00     0.279 P 
ATOM     56  OAC B73 d   1     -40.758  10.851 -21.337  0.00  0.00    -0.639 OA
ATOM     57  OAF B73 d   1     -40.313  10.730 -18.739  0.00  0.00    -0.639 OA
ATOM     58  OAG B73 d   1     -38.940  12.356 -20.147  0.00  0.00    -0.639 OA
ENDBRANCH  49  55
ENDBRANCH  46  49
ENDBRANCH  42  46
ENDBRANCH  35  38
ENDBRANCH  32  35
ENDBRANCH   1  32
TORSDOF 16
