REMARK WARNING: 32 MAX_TORS EXCEEDED!!!
REMARK  33 active torsions:
REMARK  status: ('A' for Active; 'I' for Inactive)
REMARK    1  A    between atoms: C1_2  and  C2_3 
REMARK       I    between atoms: C1_2  and  N_14 
REMARK    2  A    between atoms: C2_3  and  C3_4 
REMARK    3  A    between atoms: C3_4  and  C4_5 
REMARK    4  A    between atoms: C4_5  and  C5_6 
REMARK    5  A    between atoms: C5_6  and  C6_7 
REMARK    6  A    between atoms: C6_7  and  C7_8 
REMARK    7  A    between atoms: C7_8  and  C8_9 
REMARK    8  A    between atoms: C8_9  and  C9_10 
REMARK    9  A    between atoms: C9_10  and  C10_11 
REMARK   10  A    between atoms: C10_11  and  C11_12 
REMARK   11  A    between atoms: C11_12  and  C12_13 
REMARK   12  A    between atoms: N_14  and  CA_15 
REMARK   13  A    between atoms: CA_15  and  C_16 
REMARK       I    between atoms: C_16  and  N_18 
REMARK   14  A    between atoms: N_18  and  CA_19 
REMARK   15  A    between atoms: CA_19  and  C_20 
REMARK   16  A    between atoms: CA_19  and  CB_22 
REMARK       I    between atoms: C_20  and  N_23 
REMARK   17  A    between atoms: N_23  and  CA_24 
REMARK   18  A    between atoms: CA_24  and  C_25 
REMARK       I    between atoms: C_25  and  N_27 
REMARK   19  A    between atoms: N_27  and  CA_28 
REMARK   20  A    between atoms: CA_28  and  C_29 
REMARK   21  A    between atoms: CA_28  and  CB_31 
REMARK       I    between atoms: C_29  and  N_32 
REMARK   22  A    between atoms: N_32  and  CA_33 
REMARK   23  A    between atoms: CA_33  and  C_34 
REMARK   24  A    between atoms: CA_33  and  CB_36 
REMARK       I    between atoms: C_34  and  N_38 
REMARK   25  A    between atoms: CB_36  and  OG_37 
REMARK   26  A    between atoms: N_38  and  CA_39 
REMARK   27  A    between atoms: CA_39  and  C_40 
REMARK   28  A    between atoms: CA_39  and  CB_42 
REMARK       I    between atoms: C_40  and  N_43 
REMARK   29  A    between atoms: N_43  and  CA_44 
REMARK   30  A    between atoms: CA_44  and  C_45 
REMARK   31  A    between atoms: CA_44  and  CB_47 
REMARK   32  A    between atoms: CB_47  and  CG_48 
REMARK   33  A    between atoms: CG_48  and  CD_49 
ROOT
ATOM      1  N   GLY d   1      39.477 -24.126 -22.404  0.00  0.00    -0.351 N 
ATOM      2  H   GLY d   1      39.543 -23.109 -22.365  0.00  0.00     0.163 HD
ATOM      3  C   ALA d   1      40.323 -24.875 -21.690  0.00  0.00     0.240 C 
ATOM      4  O   ALA d   1      40.253 -26.107 -21.640  0.00  0.00    -0.271 OA
ENDROOT
BRANCH   1   5
ATOM      5  CA  GLY d   1      38.458 -24.758 -23.240  0.00  0.00     0.069 C 
ATOM      6  H   GLY d   1      37.851 -23.952 -23.654  0.00  0.00     0.078 H 
ATOM      7  H   GLY d   1      37.926 -25.464 -22.602  0.00  0.00     0.078 H 
BRANCH   5   8
ATOM      8  C   GLY d   1      39.000 -25.575 -24.453  0.00  0.00     0.236 C 
ATOM      9  O   GLY d   1      38.253 -26.320 -25.025  0.00  0.00    -0.272 OA
ATOM     10  N   ALA d   1      40.244 -25.349 -24.877  0.00  0.00    -0.347 N 
ATOM     11  H   ALA d   1      40.810 -24.673 -24.363  0.00  0.00     0.163 HD
BRANCH  10  12
ATOM     12  CA  ALA d   1      40.856 -26.021 -26.051  0.00  0.00     0.086 C 
ATOM     13  H   ALA d   1      40.164 -25.909 -26.886  0.00  0.00     0.086 H 
BRANCH  12  14
ATOM     14  C   ALA d   1      41.100 -27.483 -25.737  0.00  0.00     0.240 C 
ATOM     15  O   ALA d   1      40.870 -28.343 -26.573  0.00  0.00    -0.271 OA
ATOM     16  N   SER d   1      41.578 -27.716 -24.518  0.00  0.00    -0.344 N 
ATOM     17  H   SER d   1      41.528 -26.960 -23.835  0.00  0.00     0.163 HD
BRANCH  16  18
ATOM     18  CA  SER d   1      42.167 -28.977 -24.094  0.00  0.00     0.109 C 
ATOM     19  H   SER d   1      42.826 -29.431 -24.834  0.00  0.00     0.090 H 
BRANCH  18  20
ATOM     20  C   SER d   1      40.979 -29.848 -23.800  0.00  0.00     0.243 C 
ATOM     21  O   SER d   1      40.942 -31.012 -24.226  0.00  0.00    -0.271 OA
ATOM     22  N   ALA d   1      39.988 -29.239 -23.122  0.00  0.00    -0.346 N 
ATOM     23  H   ALA d   1      40.102 -28.255 -22.877  0.00  0.00     0.163 HD
BRANCH  22  24
ATOM     24  CA  ALA d   1      38.750 -29.921 -22.717  0.00  0.00     0.086 C 
ATOM     25  H   ALA d   1      39.027 -30.808 -22.147  0.00  0.00     0.086 H 
BRANCH  24  26
ATOM     26  C   ALA d   1      37.933 -30.479 -23.929  0.00  0.00     0.240 C 
ATOM     27  O   ALA d   1      36.999 -31.266 -23.743  0.00  0.00    -0.271 OA
ATOM     28  N   GLU d   1      38.314 -30.061 -25.148  0.00  0.00    -0.345 N 
ATOM     29  H   GLU d   1      38.895 -29.224 -25.198  0.00  0.00     0.163 HD
BRANCH  28  30
ATOM     30  CA  GLU d   1      37.953 -30.726 -26.433  0.00  0.00     0.097 C 
ATOM     31  H   GLU d   1      37.212 -31.495 -26.216  0.00  0.00     0.089 H 
BRANCH  30  32
ATOM     32  C   GLU d   1      39.197 -31.378 -27.077  0.00  0.00     0.196 C 
ATOM     33  O   GLU d   1      39.150 -32.517 -27.594  0.00  0.00    -0.646 OA
ATOM     34  O   GLU d   1      40.287 -30.747 -27.082  0.00  0.00    -0.646 OA
ENDBRANCH  30  32
BRANCH  30  35
ATOM     35  CB  GLU d   1      37.369 -29.703 -27.415  0.00  0.00    -0.028 C 
ATOM     36  H   GLU d   1      38.171 -28.997 -27.633  0.00  0.00     0.037 H 
ATOM     37  H   GLU d   1      36.483 -29.289 -26.933  0.00  0.00     0.037 H 
BRANCH  35  38
ATOM     38  CG  GLU d   1      36.899 -30.260 -28.781  0.00  0.00     0.018 C 
ATOM     39  H   GLU d   1      37.456 -31.180 -28.957  0.00  0.00     0.049 H 
ATOM     40  H   GLU d   1      37.069 -29.476 -29.519  0.00  0.00     0.049 H 
BRANCH  38  41
ATOM     41  CD  GLU d   1      35.390 -30.625 -28.849  0.00  0.00     0.172 C 
ATOM     42  OE1 GLU d   1      34.788 -31.035 -27.830  0.00  0.00    -0.648 OA
ATOM     43  OE2 GLU d   1      34.803 -30.512 -29.947  0.00  0.00    -0.648 OA
ENDBRANCH  38  41
ENDBRANCH  35  38
ENDBRANCH  30  35
ENDBRANCH  28  30
ENDBRANCH  24  26
BRANCH  24  44
ATOM     44  CB  ALA d   1      37.914 -29.004 -21.781  0.00  0.00    -0.049 C 
ATOM     45  H   ALA d   1      38.498 -28.765 -20.892  0.00  0.00     0.030 H 
ATOM     46  H   ALA d   1      37.660 -28.084 -22.308  0.00  0.00     0.030 H 
ATOM     47  H   ALA d   1      37.000 -29.521 -21.489  0.00  0.00     0.030 H 
ENDBRANCH  24  44
ENDBRANCH  22  24
ENDBRANCH  18  20
BRANCH  18  48
ATOM     48  CB  SER d   1      43.012 -28.735 -22.837  0.00  0.00     0.044 C 
ATOM     49  H   SER d   1      42.313 -28.486 -22.038  0.00  0.00     0.077 H 
ATOM     50  H   SER d   1      43.732 -27.958 -23.094  0.00  0.00     0.077 H 
BRANCH  48  51
ATOM     51  OG  SER d   1      43.774 -29.858 -22.374  0.00  0.00    -0.398 OA
ATOM     52  H   SER d   1      44.265 -29.608 -21.588  0.00  0.00     0.209 HD
ENDBRANCH  48  51
ENDBRANCH  18  48
ENDBRANCH  16  18
ENDBRANCH  12  14
BRANCH  12  53
ATOM     53  CB  ALA d   1      42.188 -25.399 -26.414  0.00  0.00    -0.049 C 
ATOM     54  H   ALA d   1      42.042 -24.346 -26.655  0.00  0.00     0.030 H 
ATOM     55  H   ALA d   1      42.871 -25.488 -25.570  0.00  0.00     0.030 H 
ATOM     56  H   ALA d   1      42.606 -25.917 -27.277  0.00  0.00     0.030 H 
ENDBRANCH  12  53
ENDBRANCH  10  12
ENDBRANCH   5   8
ENDBRANCH   1   5
BRANCH   3  57
ATOM     57  CA  ALA d   1      41.458 -24.124 -20.950  0.00  0.00     0.086 C 
ATOM     58  H   ALA d   1      42.364 -24.728 -21.006  0.00  0.00     0.086 H 
BRANCH  57  59
ATOM     59  N   ALA d   1      41.798 -22.816 -21.601  0.00  0.00    -0.347 N 
ATOM     60  C   GLY d   1      42.163 -22.668 -22.893  0.00  0.00     0.236 C 
ATOM     61  O   GLY d   1      42.326 -23.585 -23.670  0.00  0.00    -0.272 OA
ATOM     62  H   ALA d   1      41.750 -21.976 -21.025  0.00  0.00     0.163 HD
BRANCH  60  63
ATOM     63  CA  GLY d   1      42.305 -21.268 -23.458  0.00  0.00     0.069 C 
ATOM     64  H   GLY d   1      43.368 -21.025 -23.451  0.00  0.00     0.078 H 
ATOM     65  H   GLY d   1      41.853 -21.275 -24.450  0.00  0.00     0.078 H 
BRANCH  63  66
ATOM     66  N   GLY d   1      41.625 -20.239 -22.684  0.00  0.00    -0.352 N 
ATOM     67  C1  DAO d   1      40.183 -20.273 -22.628  0.00  0.00     0.217 C 
ATOM     68  O1  DAO d   1      39.539 -21.104 -23.300  0.00  0.00    -0.274 OA
ATOM     69  H   GLY d   1      42.152 -19.515 -22.196  0.00  0.00     0.162 HD
BRANCH  67  70
ATOM     70  C2  DAO d   1      39.615 -19.241 -21.631  0.00  0.00     0.009 C 
ATOM     71  H   DAO d   1      40.302 -18.395 -21.632  0.00  0.00     0.047 H 
ATOM     72  H   DAO d   1      39.511 -19.755 -20.675  0.00  0.00     0.047 H 
BRANCH  70  73
ATOM     73  C3  DAO d   1      38.234 -18.684 -21.982  0.00  0.00    -0.057 C 
ATOM     74  H   DAO d   1      37.478 -19.441 -21.770  0.00  0.00     0.033 H 
ATOM     75  H   DAO d   1      38.213 -18.420 -23.039  0.00  0.00     0.033 H 
BRANCH  73  76
ATOM     76  C4  DAO d   1      37.939 -17.416 -21.133  0.00  0.00    -0.065 C 
ATOM     77  H   DAO d   1      38.599 -16.617 -21.473  0.00  0.00     0.033 H 
ATOM     78  H   DAO d   1      38.103 -17.663 -20.084  0.00  0.00     0.033 H 
BRANCH  76  79
ATOM     79  C5  DAO d   1      36.519 -16.951 -21.290  0.00  0.00    -0.065 C 
ATOM     80  H   DAO d   1      35.852 -17.793 -21.107  0.00  0.00     0.033 H 
ATOM     81  H   DAO d   1      36.387 -16.563 -22.300  0.00  0.00     0.033 H 
BRANCH  79  82
ATOM     82  C6  DAO d   1      36.197 -15.846 -20.294  0.00  0.00    -0.065 C 
ATOM     83  H   DAO d   1      36.556 -16.122 -19.302  0.00  0.00     0.033 H 
ATOM     84  H   DAO d   1      35.119 -15.695 -20.240  0.00  0.00     0.033 H 
BRANCH  82  85
ATOM     85  C7  DAO d   1      36.876 -14.572 -20.756  0.00  0.00    -0.065 C 
ATOM     86  H   DAO d   1      36.663 -14.441 -21.817  0.00  0.00     0.033 H 
ATOM     87  H   DAO d   1      37.943 -14.666 -20.556  0.00  0.00     0.033 H 
BRANCH  85  88
ATOM     88  C8  DAO d   1      36.379 -13.377 -20.038  0.00  0.00    -0.065 C 
ATOM     89  H   DAO d   1      36.286 -13.628 -18.981  0.00  0.00     0.033 H 
ATOM     90  H   DAO d   1      35.422 -13.090 -20.474  0.00  0.00     0.033 H 
BRANCH  88  91
ATOM     91  C9  DAO d   1      37.333 -12.200 -20.166  0.00  0.00    -0.065 C 
ATOM     92  H   DAO d   1      38.344 -12.601 -20.100  0.00  0.00     0.033 H 
ATOM     93  H   DAO d   1      37.074 -11.493 -19.378  0.00  0.00     0.033 H 
BRANCH  91  94
ATOM     94  C10 DAO d   1      37.238 -11.453 -21.479  0.00  0.00    -0.065 C 
ATOM     95  H   DAO d   1      36.203 -11.335 -21.799  0.00  0.00     0.033 H 
ATOM     96  H   DAO d   1      37.730 -11.997 -22.285  0.00  0.00     0.033 H 
BRANCH  94  97
ATOM     97  C11 DAO d   1      37.904 -10.102 -21.226  0.00  0.00    -0.069 C 
ATOM     98  H   DAO d   1      38.980 -10.245 -21.122  0.00  0.00     0.032 H 
ATOM     99  H   DAO d   1      37.499  -9.666 -20.313  0.00  0.00     0.032 H 
BRANCH  97 100
ATOM    100  C12 DAO d   1      37.632  -9.167 -22.393  0.00  0.00    -0.077 C 
ATOM    101  H   DAO d   1      38.035  -9.602 -23.307  0.00  0.00     0.027 H 
ATOM    102  H   DAO d   1      36.557  -9.025 -22.500  0.00  0.00     0.027 H 
ATOM    103  H   DAO d   1      38.110  -8.206 -22.206  0.00  0.00     0.027 H 
ENDBRANCH  97 100
ENDBRANCH  94  97
ENDBRANCH  91  94
ENDBRANCH  88  91
ENDBRANCH  85  88
ENDBRANCH  82  85
ENDBRANCH  79  82
ENDBRANCH  76  79
ENDBRANCH  73  76
ENDBRANCH  70  73
ENDBRANCH  67  70
ENDBRANCH  63  66
ENDBRANCH  60  63
ENDBRANCH  57  59
BRANCH  57 104
ATOM    104  CB  ALA d   1      41.050 -23.931 -19.425  0.00  0.00    -0.049 C 
ATOM    105  H   ALA d   1      41.881 -23.482 -18.882  0.00  0.00     0.030 H 
ATOM    106  H   ALA d   1      40.179 -23.279 -19.363  0.00  0.00     0.030 H 
ATOM    107  H   ALA d   1      40.811 -24.901 -18.989  0.00  0.00     0.030 H 
ENDBRANCH  57 104
ENDBRANCH   3  57
TORSDOF 33
