REMARK  13 active torsions:
REMARK  status: ('A' for Active; 'I' for Inactive)
REMARK    1  A    between atoms: N3_2  and  C7_6 
REMARK       I    between atoms: C8_7  and  N3_2 
REMARK    2  A    between atoms: C7_6  and  C6_5 
REMARK    3  A    between atoms: C6_5  and  N2_33 
REMARK    4  A    between atoms: C9_35  and  C8_7 
REMARK    5  A    between atoms: N4_27  and  C10_8 
REMARK    6  A    between atoms: C13_9  and  O1_22 
REMARK    7  A    between atoms: C20_12  and  C22_14 
REMARK    8  A    between atoms: C23_36  and  C24_15 
REMARK    9  A    between atoms: O1_22  and  C16_21 
REMARK   10  A    between atoms: C1_28  and  N4_27 
REMARK   11  A    between atoms: C9_35  and  C23_36 
REMARK   12  A    between atoms: C23_36  and  O2_37 
REMARK   13  A    between atoms: C23_36  and  C25_38 
ROOT
ATOM      1  N1  03P d   1      14.815  -0.447  28.239  0.00  0.00    -0.222 NA
ATOM      2  C4  03P d   1      17.926   1.092  25.359  0.00  0.00    -0.018 A 
ATOM      3  C5  03P d   1      18.061  -0.218  25.753  0.00  0.00    -0.038 A 
ATOM      4  C1  03P d   1      15.125   0.681  27.583  0.00  0.00     0.159 A 
ATOM      5  C   03P d   1      15.610  -1.507  28.055  0.00  0.00     0.089 A 
ATOM      6  C3  03P d   1      16.237   0.648  26.772  0.00  0.00     0.110 A 
ATOM      7  C2  03P d   1      16.998  -0.495  26.644  0.00  0.00     0.090 A 
ATOM      8  N   03P d   1      16.703  -1.631  27.295  0.00  0.00    -0.240 NA
ATOM      9  N2  03P d   1      16.823   1.599  25.980  0.00  0.00    -0.350 N 
ATOM     10  H   03P d   1      18.582   1.629  24.674  0.00  0.00     0.111 H 
ATOM     11  H   03P d   1      18.840  -0.912  25.438  0.00  0.00     0.089 H 
ATOM     12  H   03P d   1      15.324  -2.403  28.607  0.00  0.00     0.146 H 
ENDROOT
BRANCH   4  13
ATOM     13  N4  03P d   1      14.379   1.860  27.680  0.00  0.00    -0.339 N 
ATOM     14  H   03P d   1      14.669   2.666  27.127  0.00  0.00     0.167 HD
BRANCH  13  15
ATOM     15  C10 03P d   1      13.258   1.985  28.497  0.00  0.00     0.035 A 
ATOM     16  C15 03P d   1      12.019   2.374  28.023  0.00  0.00    -0.054 A 
ATOM     17  C14 03P d   1      10.960   2.487  28.897  0.00  0.00    -0.046 A 
ATOM     18  H   03P d   1      11.881   2.590  26.964  0.00  0.00     0.087 H 
ATOM     19  C13 03P d   1      11.162   2.206  30.230  0.00  0.00     0.098 A 
ATOM     20  H   03P d   1       9.977   2.794  28.539  0.00  0.00     0.087 H 
ATOM     21  C12 03P d   1      12.399   1.832  30.711  0.00  0.00     0.070 A 
ATOM     22 CL   03P d   1      12.744   1.478  32.368  0.00  0.00    -0.081 Cl
ATOM     23  C11 03P d   1      13.445   1.722  29.834  0.00  0.00    -0.033 A 
ATOM     24  H   03P d   1      14.429   1.425  30.197  0.00  0.00     0.089 H 
BRANCH  19  25
ATOM     25  O1  03P d   1      10.127   2.340  31.103  0.00  0.00    -0.309 OA
BRANCH  25  26
ATOM     26  C16 03P d   1       9.206   1.345  31.198  0.00  0.00     0.076 A 
ATOM     27  C17 03P d   1       7.902   1.764  31.289  0.00  0.00    -0.050 A 
ATOM     28  C18 03P d   1       6.899   0.831  31.403  0.00  0.00    -0.080 A 
ATOM     29  H   03P d   1       7.664   2.828  31.271  0.00  0.00     0.087 H 
ATOM     30  C19 03P d   1       7.212  -0.508  31.432  0.00  0.00    -0.068 A 
ATOM     31  H   03P d   1       5.859   1.151  31.470  0.00  0.00     0.083 H 
ATOM     32  C20 03P d   1       8.526  -0.911  31.346  0.00  0.00     0.050 A 
ATOM     33  H   03P d   1       6.419  -1.251  31.523  0.00  0.00     0.084 H 
ATOM     34  C21 03P d   1       9.544   0.013  31.227  0.00  0.00    -0.036 A 
ATOM     35  H   03P d   1      10.585  -0.304  31.158  0.00  0.00     0.089 H 
BRANCH  32  36
ATOM     36  C22 03P d   1       8.823  -2.362  31.374  0.00  0.00     0.417 C 
ATOM     37  F2  03P d   1       9.776  -2.701  32.285  0.00  0.00    -0.166 F 
ATOM     38  F   03P d   1       7.738  -3.118  31.686  0.00  0.00    -0.166 F 
ATOM     39  F1  03P d   1       9.244  -2.782  30.152  0.00  0.00    -0.166 F 
ENDBRANCH  32  36
ENDBRANCH  25  26
ENDBRANCH  19  25
ENDBRANCH  13  15
ENDBRANCH   4  13
BRANCH   9  40
ATOM     40  C6  03P d   1      16.373   2.968  25.816  0.00  0.00     0.014 C 
ATOM     41  H   03P d   1      15.602   3.168  26.560  0.00  0.00     0.067 H 
ATOM     42  H   03P d   1      17.231   3.629  25.938  0.00  0.00     0.067 H 
BRANCH  40  43
ATOM     43  C7  03P d   1      15.784   3.200  24.447  0.00  0.00     0.010 C 
ATOM     44  H   03P d   1      16.504   2.873  23.696  0.00  0.00     0.066 H 
ATOM     45  H   03P d   1      14.854   2.637  24.366  0.00  0.00     0.066 H 
BRANCH  43  46
ATOM     46  N3  03P d   1      15.500   4.594  24.239  0.00  0.00    -0.359 N 
ATOM     47  C8  03P d   1      14.434   5.228  24.847  0.00  0.00     0.220 C 
ATOM     48  O   03P d   1      13.716   4.736  25.711  0.00  0.00    -0.274 OA
ATOM     49  H   03P d   1      16.107   5.133  23.621  0.00  0.00     0.162 HD
BRANCH  47  50
ATOM     50  C9  03P d   1      14.205   6.620  24.295  0.00  0.00     0.037 C 
ATOM     51  H   03P d   1      13.289   6.979  24.765  0.00  0.00     0.051 H 
ATOM     52  H   03P d   1      14.196   6.512  23.210  0.00  0.00     0.051 H 
BRANCH  50  53
ATOM     53  C23 03P d   1      15.272   7.674  24.601  0.00  0.00     0.059 C 
BRANCH  53  54
ATOM     54  C24 03P d   1      16.458   7.574  23.662  0.00  0.00    -0.048 C 
ATOM     55  H   03P d   1      16.915   6.589  23.759  0.00  0.00     0.031 H 
ATOM     56  H   03P d   1      16.121   7.720  22.636  0.00  0.00     0.031 H 
ATOM     57  H   03P d   1      17.188   8.342  23.918  0.00  0.00     0.031 H 
ENDBRANCH  53  54
BRANCH  53  58
ATOM     58  O2  03P d   1      15.759   7.569  25.931  0.00  0.00    -0.390 OA
ATOM     59  H   03P d   1      16.424   8.245  26.082  0.00  0.00     0.210 HD
ENDBRANCH  53  58
BRANCH  53  60
ATOM     60  C25 03P d   1      14.649   9.045  24.456  0.00  0.00    -0.048 C 
ATOM     61  H   03P d   1      15.387   9.806  24.709  0.00  0.00     0.031 H 
ATOM     62  H   03P d   1      14.319   9.186  23.427  0.00  0.00     0.031 H 
ATOM     63  H   03P d   1      13.794   9.127  25.128  0.00  0.00     0.031 H 
ENDBRANCH  53  60
ENDBRANCH  50  53
ENDBRANCH  47  50
ENDBRANCH  43  46
ENDBRANCH  40  43
ENDBRANCH   9  40
TORSDOF 13
