REMARK  3 active torsions:
REMARK  status: ('A' for Active; 'I' for Inactive)
REMARK    1  A    between atoms: C9_9  and  C10_10 
REMARK    2  A    between atoms: N13_13  and  C15_15 
REMARK    3  A    between atoms: C15_15  and  C16_16 
ROOT
ATOM      1  C10 3RC d   1     -15.499 -22.387  -7.259  0.00  0.00     0.110 A 
ATOM      2  N11 3RC d   1     -15.646 -21.170  -6.704  0.00  0.00    -0.130 NA
ATOM      3  N12 3RC d   1     -16.836 -20.740  -6.938  0.00  0.00    -0.066 NA
ATOM      4  N13 3RC d   1     -17.498 -21.603  -7.621  0.00  0.00    -0.256 N 
ATOM      5  C14 3RC d   1     -16.699 -22.671  -7.855  0.00  0.00     0.031 A 
ATOM      6  H6  3RC d   1     -16.958 -23.574  -8.406  0.00  0.00     0.118 H 
ENDROOT
BRANCH   1   7
ATOM      7  C9  3RC d   1     -14.266 -23.228  -7.205  0.00  0.00     0.025 A 
ATOM      8  C5  3RC d   1     -14.029 -24.571  -7.779  0.00  0.00     0.024 A 
ATOM      9  C4  3RC d   1     -14.788 -25.503  -8.538  0.00  0.00    -0.067 A 
ATOM     10  C6  3RC d   1     -12.687 -24.913  -7.417  0.00  0.00     0.138 A 
ATOM     11  C1  3RC d   1     -14.198 -26.727  -8.908  0.00  0.00    -0.065 A 
ATOM     12  H3  3RC d   1     -15.807 -25.275  -8.828  0.00  0.00     0.085 H 
ATOM     13  C2  3RC d   1     -12.872 -26.993  -8.513  0.00  0.00     0.004 A 
ATOM     14  H1  3RC d   1     -14.756 -27.453  -9.488  0.00  0.00     0.085 H 
ATOM     15  N3  3RC d   1     -12.174 -26.100  -7.797  0.00  0.00    -0.242 NA
ATOM     16  H2  3RC d   1     -12.410 -27.933  -8.792  0.00  0.00     0.114 H 
ATOM     17  N7  3RC d   1     -12.182 -23.868  -6.703  0.00  0.00    -0.349 N 
ATOM     18  C8  3RC d   1     -13.111 -22.879  -6.580  0.00  0.00    -0.008 A 
ATOM     19  H4  3RC d   1     -11.230 -23.831  -6.311  0.00  0.00     0.167 HD
ATOM     20  H5  3RC d   1     -12.950 -21.939  -6.054  0.00  0.00     0.112 H 
ENDBRANCH   1   7
BRANCH   4  21
ATOM     21  C15 3RC d   1     -18.890 -21.457  -8.072  0.00  0.00     0.042 C 
ATOM     22  H7  3RC d   1     -19.514 -21.110  -7.235  0.00  0.00     0.074 H 
ATOM     23  H8  3RC d   1     -19.265 -22.427  -8.430  0.00  0.00     0.074 H 
BRANCH  21  24
ATOM     24  C16 3RC d   1     -18.944 -20.453  -9.190  0.00  0.00    -0.038 A 
ATOM     25  C17 3RC d   1     -18.883 -20.888 -10.527  0.00  0.00    -0.075 A 
ATOM     26  C18 3RC d   1     -18.930 -19.951 -11.575  0.00  0.00    -0.082 A 
ATOM     27  H9  3RC d   1     -18.800 -21.946 -10.749  0.00  0.00     0.084 H 
ATOM     28  C19 3RC d   1     -19.040 -18.576 -11.285  0.00  0.00    -0.083 A 
ATOM     29  H10 3RC d   1     -18.882 -20.286 -12.605  0.00  0.00     0.083 H 
ATOM     30  C20 3RC d   1     -19.103 -18.135  -9.944  0.00  0.00    -0.082 A 
ATOM     31  H11 3RC d   1     -19.076 -17.855 -12.093  0.00  0.00     0.083 H 
ATOM     32  C21 3RC d   1     -19.055 -19.076  -8.896  0.00  0.00    -0.075 A 
ATOM     33  H12 3RC d   1     -19.188 -17.077  -9.722  0.00  0.00     0.083 H 
ATOM     34  H13 3RC d   1     -19.103 -18.743  -7.865  0.00  0.00     0.084 H 
ENDBRANCH  21  24
ENDBRANCH   4  21
TORSDOF 3
