REMARK  17 active torsions:
REMARK  status: ('A' for Active; 'I' for Inactive)
REMARK    1  A    between atoms: C2_3  and  C10_13 
REMARK    2  A    between atoms: C10_13  and  O3_6 
REMARK    3  A    between atoms: O3_6  and  C11_14 
REMARK    4  A    between atoms: C7_10  and  C5_8 
REMARK    5  A    between atoms: C8_11  and  C7_10 
REMARK    6  A    between atoms: C8_11  and  C9_12 
REMARK    7  A    between atoms: C11_14  and  C12_15 
REMARK    8  A    between atoms: C13_16  and  C14_17 
REMARK    9  A    between atoms: C14_17  and  C15_18 
REMARK   10  A    between atoms: C15_18  and  C16_19 
REMARK   11  A    between atoms: C16_19  and  C17_20 
REMARK   12  A    between atoms: C17_20  and  C18_21 
REMARK   13  A    between atoms: C18_21  and  C19_22 
REMARK   14  A    between atoms: C19_22  and  C20_23 
REMARK   15  A    between atoms: C20_23  and  C21_24 
REMARK   16  A    between atoms: C21_24  and  C22_25 
REMARK   17  A    between atoms: C22_25  and  C23_26 
ROOT
ATOM      1  C14 OYP d   1      -9.349 -36.930 -43.509  0.00  0.00    -0.009 C 
ATOM      2  H13 OYP d   1      -9.266 -36.515 -42.494  0.00  0.00     0.051 H 
ATOM      3  H14 OYP d   1      -9.053 -36.166 -44.243  0.00  0.00     0.051 H 
ENDROOT
BRANCH   1   4
ATOM      4  C13 OYP d   1     -10.761 -37.265 -43.748  0.00  0.00    -0.104 C 
ATOM      5  C12 OYP d   1     -11.918 -37.494 -43.821  0.00  0.00    -0.081 C 
BRANCH   5   6
ATOM      6  C11 OYP d   1     -13.345 -37.745 -44.110  0.00  0.00     0.074 C 
ATOM      7  H11 OYP d   1     -13.958 -37.389 -43.269  0.00  0.00     0.093 H 
ATOM      8  H12 OYP d   1     -13.634 -37.210 -45.026  0.00  0.00     0.093 H 
BRANCH   6   9
ATOM      9  O3  OYP d   1     -13.550 -39.144 -44.291  0.00  0.00    -0.375 OA
BRANCH   9  10
ATOM     10  C10 OYP d   1     -13.970 -39.573 -45.482  0.00  0.00     0.044 C 
ATOM     11  H9  OYP d   1     -14.851 -38.994 -45.796  0.00  0.00     0.081 H 
ATOM     12  H10 OYP d   1     -13.168 -39.451 -46.225  0.00  0.00     0.081 H 
BRANCH  10  13
ATOM     13  C2  OYP d   1     -14.328 -41.001 -45.365  0.00  0.00    -0.035 A 
ATOM     14  C1  OYP d   1     -13.479 -41.867 -46.045  0.00  0.00    -0.074 A 
ATOM     15  C6  OYP d   1     -13.724 -43.240 -46.091  0.00  0.00    -0.076 A 
ATOM     16  H1  OYP d   1     -12.608 -41.467 -46.550  0.00  0.00     0.084 H 
ATOM     17  C5  OYP d   1     -14.788 -43.747 -45.391  0.00  0.00    -0.058 A 
ATOM     18  H4  OYP d   1     -13.084 -43.895 -46.671  0.00  0.00     0.084 H 
ATOM     19  C4  OYP d   1     -15.631 -42.888 -44.706  0.00  0.00    -0.076 A 
ATOM     20  C3  OYP d   1     -15.423 -41.503 -44.681  0.00  0.00    -0.074 A 
ATOM     21  H3  OYP d   1     -16.479 -43.301 -44.172  0.00  0.00     0.084 H 
ATOM     22  H2  OYP d   1     -16.097 -40.845 -44.144  0.00  0.00     0.084 H 
BRANCH  17  23
ATOM     23  C7  OYP d   1     -14.995 -45.240 -45.387  0.00  0.00    -0.032 C 
ATOM     24  H5  OYP d   1     -15.293 -45.562 -44.378  0.00  0.00     0.040 H 
ATOM     25  H6  OYP d   1     -14.055 -45.737 -45.668  0.00  0.00     0.040 H 
BRANCH  23  26
ATOM     26  C8  OYP d   1     -16.062 -45.619 -46.360  0.00  0.00     0.019 C 
ATOM     27  H7  OYP d   1     -17.030 -45.289 -45.956  0.00  0.00     0.049 H 
ATOM     28  H8  OYP d   1     -16.061 -46.714 -46.463  0.00  0.00     0.049 H 
BRANCH  26  29
ATOM     29  C9  OYP d   1     -15.895 -45.024 -47.712  0.00  0.00     0.172 C 
ATOM     30  O1  OYP d   1     -14.687 -44.913 -48.274  0.00  0.00    -0.648 OA
ATOM     31  O2  OYP d   1     -16.891 -44.638 -48.296  0.00  0.00    -0.648 OA
ENDBRANCH  26  29
ENDBRANCH  23  26
ENDBRANCH  17  23
ENDBRANCH  10  13
ENDBRANCH   9  10
ENDBRANCH   6   9
ENDBRANCH   5   6
ENDBRANCH   1   4
BRANCH   1  32
ATOM     32  C15 OYP d   1      -8.373 -38.091 -43.622  0.00  0.00    -0.056 C 
ATOM     33  H15 OYP d   1      -8.554 -38.775 -42.779  0.00  0.00     0.034 H 
ATOM     34  H16 OYP d   1      -7.351 -37.689 -43.555  0.00  0.00     0.034 H 
BRANCH  32  35
ATOM     35  C16 OYP d   1      -8.483 -38.867 -44.879  0.00  0.00    -0.064 C 
ATOM     36  H17 OYP d   1      -8.183 -38.203 -45.703  0.00  0.00     0.033 H 
ATOM     37  H18 OYP d   1      -9.539 -39.149 -45.001  0.00  0.00     0.033 H 
BRANCH  35  38
ATOM     38  C17 OYP d   1      -7.638 -40.165 -44.996  0.00  0.00    -0.065 C 
ATOM     39  H19 OYP d   1      -8.048 -40.908 -44.296  0.00  0.00     0.033 H 
ATOM     40  H20 OYP d   1      -6.602 -39.929 -44.713  0.00  0.00     0.033 H 
BRANCH  38  41
ATOM     41  C18 OYP d   1      -7.625 -40.773 -46.379  0.00  0.00    -0.065 C 
ATOM     42  H21 OYP d   1      -7.334 -39.994 -47.099  0.00  0.00     0.033 H 
ATOM     43  H22 OYP d   1      -8.640 -41.127 -46.613  0.00  0.00     0.033 H 
BRANCH  41  44
ATOM     44  C19 OYP d   1      -6.650 -41.959 -46.524  0.00  0.00    -0.065 C 
ATOM     45  H23 OYP d   1      -6.751 -42.631 -45.659  0.00  0.00     0.033 H 
ATOM     46  H24 OYP d   1      -5.617 -41.586 -46.580  0.00  0.00     0.033 H 
BRANCH  44  47
ATOM     47  C20 OYP d   1      -7.001 -42.723 -47.823  0.00  0.00    -0.065 C 
ATOM     48  H25 OYP d   1      -6.904 -42.014 -48.658  0.00  0.00     0.033 H 
ATOM     49  H26 OYP d   1      -8.048 -43.050 -47.739  0.00  0.00     0.033 H 
BRANCH  47  50
ATOM     50  C21 OYP d   1      -6.166 -43.953 -48.170  0.00  0.00    -0.065 C 
ATOM     51  H27 OYP d   1      -5.144 -43.632 -48.420  0.00  0.00     0.033 H 
ATOM     52  H28 OYP d   1      -6.615 -44.456 -49.039  0.00  0.00     0.033 H 
BRANCH  50  53
ATOM     53  C22 OYP d   1      -6.104 -44.945 -46.997  0.00  0.00    -0.069 C 
ATOM     54  H29 OYP d   1      -7.129 -45.183 -46.676  0.00  0.00     0.032 H 
ATOM     55  H30 OYP d   1      -5.558 -44.479 -46.164  0.00  0.00     0.032 H 
BRANCH  53  56
ATOM     56  C23 OYP d   1      -5.386 -46.255 -47.397  0.00  0.00    -0.077 C 
ATOM     57  H31 OYP d   1      -5.361 -46.938 -46.535  0.00  0.00     0.027 H 
ATOM     58  H32 OYP d   1      -4.358 -46.027 -47.714  0.00  0.00     0.027 H 
ATOM     59  H33 OYP d   1      -5.928 -46.732 -48.227  0.00  0.00     0.027 H 
ENDBRANCH  53  56
ENDBRANCH  50  53
ENDBRANCH  47  50
ENDBRANCH  44  47
ENDBRANCH  41  44
ENDBRANCH  38  41
ENDBRANCH  35  38
ENDBRANCH  32  35
ENDBRANCH   1  32
TORSDOF 17
