REMARK  7 active torsions:
REMARK  status: ('A' for Active; 'I' for Inactive)
REMARK    1  A    between atoms: C1_1  and  O2_9 
REMARK    2  A    between atoms: C2_2  and  C7_10 
REMARK    3  A    between atoms: C4_5  and  C8_11 
REMARK    4  A    between atoms: C5_6  and  C6_7 
REMARK    5  A    between atoms: C6_7  and  O1_8 
REMARK    6  A    between atoms: C8_11  and  O3_12 
REMARK    7  A    between atoms: O3_12  and  P1_13 
ROOT
ATOM      1  C1  3RD d   1     -82.731  66.186  10.676  0.00  0.00     0.099 A 
ATOM      2  C2  3RD d   1     -83.861  65.326  10.813  0.00  0.00     0.066 A 
ATOM      3  N2  3RD d   1     -84.093  64.344   9.894  0.00  0.00    -0.233 NA
ATOM      4  C3  3RD d   1     -83.286  64.119   8.812  0.00  0.00     0.130 A 
ATOM      5  C4  3RD d   1     -82.112  64.927   8.575  0.00  0.00     0.023 A 
ATOM      6  C5  3RD d   1     -81.850  65.985   9.546  0.00  0.00     0.013 A 
ATOM      7  N3  3RD d   1     -83.747  63.104   8.080  0.00  0.00    -0.383 N 
ATOM      8  H   3RD d   1     -84.597  62.616   8.363  0.00  0.00     0.157 HD
ATOM      9  H   3RD d   1     -83.250  62.816   7.237  0.00  0.00     0.157 HD
ENDROOT
BRANCH   5  10
ATOM     10  C8  3RD d   1     -81.176  64.682   7.356  0.00  0.00     0.060 C 
ATOM     11  H   3RD d   1     -80.591  65.533   7.008  0.00  0.00     0.083 H 
ATOM     12  H   3RD d   1     -81.659  64.483   6.399  0.00  0.00     0.083 H 
BRANCH  10  13
ATOM     13  O3  3RD d   1     -80.442  63.588   7.954  0.00  0.00    -0.278 OA
BRANCH  13  14
ATOM     14  P1  3RD d   1     -79.227  62.634   7.478  0.00  0.00     0.422 P 
ATOM     15  O4  3RD d   1     -78.655  63.052   6.178  0.00  0.00    -0.617 OA
ATOM     16  O5  3RD d   1     -79.935  61.190   7.299  0.00  0.00    -0.617 OA
ATOM     17  O6  3RD d   1     -78.137  62.532   8.659  0.00  0.00    -0.617 OA
ENDBRANCH  13  14
ENDBRANCH  10  13
ENDBRANCH   5  10
BRANCH   6  18
ATOM     18  C6  3RD d   1     -80.612  66.933   9.402  0.00  0.00     0.044 C 
ATOM     19  H   3RD d   1     -80.908  67.741   8.717  0.00  0.00     0.081 H 
ATOM     20  H   3RD d   1     -79.808  66.339   8.942  0.00  0.00     0.081 H 
BRANCH  18  21
ATOM     21  O1  3RD d   1     -80.125  67.477  10.412  0.00  0.00    -0.396 OA
ATOM     22  H   3RD d   1     -80.785  68.020  10.827  0.00  0.00     0.209 HD
ENDBRANCH  18  21
ENDBRANCH   6  18
BRANCH   1  23
ATOM     23  O2  3RD d   1     -82.506  67.173  11.604  0.00  0.00    -0.358 OA
ATOM     24  H   3RD d   1     -81.651  67.032  12.018  0.00  0.00     0.217 HD
ENDBRANCH   1  23
BRANCH   2  25
ATOM     25  C7  3RD d   1     -84.839  65.475  11.989  0.00  0.00    -0.033 C 
ATOM     26  H   3RD d   1     -84.302  65.335  12.927  0.00  0.00     0.035 H 
ATOM     27  H   3RD d   1     -85.282  66.471  11.968  0.00  0.00     0.035 H 
ATOM     28  H   3RD d   1     -85.625  64.724  11.904  0.00  0.00     0.035 H 
ENDBRANCH   2  25
TORSDOF 7
