REMARK WARNING: 32 MAX_TORS EXCEEDED!!!
REMARK  34 active torsions:
REMARK  status: ('A' for Active; 'I' for Inactive)
REMARK    1  A    between atoms: N_1  and  CA_2 
REMARK    2  A    between atoms: CA_2  and  C_3 
REMARK    3  A    between atoms: CA_2  and  CB_5 
REMARK       I    between atoms: C_3  and  N_9 
REMARK    4  A    between atoms: CB_5  and  CG_6 
REMARK    5  A    between atoms: N_9  and  CA_10 
REMARK    6  A    between atoms: CA_10  and  C_11 
REMARK    7  A    between atoms: CA_10  and  CB_13 
REMARK       I    between atoms: C_11  and  N_15 
REMARK    8  A    between atoms: CB_13  and  OG_14 
REMARK    9  A    between atoms: N_15  and  CA_16 
REMARK   10  A    between atoms: CA_16  and  C_17 
REMARK   11  A    between atoms: CA_16  and  CB_19 
REMARK       I    between atoms: C_17  and  N_29 
REMARK   12  A    between atoms: CB_19  and  CG_20 
REMARK   13  A    between atoms: N_29  and  CA_30 
REMARK   14  A    between atoms: CA_30  and  C_31 
REMARK   15  A    between atoms: CA_30  and  CB_33 
REMARK       I    between atoms: C_31  and  N_38 
REMARK   16  A    between atoms: CB_33  and  CG_34 
REMARK   17  A    between atoms: CG_34  and  CD_35 
REMARK   18  A    between atoms: CD_35  and  CE_36 
REMARK   19  A    between atoms: CE_36  and  NZ_37 
REMARK   20  A    between atoms: N_38  and  CA_39 
REMARK   21  A    between atoms: CA_39  and  C_40 
REMARK   22  A    between atoms: CA_39  and  CB_42 
REMARK       I    between atoms: C_40  and  N_46 
REMARK   23  A    between atoms: CB_42  and  CG_43 
REMARK   24  A    between atoms: N_46  and  CA_47 
REMARK   25  A    between atoms: CA_47  and  C_48 
REMARK       I    between atoms: C_48  and  N_50 
REMARK   26  A    between atoms: N_50  and  CA_51 
REMARK   27  A    between atoms: CA_51  and  C_52 
REMARK   28  A    between atoms: CA_51  and  CB_54 
REMARK       I    between atoms: C_52  and  N_56 
REMARK   29  A    between atoms: CB_54  and  SG_55 
REMARK   30  A    between atoms: N_56  and  CA_57 
REMARK   31  A    between atoms: CA_57  and  C_58 
REMARK   32  A    between atoms: CA_57  and  CB_60 
REMARK   33  A    between atoms: CB_60  and  CG_61 
REMARK   34  A    between atoms: CZ_66  and  OH_67 
ROOT
ATOM      1  CA  LYS d   1      13.235 -16.794 -14.117  0.00  0.00     0.089 C 
ATOM      2  H23 LYS d   1      12.948 -16.017 -13.393  0.00  0.00     0.087 H 
ENDROOT
BRANCH   1   3
ATOM      3  N   LYS d   1      12.599 -18.044 -13.692  0.00  0.00    -0.346 N 
ATOM      4  C   TRP d   1      11.460 -18.058 -12.998  0.00  0.00     0.241 C 
ATOM      5  O   TRP d   1      10.831 -17.032 -12.717  0.00  0.00    -0.271 OA
ATOM      6  H22 LYS d   1      13.032 -18.913 -13.930  0.00  0.00     0.163 HD
BRANCH   4   7
ATOM      7  CA  TRP d   1      10.936 -19.433 -12.571  0.00  0.00     0.093 C 
ATOM      8  H13 TRP d   1       9.845 -19.429 -12.708  0.00  0.00     0.088 H 
BRANCH   7   9
ATOM      9  N   TRP d   1      11.479 -20.509 -13.398  0.00  0.00    -0.346 N 
ATOM     10  C   SER d   1      11.314 -20.498 -14.716  0.00  0.00     0.243 C 
ATOM     11  O   SER d   1      10.705 -19.605 -15.298  0.00  0.00    -0.271 OA
ATOM     12  H12 TRP d   1      11.979 -21.260 -12.968  0.00  0.00     0.163 HD
BRANCH  10  13
ATOM     13  CA  SER d   1      11.901 -21.663 -15.504  0.00  0.00     0.109 C 
ATOM     14  H8  SER d   1      12.164 -21.273 -16.498  0.00  0.00     0.090 H 
BRANCH  13  15
ATOM     15  N   SER d   1      13.129 -22.237 -14.945  0.00  0.00    -0.344 N 
ATOM     16  C   ASP d   1      14.228 -21.509 -14.753  0.00  0.00     0.249 C 
ATOM     17  O   ASP d   1      14.242 -20.284 -14.842  0.00  0.00    -0.271 OA
ATOM     18  H7  SER d   1      13.142 -23.206 -14.700  0.00  0.00     0.163 HD
BRANCH  16  19
ATOM     19  CA  ASP d   1      15.504 -22.276 -14.397  0.00  0.00     0.185 C 
ATOM     20  H4  ASP d   1      15.652 -23.061 -15.153  0.00  0.00     0.100 H 
BRANCH  19  21
ATOM     21  N   ASP d   1      16.669 -21.405 -14.415  0.00  0.00    -0.066 N 
ATOM     22  H1  ASP d   1      17.491 -21.938 -14.177  0.00  0.00     0.275 HD
ATOM     23  H2  ASP d   1      16.544 -20.663 -13.744  0.00  0.00     0.275 HD
ATOM     24  H3  ASP d   1      16.779 -21.011 -15.336  0.00  0.00     0.275 HD
ENDBRANCH  19  21
BRANCH  19  25
ATOM     25  CB  ASP d   1      15.364 -22.944 -13.035  0.00  0.00     0.050 C 
ATOM     26  H5  ASP d   1      15.035 -22.191 -12.304  0.00  0.00     0.052 H 
ATOM     27  H6  ASP d   1      16.344 -23.344 -12.735  0.00  0.00     0.052 H 
BRANCH  25  28
ATOM     28  CG  ASP d   1      14.364 -24.073 -13.051  0.00  0.00     0.175 C 
ATOM     29  OD1 ASP d   1      14.552 -25.016 -13.847  0.00  0.00    -0.648 OA
ATOM     30  OD2 ASP d   1      13.391 -24.012 -12.275  0.00  0.00    -0.648 OA
ENDBRANCH  25  28
ENDBRANCH  19  25
ENDBRANCH  16  19
ENDBRANCH  13  15
BRANCH  13  31
ATOM     31  CB  SER d   1      10.832 -22.738 -15.699  0.00  0.00     0.044 C 
ATOM     32  H9  SER d   1       9.866 -22.253 -15.903  0.00  0.00     0.077 H 
ATOM     33  H10 SER d   1      10.754 -23.340 -14.781  0.00  0.00     0.077 H 
BRANCH  31  34
ATOM     34  OG  SER d   1      11.163 -23.585 -16.782  0.00  0.00    -0.398 OA
ATOM     35  H11 SER d   1      10.487 -24.244 -16.885  0.00  0.00     0.209 HD
ENDBRANCH  31  34
ENDBRANCH  13  31
ENDBRANCH  10  13
ENDBRANCH   7   9
BRANCH   7  36
ATOM     36  CB  TRP d   1      11.220 -19.686 -11.086  0.00  0.00    -0.012 C 
ATOM     37  H14 TRP d   1      10.882 -20.703 -10.837  0.00  0.00     0.044 H 
ATOM     38  H15 TRP d   1      10.649 -18.955 -10.495  0.00  0.00     0.044 H 
BRANCH  36  39
ATOM     39  CG  TRP d   1      12.665 -19.566 -10.715  0.00  0.00    -0.028 A 
ATOM     40  CD1 TRP d   1      13.602 -20.554 -10.744  0.00  0.00    -0.015 A 
ATOM     41  NE1 TRP d   1      14.816 -20.064 -10.336  0.00  0.00    -0.365 N 
ATOM     42  H16 TRP d   1      13.414 -21.583 -11.047  0.00  0.00     0.112 H 
ATOM     43  CE2 TRP d   1      14.681 -18.737 -10.024  0.00  0.00     0.042 A 
ATOM     44  H17 TRP d   1      15.689 -20.607 -10.274  0.00  0.00     0.165 HD
ATOM     45  CD2 TRP d   1      13.337 -18.387 -10.249  0.00  0.00    -0.002 A 
ATOM     46  CZ2 TRP d   1      15.624 -17.819  -9.558  0.00  0.00    -0.056 A 
ATOM     47  CE3 TRP d   1      12.933 -17.069 -10.004  0.00  0.00    -0.070 A 
ATOM     48  CZ3 TRP d   1      13.869 -16.160  -9.545  0.00  0.00    -0.082 A 
ATOM     49  H18 TRP d   1      11.905 -16.767 -10.171  0.00  0.00     0.084 H 
ATOM     50  CH2 TRP d   1      15.199 -16.538  -9.330  0.00  0.00    -0.081 A 
ATOM     51  H20 TRP d   1      13.567 -15.138  -9.348  0.00  0.00     0.083 H 
ATOM     52  H21 TRP d   1      15.909 -15.800  -8.975  0.00  0.00     0.083 H 
ATOM     53  H19 TRP d   1      16.654 -18.110  -9.383  0.00  0.00     0.086 H 
ENDBRANCH  36  39
ENDBRANCH   7  36
ENDBRANCH   4   7
ENDBRANCH   1   3
BRANCH   1  54
ATOM     54  C   LYS d   1      12.783 -16.333 -15.494  0.00  0.00     0.241 C 
ATOM     55  O   LYS d   1      13.265 -15.320 -16.007  0.00  0.00    -0.271 OA
ATOM     56  N   ASP d   1      11.871 -17.084 -16.103  0.00  0.00    -0.346 N 
ATOM     57  H35 ASP d   1      11.614 -17.965 -15.706  0.00  0.00     0.163 HD
BRANCH  56  58
ATOM     58  CA  ASP d   1      11.242 -16.646 -17.336  0.00  0.00     0.098 C 
ATOM     59  H36 ASP d   1      12.018 -16.497 -18.101  0.00  0.00     0.088 H 
BRANCH  58  60
ATOM     60  C   ASP d   1      10.520 -15.327 -17.095  0.00  0.00     0.241 C 
ATOM     61  O   ASP d   1       9.820 -15.171 -16.091  0.00  0.00    -0.271 OA
ATOM     62  N   GLY d   1      10.698 -14.374 -18.007  0.00  0.00    -0.351 N 
ATOM     63  H39 GLY d   1      11.309 -14.542 -18.781  0.00  0.00     0.163 HD
BRANCH  62  64
ATOM     64  CA  GLY d   1      10.022 -13.097 -17.898  0.00  0.00     0.069 C 
ATOM     65  H40 GLY d   1       8.978 -13.273 -17.600  0.00  0.00     0.078 H 
ATOM     66  H41 GLY d   1      10.044 -12.599 -18.878  0.00  0.00     0.078 H 
BRANCH  64  67
ATOM     67  C   GLY d   1      10.678 -12.190 -16.873  0.00  0.00     0.236 C 
ATOM     68  O   GLY d   1      10.097 -11.187 -16.476  0.00  0.00    -0.272 OA
ATOM     69  N   CYS d   1      11.875 -12.571 -16.434  0.00  0.00    -0.346 N 
ATOM     70  H42 CYS d   1      12.240 -13.448 -16.747  0.00  0.00     0.163 HD
BRANCH  69  71
ATOM     71  CA  CYS d   1      12.681 -11.772 -15.518  0.00  0.00     0.097 C 
ATOM     72  H43 CYS d   1      12.091 -10.909 -15.175  0.00  0.00     0.088 H 
BRANCH  71  73
ATOM     73  C   CYS d   1      13.930 -11.292 -16.222  0.00  0.00     0.242 C 
ATOM     74  O   CYS d   1      14.306 -11.827 -17.264  0.00  0.00    -0.271 OA
ATOM     75  N   TYR d   1      14.596 -10.302 -15.636  0.00  0.00    -0.344 N 
ATOM     76  H47 TYR d   1      14.233  -9.892 -14.799  0.00  0.00     0.163 HD
BRANCH  75  77
ATOM     77  CA  TYR d   1      15.849  -9.804 -16.195  0.00  0.00     0.100 C 
ATOM     78  H48 TYR d   1      16.137 -10.463 -17.027  0.00  0.00     0.090 H 
BRANCH  77  79
ATOM     79  C   TYR d   1      16.950  -9.846 -15.150  0.00  0.00     0.197 C 
ATOM     80  O   TYR d   1      16.687 -10.031 -13.957  0.00  0.00    -0.646 OA
ATOM     81  OXT TYR d   1      18.128  -9.695 -15.484  0.00  0.00    -0.646 OA
ENDBRANCH  77  79
BRANCH  77  82
ATOM     82  CB  TYR d   1      15.696  -8.377 -16.746  0.00  0.00    -0.013 C 
ATOM     83  H49 TYR d   1      16.695  -7.993 -17.001  0.00  0.00     0.043 H 
ATOM     84  H50 TYR d   1      15.250  -7.747 -15.962  0.00  0.00     0.043 H 
BRANCH  82  85
ATOM     85  CG  TYR d   1      14.823  -8.297 -17.979  0.00  0.00    -0.056 A 
ATOM     86  CD1 TYR d   1      15.386  -8.208 -19.238  0.00  0.00    -0.074 A 
ATOM     87  CE1 TYR d   1      14.595  -8.149 -20.368  0.00  0.00    -0.051 A 
ATOM     88  H51 TYR d   1      16.465  -8.184 -19.340  0.00  0.00     0.084 H 
ATOM     89  CZ  TYR d   1      13.220  -8.185 -20.243  0.00  0.00     0.065 A 
ATOM     90  H53 TYR d   1      15.051  -8.075 -21.349  0.00  0.00     0.087 H 
ATOM     91  CE2 TYR d   1      12.634  -8.280 -19.003  0.00  0.00    -0.051 A 
ATOM     92  CD2 TYR d   1      13.442  -8.322 -17.877  0.00  0.00    -0.074 A 
ATOM     93  H54 TYR d   1      11.555  -8.322 -18.907  0.00  0.00     0.087 H 
ATOM     94  H52 TYR d   1      12.983  -8.376 -16.896  0.00  0.00     0.084 H 
BRANCH  89  95
ATOM     95  OH  TYR d   1      12.436  -8.123 -21.365  0.00  0.00    -0.361 OA
ATOM     96  H55 TYR d   1      12.990  -8.061 -22.134  0.00  0.00     0.217 HD
ENDBRANCH  89  95
ENDBRANCH  82  85
ENDBRANCH  77  82
ENDBRANCH  75  77
ENDBRANCH  71  73
BRANCH  71  97
ATOM     97  CB  CYS d   1      13.120 -12.606 -14.315  0.00  0.00     0.001 C 
ATOM     98  H44 CYS d   1      13.884 -12.039 -13.764  0.00  0.00     0.052 H 
ATOM     99  H45 CYS d   1      13.557 -13.544 -14.687  0.00  0.00     0.052 H 
BRANCH  97 100
ATOM    100  SG  CYS d   1      11.804 -13.013 -13.185  0.00  0.00    -0.180 SA
ATOM    101  H46 CYS d   1      11.398 -12.164 -12.824  0.00  0.00     0.101 HD
ENDBRANCH  97 100
ENDBRANCH  71  97
ENDBRANCH  69  71
ENDBRANCH  64  67
ENDBRANCH  62  64
ENDBRANCH  58  60
BRANCH  58 102
ATOM    102  CB  ASP d   1      10.248 -17.702 -17.834  0.00  0.00     0.043 C 
ATOM    103  H37 ASP d   1       9.651 -17.268 -18.649  0.00  0.00     0.052 H 
ATOM    104  H38 ASP d   1       9.585 -17.982 -17.003  0.00  0.00     0.052 H 
BRANCH 102 105
ATOM    105  CG  ASP d   1      10.935 -18.946 -18.346  0.00  0.00     0.175 C 
ATOM    106  OD1 ASP d   1      12.185 -18.988 -18.312  0.00  0.00    -0.648 OA
ATOM    107  OD2 ASP d   1      10.227 -19.881 -18.785  0.00  0.00    -0.648 OA
ENDBRANCH 102 105
ENDBRANCH  58 102
ENDBRANCH  56  58
ENDBRANCH   1  54
BRANCH   1 108
ATOM    108  CB  LYS d   1      14.759 -16.921 -14.099  0.00  0.00    -0.038 C 
ATOM    109  H24 LYS d   1      15.187 -16.018 -14.558  0.00  0.00     0.036 H 
ATOM    110  H25 LYS d   1      15.040 -17.803 -14.694  0.00  0.00     0.036 H 
BRANCH 108 111
ATOM    111  CG  LYS d   1      15.344 -17.074 -12.718  0.00  0.00    -0.061 C 
ATOM    112  H26 LYS d   1      15.023 -18.039 -12.299  0.00  0.00     0.033 H 
ATOM    113  H27 LYS d   1      14.975 -16.257 -12.081  0.00  0.00     0.033 H 
BRANCH 111 114
ATOM    114  CD  LYS d   1      16.867 -17.029 -12.749  0.00  0.00    -0.043 C 
ATOM    115  H28 LYS d   1      17.249 -17.118 -11.721  0.00  0.00     0.035 H 
ATOM    116  H29 LYS d   1      17.188 -16.068 -13.178  0.00  0.00     0.035 H 
BRANCH 114 117
ATOM    117  CE  LYS d   1      17.438 -18.160 -13.588  0.00  0.00     0.080 C 
ATOM    118  H30 LYS d   1      17.309 -17.916 -14.653  0.00  0.00     0.075 H 
ATOM    119  H31 LYS d   1      16.893 -19.087 -13.356  0.00  0.00     0.075 H 
BRANCH 117 120
ATOM    120  NZ  LYS d   1      18.887 -18.368 -13.312  0.00  0.00    -0.079 N 
ATOM    121  H32 LYS d   1      19.233 -19.123 -13.883  0.00  0.00     0.274 HD
ATOM    122  H33 LYS d   1      19.014 -18.598 -12.339  0.00  0.00     0.274 HD
ATOM    123  H34 LYS d   1      19.395 -17.524 -13.527  0.00  0.00     0.274 HD
ENDBRANCH 117 120
ENDBRANCH 114 117
ENDBRANCH 111 114
ENDBRANCH 108 111
ENDBRANCH   1 108
TORSDOF 34
