REMARK  13 active torsions:
REMARK  status: ('A' for Active; 'I' for Inactive)
REMARK    1  A    between atoms: N1_2  and  C8_18 
REMARK    2  A    between atoms: N2_5  and  C6_15 
REMARK    3  A    between atoms: C15_25  and  C3_7 
REMARK    4  A    between atoms: O3_9  and  C12_22 
REMARK    5  A    between atoms: C18_28  and  O3_9 
REMARK       I    between atoms: N5_14  and  C19_29 
REMARK    6  A    between atoms: C20_30  and  N5_14 
REMARK    7  A    between atoms: C6_15  and  C7_17 
REMARK    8  A    between atoms: C21_31  and  N6_16 
REMARK    9  A    between atoms: C7_17  and  C11_21 
REMARK   10  A    between atoms: C8_18  and  C9_19 
REMARK   11  A    between atoms: C9_19  and  C10_20 
REMARK   12  A    between atoms: C19_29  and  C18_28 
REMARK   13  A    between atoms: C20_30  and  C21_31 
ROOT
ATOM      1  C1  XAC d   1      48.999  24.127  30.369  0.00  0.00     0.284 A 
ATOM      2  N1  XAC d   1      47.420  21.950  31.232  0.00  0.00    -0.283 N 
ATOM      3  O1  XAC d   1      49.720  25.080  30.049  0.00  0.00    -0.265 OA
ATOM      4  C2  XAC d   1      47.253  22.480  29.971  0.00  0.00     0.333 A 
ATOM      5  N2  XAC d   1      48.022  23.568  29.592  0.00  0.00    -0.264 N 
ATOM      6  O2  XAC d   1      46.413  21.992  29.200  0.00  0.00    -0.246 OA
ATOM      7  C3  XAC d   1      49.710  23.027  33.745  0.00  0.00     0.140 A 
ATOM      8  N3  XAC d   1      48.744  22.145  33.419  0.00  0.00    -0.324 N 
ATOM      9  C4  XAC d   1      48.393  22.487  32.111  0.00  0.00     0.148 A 
ATOM     10  N4  XAC d   1      49.971  23.867  32.721  0.00  0.00    -0.221 NA
ATOM     11  C5  XAC d   1      49.132  23.520  31.679  0.00  0.00     0.171 A 
ATOM     12  H   XAC d   1      48.358  21.398  33.996  0.00  0.00     0.169 HD
ENDROOT
BRANCH   7  13
ATOM     13  C15 XAC d   1      50.368  23.077  35.056  0.00  0.00     0.010 A 
ATOM     14  C14 XAC d   1      49.974  22.199  36.092  0.00  0.00    -0.067 A 
ATOM     15  C13 XAC d   1      50.572  22.276  37.365  0.00  0.00    -0.050 A 
ATOM     16  H   XAC d   1      49.200  21.455  35.904  0.00  0.00     0.085 H 
ATOM     17  C12 XAC d   1      51.572  23.242  37.635  0.00  0.00     0.069 A 
ATOM     18  H   XAC d   1      50.262  21.586  38.150  0.00  0.00     0.087 H 
ATOM     19  C17 XAC d   1      51.984  24.096  36.593  0.00  0.00    -0.050 A 
ATOM     20  C16 XAC d   1      51.391  24.017  35.316  0.00  0.00    -0.067 A 
ATOM     21  H   XAC d   1      52.771  24.827  36.776  0.00  0.00     0.087 H 
ATOM     22  H   XAC d   1      51.724  24.686  34.523  0.00  0.00     0.085 H 
BRANCH  17  23
ATOM     23  O3  XAC d   1      52.177  23.419  38.861  0.00  0.00    -0.342 OA
BRANCH  23  24
ATOM     24  C18 XAC d   1      51.640  22.721  39.981  0.00  0.00     0.099 C 
ATOM     25  H   XAC d   1      51.850  21.656  39.885  0.00  0.00     0.089 H 
ATOM     26  H   XAC d   1      50.561  22.868  40.022  0.00  0.00     0.089 H 
BRANCH  24  27
ATOM     27  C19 XAC d   1      52.284  23.261  41.262  0.00  0.00     0.241 C 
ATOM     28  O4  XAC d   1      53.469  23.025  41.513  0.00  0.00    -0.271 OA
ATOM     29  N5  XAC d   1      51.509  23.992  42.074  0.00  0.00    -0.358 N 
ATOM     30  H   XAC d   1      50.545  24.150  41.781  0.00  0.00     0.162 HD
BRANCH  29  31
ATOM     31  C20 XAC d   1      51.925  24.580  43.339  0.00  0.00     0.017 C 
ATOM     32  H   XAC d   1      52.764  25.254  43.164  0.00  0.00     0.066 H 
ATOM     33  H   XAC d   1      52.224  23.786  44.023  0.00  0.00     0.066 H 
BRANCH  31  34
ATOM     34  C21 XAC d   1      50.760  25.370  43.957  0.00  0.00     0.094 C 
ATOM     35  H   XAC d   1      50.466  26.163  43.269  0.00  0.00     0.077 H 
ATOM     36  H   XAC d   1      49.927  24.690  44.136  0.00  0.00     0.077 H 
BRANCH  34  37
ATOM     37  N6  XAC d   1      51.161  25.965  45.217  0.00  0.00    -0.078 N 
ATOM     38  H   XAC d   1      50.377  26.484  45.611  0.00  0.00     0.274 HD
ATOM     39  H   XAC d   1      51.443  25.229  45.864  0.00  0.00     0.274 HD
ATOM     40  H   XAC d   1      51.944  26.599  45.058  0.00  0.00     0.274 HD
ENDBRANCH  34  37
ENDBRANCH  31  34
ENDBRANCH  29  31
ENDBRANCH  24  27
ENDBRANCH  23  24
ENDBRANCH  17  23
ENDBRANCH   7  13
BRANCH   2  41
ATOM     41  C8  XAC d   1      46.580  20.848  31.722  0.00  0.00     0.005 C 
ATOM     42  H   XAC d   1      45.660  20.833  31.137  0.00  0.00     0.065 H 
ATOM     43  H   XAC d   1      46.384  21.012  32.782  0.00  0.00     0.065 H 
BRANCH  41  44
ATOM     44  C9  XAC d   1      47.275  19.484  31.565  0.00  0.00    -0.053 C 
ATOM     45  H   XAC d   1      48.252  19.546  32.043  0.00  0.00     0.034 H 
ATOM     46  H   XAC d   1      47.348  19.263  30.500  0.00  0.00     0.034 H 
BRANCH  44  47
ATOM     47  C10 XAC d   1      46.490  18.350  32.233  0.00  0.00    -0.075 C 
ATOM     48  H   XAC d   1      46.390  18.558  33.298  0.00  0.00     0.027 H 
ATOM     49  H   XAC d   1      45.501  18.279  31.781  0.00  0.00     0.027 H 
ATOM     50  H   XAC d   1      47.023  17.410  32.093  0.00  0.00     0.027 H 
ENDBRANCH  44  47
ENDBRANCH  41  44
ENDBRANCH   2  41
BRANCH   5  51
ATOM     51  C6  XAC d   1      47.740  24.215  28.290  0.00  0.00     0.007 C 
ATOM     52  H   XAC d   1      47.347  23.462  27.607  0.00  0.00     0.065 H 
ATOM     53  H   XAC d   1      48.665  24.650  27.912  0.00  0.00     0.065 H 
BRANCH  51  54
ATOM     54  C7  XAC d   1      46.694  25.338  28.436  0.00  0.00    -0.053 C 
ATOM     55  H   XAC d   1      47.143  26.137  29.027  0.00  0.00     0.034 H 
ATOM     56  H   XAC d   1      45.809  24.909  28.906  0.00  0.00     0.034 H 
BRANCH  54  57
ATOM     57  C11 XAC d   1      46.268  25.934  27.091  0.00  0.00    -0.075 C 
ATOM     58  H   XAC d   1      47.139  26.354  26.589  0.00  0.00     0.027 H 
ATOM     59  H   XAC d   1      45.832  25.151  26.470  0.00  0.00     0.027 H 
ATOM     60  H   XAC d   1      45.531  26.719  27.260  0.00  0.00     0.027 H 
ENDBRANCH  54  57
ENDBRANCH  51  54
ENDBRANCH   5  51
TORSDOF 13
