REMARK  26 active torsions:
REMARK  status: ('A' for Active; 'I' for Inactive)
REMARK    1  A    between atoms: C22_24  and  S_1 
REMARK    2  A    between atoms: S_1  and  N5'_31 
REMARK    3  A    between atoms: C6_7  and  N6_8 
REMARK    4  A    between atoms: C1'_12  and  N9_11 
REMARK    5  A    between atoms: C14_13  and  O14_14 
REMARK    6  A    between atoms: C21_23  and  C19_19 
REMARK    7  A    between atoms: C2'_21  and  O2'_22 
REMARK    8  A    between atoms: C21_23  and  C22_24 
REMARK    9  A    between atoms: S44_52  and  C21_23 
REMARK   10  A    between atoms: C3'_26  and  O3'_27 
REMARK   11  A    between atoms: C5'_30  and  C4'_28 
REMARK   12  A    between atoms: N5'_31  and  C5'_30 
REMARK   13  A    between atoms: O27_35  and  P24_33 
REMARK   14  A    between atoms: C28_36  and  O27_35 
REMARK   15  A    between atoms: C29_37  and  C28_36 
REMARK   16  A    between atoms: C29_37  and  C30_38 
REMARK   17  A    between atoms: C29_37  and  C31_39 
REMARK   18  A    between atoms: C32_40  and  C29_37 
REMARK   19  A    between atoms: C32_40  and  O33_41 
REMARK   20  A    between atoms: C34_42  and  C32_40 
REMARK       I    between atoms: N36_44  and  C34_42 
REMARK   21  A    between atoms: C37_45  and  N36_44 
REMARK   22  A    between atoms: C38_46  and  C37_45 
REMARK   23  A    between atoms: C39_47  and  C38_46 
REMARK       I    between atoms: N41_49  and  C39_47 
REMARK   24  A    between atoms: C42_50  and  N41_49 
REMARK   25  A    between atoms: C43_51  and  C42_50 
REMARK   26  A    between atoms: C43_51  and  S44_52 
ROOT
ATOM      1  C21 SVS d   1     -99.732-103.461  95.814  0.00  0.00     0.033 C 
ATOM      2  H   SVS d   1     -99.021-102.731  96.200  0.00  0.00     0.065 H 
ENDROOT
BRANCH   1   3
ATOM      3  C19 SVS d   1    -101.136-102.930  96.121  0.00  0.00    -0.010 A 
ATOM      4  C14 SVS d   1    -102.330-103.655  95.950  0.00  0.00     0.073 A 
ATOM      5  C15 SVS d   1    -103.578-103.064  96.199  0.00  0.00    -0.050 A 
ATOM      6  C16 SVS d   1    -103.656-101.736  96.596  0.00  0.00    -0.080 A 
ATOM      7  H   SVS d   1    -104.490-103.650  96.080  0.00  0.00     0.087 H 
ATOM      8  C17 SVS d   1    -102.473-101.017  96.780  0.00  0.00    -0.082 A 
ATOM      9  H   SVS d   1    -104.624-101.263  96.761  0.00  0.00     0.083 H 
ATOM     10  C18 SVS d   1    -101.223-101.600  96.540  0.00  0.00    -0.073 A 
ATOM     11  H   SVS d   1    -102.524 -99.982  97.117  0.00  0.00     0.083 H 
ATOM     12  H   SVS d   1    -100.314-101.014  96.680  0.00  0.00     0.084 H 
BRANCH   4  13
ATOM     13  O14 SVS d   1    -102.352-104.955  95.548  0.00  0.00    -0.360 OA
ATOM     14  H   SVS d   1    -101.453-105.260  95.406  0.00  0.00     0.217 HD
ENDBRANCH   4  13
ENDBRANCH   1   3
BRANCH   1  15
ATOM     15  C22 SVS d   1     -99.418-104.743  96.571  0.00  0.00     0.061 C 
ATOM     16  H   SVS d   1     -99.759-104.600  97.596  0.00  0.00     0.061 H 
ATOM     17  H   SVS d   1     -99.912-105.556  96.040  0.00  0.00     0.061 H 
BRANCH  15  18
ATOM     18  S   SVS d   1     -97.796-105.122  96.644  0.00  0.00     0.228 S 
ATOM     19  O1P SVS d   1     -97.852-106.536  96.910  0.00  0.00    -0.206 OA
ATOM     20  O2P SVS d   1     -97.034-104.797  95.463  0.00  0.00    -0.206 OA
BRANCH  18  21
ATOM     21  N5' SVS d   1     -97.069-104.361  97.837  0.00  0.00    -0.317 N 
ATOM     22  H   SVS d   1     -96.313-103.693  97.684  0.00  0.00     0.172 HD
BRANCH  21  23
ATOM     23  C5' SVS d   1     -97.568-104.693  99.165  0.00  0.00     0.029 C 
ATOM     24  H   SVS d   1     -98.630-104.452  99.202  0.00  0.00     0.069 H 
ATOM     25  H   SVS d   1     -97.387-105.753  99.344  0.00  0.00     0.069 H 
BRANCH  23  26
ATOM     26  C4' SVS d   1     -96.860-103.898 100.249  0.00  0.00     0.084 C 
ATOM     27  C3' SVS d   1     -97.469-104.036 101.617  0.00  0.00     0.091 C 
ATOM     28  C2' SVS d   1     -96.905-102.805 102.292  0.00  0.00     0.105 C 
ATOM     29  H   SVS d   1     -98.556-104.076 101.679  0.00  0.00     0.091 H 
ATOM     30  C1' SVS d   1     -96.879-101.760 101.192  0.00  0.00     0.139 C 
ATOM     31  H   SVS d   1     -97.461-102.519 103.185  0.00  0.00     0.093 H 
ATOM     32  O4' SVS d   1     -96.918-102.502  99.979  0.00  0.00    -0.354 OA
ATOM     33  H   SVS d   1     -96.002-101.136 101.367  0.00  0.00     0.122 H 
ATOM     34  H   SVS d   1     -95.849-104.304 100.242  0.00  0.00     0.090 H 
BRANCH  27  35
ATOM     35  O3' SVS d   1     -97.046-105.275 102.193  0.00  0.00    -0.390 OA
ATOM     36  H   SVS d   1     -97.321-105.309 103.112  0.00  0.00     0.210 HD
ENDBRANCH  27  35
BRANCH  28  37
ATOM     37  O2' SVS d   1     -95.540-103.071 102.570  0.00  0.00    -0.388 OA
ATOM     38  H   SVS d   1     -95.479-103.731 103.264  0.00  0.00     0.210 HD
ENDBRANCH  28  37
BRANCH  30  39
ATOM     39  N9  SVS d   1     -98.048-100.830 101.137  0.00  0.00    -0.294 N 
ATOM     40  C4  SVS d   1     -98.267 -99.696 101.839  0.00  0.00     0.167 A 
ATOM     41  N3  SVS d   1     -97.585 -99.039 102.802  0.00  0.00    -0.222 NA
ATOM     42  C5  SVS d   1     -99.483 -99.173 101.444  0.00  0.00     0.149 A 
ATOM     43  C2  SVS d   1     -98.037 -97.908 103.358  0.00  0.00     0.091 A 
ATOM     44  N1  SVS d   1     -99.204 -97.381 102.989  0.00  0.00    -0.222 NA
ATOM     45  H   SVS d   1     -97.442 -97.411 104.124  0.00  0.00     0.146 H 
ATOM     46  C6  SVS d   1     -99.950 -97.997 102.038  0.00  0.00     0.155 A 
ATOM     47  N7  SVS d   1     -99.977-100.002 100.496  0.00  0.00    -0.236 NA
ATOM     48  C8  SVS d   1     -99.097-101.017 100.319  0.00  0.00     0.071 A 
ATOM     49  H   SVS d   1     -99.220-101.849  99.626  0.00  0.00     0.144 H 
BRANCH  46  50
ATOM     50  N6  SVS d   1    -101.145 -97.459 101.664  0.00  0.00    -0.382 N 
ATOM     51  H   SVS d   1    -101.707 -97.915 100.945  0.00  0.00     0.157 HD
ATOM     52  H   SVS d   1    -101.478 -96.600 102.103  0.00  0.00     0.157 HD
ENDBRANCH  46  50
ENDBRANCH  30  39
ENDBRANCH  23  26
ENDBRANCH  21  23
ENDBRANCH  18  21
ENDBRANCH  15  18
ENDBRANCH   1  15
BRANCH   1  53
ATOM     53  S44 PNS d   1     -99.380-103.536  93.974  0.00  0.00    -0.157 SA
BRANCH  53  54
ATOM     54  C43 PNS d   1     -98.028-102.312  93.791  0.00  0.00    -0.008 C 
ATOM     55  H   SVS d   1     -97.598-102.124  94.775  0.00  0.00     0.051 H 
ATOM     56  H   SVS d   1     -97.288-102.717  93.101  0.00  0.00     0.051 H 
BRANCH  54  57
ATOM     57  C42 PNS d   1     -98.544-100.982  93.224  0.00  0.00     0.003 C 
ATOM     58  H   SVS d   1     -99.071-101.150  92.285  0.00  0.00     0.065 H 
ATOM     59  H   SVS d   1     -99.243-100.520  93.921  0.00  0.00     0.065 H 
BRANCH  57  60
ATOM     60  N41 PNS d   1     -97.393-100.111  93.009  0.00  0.00    -0.360 N 
ATOM     61  C39 PNS d   1     -97.098 -99.384  91.917  0.00  0.00     0.219 C 
ATOM     62  O40 PNS d   1     -97.776 -99.391  90.914  0.00  0.00    -0.274 OA
ATOM     63  H   SVS d   1     -96.731-100.046  93.782  0.00  0.00     0.162 HD
BRANCH  61  64
ATOM     64  C38 PNS d   1     -95.857 -98.527  91.898  0.00  0.00     0.024 C 
ATOM     65  H   SVS d   1     -95.622 -98.205  92.912  0.00  0.00     0.049 H 
ATOM     66  H   SVS d   1     -95.023 -99.104  91.498  0.00  0.00     0.049 H 
BRANCH  64  67
ATOM     67  C37 PNS d   1     -96.098 -97.302  91.017  0.00  0.00     0.003 C 
ATOM     68  H   SVS d   1     -96.653 -97.563  90.116  0.00  0.00     0.064 H 
ATOM     69  H   SVS d   1     -96.704 -96.556  91.530  0.00  0.00     0.064 H 
BRANCH  67  70
ATOM     70  N36 PNS d   1     -94.774 -96.783  90.695  0.00  0.00    -0.358 N 
ATOM     71  C34 PNS d   1     -94.507 -96.166  89.563  0.00  0.00     0.247 C 
ATOM     72  O35 PNS d   1     -95.363 -96.012  88.727  0.00  0.00    -0.271 OA
ATOM     73  H   SVS d   1     -94.023 -96.903  91.375  0.00  0.00     0.162 HD
BRANCH  71  74
ATOM     74  C32 PNS d   1     -93.123 -95.687  89.275  0.00  0.00     0.120 C 
ATOM     75  H   SVS d   1     -92.989 -95.615  88.196  0.00  0.00     0.099 H 
BRANCH  74  76
ATOM     76  C29 PNS d   1     -92.882 -94.267  89.774  0.00  0.00     0.009 C 
BRANCH  76  77
ATOM     77  C28 PNS d   1     -91.540 -93.798  89.250  0.00  0.00     0.037 C 
ATOM     78  H   PNS d   1     -91.330 -92.798  89.629  0.00  0.00     0.076 H 
ATOM     79  H   PNS d   1     -90.759 -94.481  89.584  0.00  0.00     0.076 H 
BRANCH  77  80
ATOM     80  O27 PNS d   1     -91.574 -93.771  87.824  0.00  0.00    -0.314 OA
BRANCH  80  81
ATOM     81  P24 PNS d   1     -90.221 -94.199  87.067  0.00  0.00     0.393 P 
ATOM     82  O23 PNS d   1     -89.772 -95.461  87.765  0.00  0.00    -0.143 OA
ATOM     83  O26 PNS d   1     -90.449 -94.297  85.583  0.00  0.00    -0.143 OA
ENDBRANCH  80  81
ENDBRANCH  77  80
ENDBRANCH  76  77
BRANCH  76  84
ATOM     84  C30 PNS d   1     -93.919 -93.320  89.204  0.00  0.00    -0.065 C 
ATOM     85  H   PNS d   1     -93.703 -92.304  89.536  0.00  0.00     0.028 H 
ATOM     86  H   PNS d   1     -93.888 -93.362  88.115  0.00  0.00     0.028 H 
ATOM     87  H   PNS d   1     -94.909 -93.615  89.552  0.00  0.00     0.028 H 
ENDBRANCH  76  84
BRANCH  76  88
ATOM     88  C31 PNS d   1     -92.880 -94.242  91.291  0.00  0.00    -0.065 C 
ATOM     89  H   PNS d   1     -92.097 -94.903  91.663  0.00  0.00     0.028 H 
ATOM     90  H   PNS d   1     -92.694 -93.225  91.636  0.00  0.00     0.028 H 
ATOM     91  H   PNS d   1     -93.848 -94.581  91.660  0.00  0.00     0.028 H 
ENDBRANCH  76  88
ENDBRANCH  74  76
BRANCH  74  92
ATOM     92  O33 PNS d   1     -92.171 -96.647  89.764  0.00  0.00    -0.385 OA
ATOM     93  H   SVS d   1     -91.289 -96.393  89.483  0.00  0.00     0.210 HD
ENDBRANCH  74  92
ENDBRANCH  71  74
ENDBRANCH  67  70
ENDBRANCH  64  67
ENDBRANCH  61  64
ENDBRANCH  57  60
ENDBRANCH  54  57
ENDBRANCH  53  54
ENDBRANCH   1  53
TORSDOF 26
