REMARK  2 active torsions:
REMARK  status: ('A' for Active; 'I' for Inactive)
REMARK    1  A    between atoms: C1_1  and  C4_9 
REMARK    2  A    between atoms: C2_4  and  C6_11 
ROOT
ATOM      1  C1  M97 d   1      -7.755  12.169  -3.638  0.00  0.00     0.067 C 
ATOM      2  O1  M97 d   1      -7.846  13.086  -5.870  0.00  0.00    -0.272 OA
ATOM      3  N2  M97 d   1      -5.866  12.395  -4.958  0.00  0.00    -0.296 N 
ATOM      4  O2  M97 d   1      -4.314  11.490  -3.564  0.00  0.00    -0.272 OA
ATOM      5  C6  M97 d   1      -6.635  11.283  -3.062  0.00  0.00     0.067 C 
ATOM      6  C7  M97 d   1      -7.184  12.603  -4.954  0.00  0.00     0.234 C 
ATOM      7  C8  M97 d   1      -5.463  11.724  -3.872  0.00  0.00     0.234 C 
ATOM      8  H1  M97 d   1      -7.888  13.045  -2.986  0.00  0.00     0.064 H 
ATOM      9  H3  M97 d   1      -5.253  12.703  -5.685  0.00  0.00     0.171 HD
ATOM     10  H6  M97 d   1      -6.848  10.223  -3.267  0.00  0.00     0.064 H 
ENDROOT
BRANCH   5  11
ATOM     11  C2  M97 d   1      -6.479  11.431  -1.580  0.00  0.00    -0.015 A 
ATOM     12  C3  M97 d   1      -6.890  10.414  -0.733  0.00  0.00    -0.007 A 
ATOM     13  N3  M97 d   1      -6.660  10.846   0.520  0.00  0.00    -0.331 N 
ATOM     14  H4  M97 d   1      -7.315   9.455  -1.024  0.00  0.00     0.113 H 
ATOM     15  C18 M97 d   1      -6.936  10.109   1.756  0.00  0.00    -0.018 A 
ATOM     16  C19 M97 d   1      -6.159  12.079   0.459  0.00  0.00     0.055 A 
ATOM     17  C17 M97 d   1      -6.532  10.854   3.029  0.00  0.00    -0.083 A 
ATOM     18  H14 M97 d   1      -7.389   9.119   1.767  0.00  0.00     0.111 H 
ATOM     19  C16 M97 d   1      -5.972  12.285   2.954  0.00  0.00    -0.022 A 
ATOM     20  H13 M97 d   1      -6.642  10.367   3.997  0.00  0.00     0.079 H 
ATOM     21  C15 M97 d   1      -5.796  12.834   1.551  0.00  0.00    -0.027 A 
ATOM     22  H11 M97 d   1      -6.661  12.949   3.496  0.00  0.00     0.046 H 
ATOM     23  H12 M97 d   1      -4.990  12.293   3.449  0.00  0.00     0.046 H 
ATOM     24  C23 M97 d   1      -5.268  14.105   1.310  0.00  0.00    -0.074 A 
ATOM     25  C22 M97 d   1      -5.138  14.558  -0.013  0.00  0.00    -0.082 A 
ATOM     26  H17 M97 d   1      -4.962  14.736   2.137  0.00  0.00     0.084 H 
ATOM     27  C21 M97 d   1      -5.508  13.772  -1.112  0.00  0.00    -0.070 A 
ATOM     28  H16 M97 d   1      -4.738  15.550  -0.190  0.00  0.00     0.083 H 
ATOM     29  C20 M97 d   1      -6.021  12.515  -0.844  0.00  0.00     0.000 A 
ATOM     30  H15 M97 d   1      -5.397  14.133  -2.128  0.00  0.00     0.084 H 
ENDBRANCH   5  11
BRANCH   1  31
ATOM     31  C4  M97 d   1      -9.087  11.524  -3.776  0.00  0.00    -0.016 A 
ATOM     32  C5  M97 d   1      -9.569  10.959  -4.937  0.00  0.00    -0.015 A 
ATOM     33  N1  M97 d   1     -10.815  10.517  -4.618  0.00  0.00    -0.365 N 
ATOM     34  H5  M97 d   1      -9.063  10.883  -5.899  0.00  0.00     0.112 H 
ATOM     35  C9  M97 d   1     -11.095  10.798  -3.318  0.00  0.00     0.042 A 
ATOM     36  H2  M97 d   1     -11.454  10.038  -5.268  0.00  0.00     0.165 HD
ATOM     37  C10 M97 d   1     -10.006  11.458  -2.762  0.00  0.00    -0.001 A 
ATOM     38  C14 M97 d   1     -12.218  10.574  -2.523  0.00  0.00    -0.056 A 
ATOM     39  C11 M97 d   1      -9.976  11.893  -1.439  0.00  0.00    -0.070 A 
ATOM     40  C12 M97 d   1     -11.099  11.659  -0.647  0.00  0.00    -0.082 A 
ATOM     41  H7  M97 d   1      -9.105  12.399  -1.037  0.00  0.00     0.084 H 
ATOM     42  C13 M97 d   1     -12.205  11.004  -1.194  0.00  0.00    -0.081 A 
ATOM     43  H8  M97 d   1     -11.114  11.983   0.387  0.00  0.00     0.083 H 
ATOM     44  H9  M97 d   1     -13.075  10.825  -0.572  0.00  0.00     0.083 H 
ATOM     45  H10 M97 d   1     -13.089  10.073  -2.930  0.00  0.00     0.086 H 
ENDBRANCH   1  31
TORSDOF 2
