REMARK  2 active torsions:
REMARK  status: ('A' for Active; 'I' for Inactive)
REMARK    1  A    between atoms: C4_4  and  N5_5 
REMARK    2  A    between atoms: C9_9  and  C10_10 
ROOT
ATOM      1  C1  3RH d   1      65.883   2.249   9.010  0.00  0.00     0.094 A 
ATOM      2  C2  3RH d   1      66.861   1.757   9.875  0.00  0.00    -0.009 A 
ATOM      3  N3  3RH d   1      65.368   1.454   8.062  0.00  0.00    -0.062 NA
ATOM      4  C4  3RH d   1      65.788   0.188   7.959  0.00  0.00     0.720 A 
ATOM      5  N6  3RH d   1      66.737  -0.308   8.791  0.00  0.00    -0.075 NA
ATOM      6  C7  3RH d   1      67.289   0.447   9.738  0.00  0.00     0.029 A 
ATOM      7  C8  3RH d   1      67.436   2.662  10.927  0.00  0.00    -0.026 C 
ATOM      8  C9  3RH d   1      66.400   3.713  11.420  0.00  0.00     0.002 C 
ATOM      9  C11 3RH d   1      65.627   4.347  10.313  0.00  0.00    -0.037 A 
ATOM     10  C12 3RH d   1      65.372   3.635   9.140  0.00  0.00     0.001 A 
ATOM     11  C18 3RH d   1      65.120   5.637  10.410  0.00  0.00    -0.075 A 
ATOM     12  C19 3RH d   1      64.381   6.225   9.373  0.00  0.00    -0.082 A 
ATOM     13  C20 3RH d   1      64.130   5.497   8.211  0.00  0.00    -0.082 A 
ATOM     14  C21 3RH d   1      64.624   4.189   8.106  0.00  0.00    -0.070 A 
ATOM     15  H3  3RH d   1      68.057   0.045  10.388  0.00  0.00     0.116 H 
ATOM     16  H4  3RH d   1      68.304   3.190  10.506  0.00  0.00     0.041 H 
ATOM     17  H5  3RH d   1      67.758   2.052  11.784  0.00  0.00     0.041 H 
ATOM     18  H6  3RH d   1      65.655   3.178  12.027  0.00  0.00     0.055 H 
ATOM     19  H12 3RH d   1      65.301   6.206  11.315  0.00  0.00     0.084 H 
ATOM     20  H13 3RH d   1      64.008   7.238   9.474  0.00  0.00     0.083 H 
ATOM     21  H14 3RH d   1      63.561   5.936   7.400  0.00  0.00     0.083 H 
ATOM     22  H15 3RH d   1      64.422   3.606   7.215  0.00  0.00     0.084 H 
ENDROOT
BRANCH   8  23
ATOM     23  C10 3RH d   1      67.112   4.627  12.334  0.00  0.00    -0.049 A 
ATOM     24  C13 3RH d   1      68.052   5.572  11.855  0.00  0.00    -0.076 A 
ATOM     25  C14 3RH d   1      68.698   6.366  12.792  0.00  0.00    -0.082 A 
ATOM     26  H7  3RH d   1      68.259   5.671  10.796  0.00  0.00     0.084 H 
ATOM     27  C15 3RH d   1      68.437   6.230  14.172  0.00  0.00    -0.083 A 
ATOM     28  H8  3RH d   1      69.417   7.105  12.457  0.00  0.00     0.083 H 
ATOM     29  C16 3RH d   1      67.507   5.297  14.681  0.00  0.00    -0.082 A 
ATOM     30  H9  3RH d   1      68.971   6.866  14.868  0.00  0.00     0.083 H 
ATOM     31  C17 3RH d   1      66.865   4.495  13.723  0.00  0.00    -0.076 A 
ATOM     32  H10 3RH d   1      67.302   5.206  15.742  0.00  0.00     0.083 H 
ATOM     33  H11 3RH d   1      66.155   3.748  14.059  0.00  0.00     0.084 H 
ENDBRANCH   8  23
BRANCH   4  34
ATOM     34  N5  3RH d   1      65.192  -0.555   6.996  0.00  0.00    -0.231 N 
ATOM     35  H1  3RH d   1      64.476  -0.132   6.388  0.00  0.00     0.174 HD
ATOM     36  H2  3RH d   1      65.455  -1.543   6.871  0.00  0.00     0.174 HD
ENDBRANCH   4  34
TORSDOF 2
