REMARK  2 active torsions:
REMARK  status: ('A' for Active; 'I' for Inactive)
REMARK    1  A    between atoms: C4_4  and  N5_5 
REMARK    2  A    between atoms: C9_9  and  C10_10 
ROOT
ATOM      1  C1  3RH d   1     -29.474  16.467 -23.590  0.00  0.00     0.094 A 
ATOM      2  C2  3RH d   1     -28.328  16.621 -24.364  0.00  0.00    -0.009 A 
ATOM      3  N3  3RH d   1     -30.377  15.518 -23.934  0.00  0.00    -0.062 NA
ATOM      4  C4  3RH d   1     -30.157  14.738 -25.024  0.00  0.00     0.720 A 
ATOM      5  N6  3RH d   1     -29.042  14.888 -25.784  0.00  0.00    -0.075 NA
ATOM      6  C7  3RH d   1     -28.122  15.810 -25.478  0.00  0.00     0.029 A 
ATOM      7  C8  3RH d   1     -27.312  17.675 -23.988  0.00  0.00    -0.026 C 
ATOM      8  C9  3RH d   1     -27.207  17.769 -22.463  0.00  0.00     0.002 C 
ATOM      9  C11 3RH d   1     -28.558  17.997 -21.846  0.00  0.00    -0.037 A 
ATOM     10  C12 3RH d   1     -29.668  17.349 -22.394  0.00  0.00     0.001 A 
ATOM     11  C18 3RH d   1     -28.735  18.816 -20.723  0.00  0.00    -0.075 A 
ATOM     12  C19 3RH d   1     -30.007  18.999 -20.166  0.00  0.00    -0.082 A 
ATOM     13  C20 3RH d   1     -31.115  18.359 -20.725  0.00  0.00    -0.082 A 
ATOM     14  C21 3RH d   1     -30.939  17.533 -21.837  0.00  0.00    -0.070 A 
ATOM     15  H   3RH d   1     -27.227  15.925 -26.090  0.00  0.00     0.116 H 
ATOM     16  H   3RH d   1     -27.626  18.639 -24.389  0.00  0.00     0.041 H 
ATOM     17  H   3RH d   1     -26.340  17.404 -24.401  0.00  0.00     0.041 H 
ATOM     18  H   3RH d   1     -26.886  16.831 -22.011  0.00  0.00     0.055 H 
ATOM     19  H   3RH d   1     -27.874  19.316 -20.279  0.00  0.00     0.084 H 
ATOM     20  H   3RH d   1     -30.132  19.642 -19.295  0.00  0.00     0.083 H 
ATOM     21  H   3RH d   1     -32.107  18.503 -20.298  0.00  0.00     0.083 H 
ATOM     22  H   3RH d   1     -31.799  17.027 -22.275  0.00  0.00     0.084 H 
ENDROOT
BRANCH   8  23
ATOM     23  C10 3RH d   1     -26.156  18.770 -22.140  0.00  0.00    -0.049 A 
ATOM     24  C13 3RH d   1     -26.306  20.127 -22.455  0.00  0.00    -0.076 A 
ATOM     25  C14 3RH d   1     -25.293  21.037 -22.149  0.00  0.00    -0.082 A 
ATOM     26  H   3RH d   1     -27.218  20.474 -22.941  0.00  0.00     0.084 H 
ATOM     27  C15 3RH d   1     -24.124  20.584 -21.537  0.00  0.00    -0.083 A 
ATOM     28  H   3RH d   1     -25.414  22.094 -22.386  0.00  0.00     0.083 H 
ATOM     29  C16 3RH d   1     -23.968  19.229 -21.230  0.00  0.00    -0.082 A 
ATOM     30  H   3RH d   1     -23.329  21.290 -21.297  0.00  0.00     0.083 H 
ATOM     31  C17 3RH d   1     -24.981  18.322 -21.533  0.00  0.00    -0.076 A 
ATOM     32  H   3RH d   1     -23.052  18.881 -20.753  0.00  0.00     0.083 H 
ATOM     33  H   3RH d   1     -24.857  17.265 -21.297  0.00  0.00     0.084 H 
ENDBRANCH   8  23
BRANCH   4  34
ATOM     34  N5  3RH d   1     -31.066  13.793 -25.361  0.00  0.00    -0.231 N 
ATOM     35  H   3RH d   1     -31.908  13.671 -24.798  0.00  0.00     0.174 HD
ATOM     36  H   3RH d   1     -30.909  13.203 -26.178  0.00  0.00     0.174 HD
ENDBRANCH   4  34
TORSDOF 2
