REMARK  7 active torsions:
REMARK  status: ('A' for Active; 'I' for Inactive)
REMARK    1  A    between atoms: CAF_6  and  OAA_1 
REMARK    2  A    between atoms: CAJ_10  and  OAB_2 
REMARK    3  A    between atoms: CAK_11  and  OAC_3 
REMARK    4  A    between atoms: CAL_12  and  OAD_4 
REMARK    5  A    between atoms: CAM_13  and  OAE_5 
REMARK    6  A    between atoms: CAG_7  and  CAF_6 
REMARK    7  A    between atoms: NAN_14  and  CAG_7 
ROOT
ATOM      1  CAH 3RI d   1       9.628  -9.783  39.217  0.00  0.00     0.109 C 
ATOM      2  CAI 3RI d   1      10.770  -8.708  41.058  0.00  0.00     0.109 C 
ATOM      3  CAJ 3RI d   1      10.597 -10.856  38.768  0.00  0.00     0.086 C 
ATOM      4  CAK 3RI d   1      12.130  -9.391  41.323  0.00  0.00     0.086 C 
ATOM      5  CAL 3RI d   1      11.357 -11.483  39.944  0.00  0.00     0.089 C 
ATOM      6  CAM 3RI d   1      12.521 -10.633  40.487  0.00  0.00     0.089 C 
ATOM      7  NAN 3RI d   1      10.356  -8.568  39.645  0.00  0.00    -0.064 N 
ATOM      8  H10 3RI d   1       9.033 -10.164  40.060  0.00  0.00     0.080 H 
ATOM      9  H11 3RI d   1       8.959  -9.528  38.382  0.00  0.00     0.080 H 
ATOM     10  H12 3RI d   1      10.815  -7.699  41.493  0.00  0.00     0.080 H 
ATOM     11  H13 3RI d   1       9.997  -9.296  41.574  0.00  0.00     0.080 H 
ATOM     12  H14 3RI d   1      11.284 -10.493  37.989  0.00  0.00     0.089 H 
ATOM     13  H15 3RI d   1      12.104  -9.728  42.370  0.00  0.00     0.089 H 
ATOM     14  H16 3RI d   1      10.642 -11.635  40.766  0.00  0.00     0.091 H 
ATOM     15  H17 3RI d   1      13.110 -10.283  39.627  0.00  0.00     0.091 H 
ATOM     16  H18 3RI d   1      11.173  -8.449  39.067  0.00  0.00     0.280 HD
ENDROOT
BRANCH   7  17
ATOM     17  CAG 3RI d   1       9.474  -7.371  39.508  0.00  0.00     0.103 C 
ATOM     18  H8  3RI d   1       8.486  -7.608  39.930  0.00  0.00     0.079 H 
ATOM     19  H9  3RI d   1       9.921  -6.536  40.067  0.00  0.00     0.079 H 
BRANCH  17  20
ATOM     20  CAF 3RI d   1       9.295  -6.943  38.030  0.00  0.00     0.039 C 
ATOM     21  H6  3RI d   1       9.581  -7.787  37.385  0.00  0.00     0.076 H 
ATOM     22  H7  3RI d   1       8.236  -6.696  37.864  0.00  0.00     0.076 H 
BRANCH  20  23
ATOM     23  OAA 3RI d   1      10.093  -5.800  37.667  0.00  0.00    -0.399 OA
ATOM     24  H1  3RI d   1      11.012  -6.003  37.797  0.00  0.00     0.209 HD
ENDBRANCH  20  23
ENDBRANCH  17  20
ENDBRANCH   7  17
BRANCH   3  25
ATOM     25  OAB 3RI d   1       9.728 -11.871  38.329  0.00  0.00    -0.391 OA
ATOM     26  H2  3RI d   1      10.238 -12.610  38.018  0.00  0.00     0.210 HD
ENDBRANCH   3  25
BRANCH   4  27
ATOM     27  OAC 3RI d   1      13.152  -8.406  41.200  0.00  0.00    -0.391 OA
ATOM     28  H3  3RI d   1      13.134  -8.040  40.323  0.00  0.00     0.210 HD
ENDBRANCH   4  27
BRANCH   5  29
ATOM     29  OAD 3RI d   1      11.858 -12.750  39.523  0.00  0.00    -0.390 OA
ATOM     30  H4  3RI d   1      12.333 -13.155  40.239  0.00  0.00     0.210 HD
ENDBRANCH   5  29
BRANCH   6  31
ATOM     31  OAE 3RI d   1      13.333 -11.483  41.305  0.00  0.00    -0.390 OA
ATOM     32  H5  3RI d   1      13.584 -12.253  40.808  0.00  0.00     0.210 HD
ENDBRANCH   6  31
TORSDOF 7
