REMARK  4 active torsions:
REMARK  status: ('A' for Active; 'I' for Inactive)
REMARK    1  A    between atoms: CAH_8  and  OAA_1 
REMARK    2  A    between atoms: CAI_9  and  OAB_2 
REMARK    3  A    between atoms: CAJ_10  and  OAC_3 
REMARK    4  A    between atoms: CAK_11  and  OAD_4 
ROOT
ATOM      1  CAE 3RK d   1     -12.668  -5.888  39.361  0.00  0.00     0.107 C 
ATOM      2  CAF 3RK d   1     -12.062  -6.376  41.689  0.00  0.00     0.107 C 
ATOM      3  NAG 3RK d   1     -12.401  -5.383  40.696  0.00  0.00    -0.070 N 
ATOM      4  CAH 3RK d   1     -14.176  -6.074  39.120  0.00  0.00     0.086 C 
ATOM      5  CAI 3RK d   1     -13.248  -7.245  42.105  0.00  0.00     0.086 C 
ATOM      6  CAJ 3RK d   1     -14.924  -6.984  40.131  0.00  0.00     0.089 C 
ATOM      7  CAK 3RK d   1     -14.013  -7.933  40.955  0.00  0.00     0.089 C 
ATOM      8  H5  3RK d   1     -12.164  -6.858  39.238  0.00  0.00     0.079 H 
ATOM      9  H6  3RK d   1     -12.274  -5.174  38.623  0.00  0.00     0.079 H 
ATOM     10  H7  3RK d   1     -11.677  -5.860  42.581  0.00  0.00     0.079 H 
ATOM     11  H8  3RK d   1     -11.279  -7.029  41.276  0.00  0.00     0.079 H 
ATOM     12  H9  3RK d   1     -13.225  -4.897  41.013  0.00  0.00     0.277 HD
ATOM     13  H10 3RK d   1     -11.632  -4.734  40.633  0.00  0.00     0.277 HD
ATOM     14  H11 3RK d   1     -14.232  -6.627  38.171  0.00  0.00     0.089 H 
ATOM     15  H12 3RK d   1     -13.947  -6.671  42.731  0.00  0.00     0.089 H 
ATOM     16  H13 3RK d   1     -15.472  -6.340  40.835  0.00  0.00     0.091 H 
ATOM     17  H14 3RK d   1     -13.253  -8.313  40.256  0.00  0.00     0.091 H 
ENDROOT
BRANCH   4  18
ATOM     18  OAA 3RK d   1     -14.855  -4.825  38.860  0.00  0.00    -0.391 OA
ATOM     19  H1  3RK d   1     -15.779  -4.992  38.718  0.00  0.00     0.210 HD
ENDBRANCH   4  18
BRANCH   6  20
ATOM     20  OAC 3RK d   1     -15.863  -7.790  39.377  0.00  0.00    -0.390 OA
ATOM     21  H3  3RK d   1     -16.338  -8.360  39.971  0.00  0.00     0.210 HD
ENDBRANCH   6  20
BRANCH   7  22
ATOM     22  OAD 3RK d   1     -14.742  -9.083  41.458  0.00  0.00    -0.390 OA
ATOM     23  H4  3RK d   1     -15.209  -9.498  40.742  0.00  0.00     0.210 HD
ENDBRANCH   7  22
BRANCH   5  24
ATOM     24  OAB 3RK d   1     -12.615  -8.294  42.810  0.00  0.00    -0.391 OA
ATOM     25  H2  3RK d   1     -13.271  -8.906  43.121  0.00  0.00     0.210 HD
ENDBRANCH   5  24
TORSDOF 4
