REMARK  4 active torsions:
REMARK  status: ('A' for Active; 'I' for Inactive)
REMARK    1  A    between atoms: CAB_2  and  CAG_7 
REMARK    2  A    between atoms: CAC_3  and  CAN_14 
REMARK    3  A    between atoms: CAE_5  and  CAH_8 
REMARK       I    between atoms: CAH_8  and  NAI_9 
REMARK    4  A    between atoms: NAI_9  and  CAJ_10 
ROOT
ATOM      1  CAN I2O d   1       3.032  31.299  30.731  0.00  0.00    -0.023 A 
ATOM      2  CAO I2O d   1       2.858  32.615  30.322  0.00  0.00    -0.046 A 
ATOM      3  CAP I2O d   1       1.666  33.311  30.461  0.00  0.00     0.043 A 
ATOM      4  CAQ I2O d   1       0.564  32.662  31.012  0.00  0.00    -0.013 A 
ATOM      5  CAR I2O d   1       0.684  31.300  31.427  0.00  0.00    -0.073 A 
ATOM      6  CAS I2O d   1       1.918  30.626  31.274  0.00  0.00    -0.071 A 
ATOM      7  NAT I2O d   1       1.394  34.577  30.108  0.00  0.00    -0.326 N 
ATOM      8  CAU I2O d   1       0.107  34.874  30.362  0.00  0.00     0.235 A 
ATOM      9  CAV I2O d   1      -0.605  33.705  30.993  0.00  0.00     0.070 A 
ATOM     10  OAW I2O d   1      -0.443  35.934  30.091  0.00  0.00    -0.272 OA
ATOM     11  CAX I2O d   1      -1.250  34.047  32.357  0.00  0.00    -0.046 C 
ATOM     12  CAY I2O d   1      -2.669  34.463  31.937  0.00  0.00    -0.064 C 
ATOM     13  CAZ I2O d   1      -3.039  33.396  30.928  0.00  0.00    -0.064 C 
ATOM     14  CBA I2O d   1      -1.783  33.277  30.047  0.00  0.00    -0.046 C 
ATOM     15  H   I2O d   1       3.704  33.129  29.867  0.00  0.00     0.088 H 
ATOM     16  H   I2O d   1      -0.172  30.782  31.860  0.00  0.00     0.084 H 
ATOM     17  H   I2O d   1       2.008  29.583  31.577  0.00  0.00     0.084 H 
ATOM     18  H   I2O d   1       2.070  35.225  29.703  0.00  0.00     0.169 HD
ATOM     19  H   I2O d   1      -0.716  34.821  32.908  0.00  0.00     0.035 H 
ATOM     20  H   I2O d   1      -1.232  33.219  33.065  0.00  0.00     0.035 H 
ATOM     21  H   I2O d   1      -2.714  35.472  31.527  0.00  0.00     0.033 H 
ATOM     22  H   I2O d   1      -3.364  34.517  32.775  0.00  0.00     0.033 H 
ATOM     23  H   I2O d   1      -3.927  33.657  30.353  0.00  0.00     0.033 H 
ATOM     24  H   I2O d   1      -3.307  32.451  31.401  0.00  0.00     0.033 H 
ATOM     25  H   I2O d   1      -1.650  32.268  29.656  0.00  0.00     0.035 H 
ATOM     26  H   I2O d   1      -1.844  33.904  29.158  0.00  0.00     0.035 H 
ENDROOT
BRANCH   1  27
ATOM     27  CAC I2O d   1       4.320  30.703  30.491  0.00  0.00    -0.019 A 
ATOM     28  CAB I2O d   1       5.481  31.016  31.231  0.00  0.00    -0.051 A 
ATOM     29  CAA I2O d   1       6.716  30.391  30.907  0.00  0.00    -0.075 A 
ATOM     30  CAF I2O d   1       6.798  29.466  29.858  0.00  0.00    -0.067 A 
ATOM     31  H   I2O d   1       7.610  30.634  31.482  0.00  0.00     0.084 H 
ATOM     32  CAE I2O d   1       5.637  29.105  29.105  0.00  0.00     0.032 A 
ATOM     33  H   I2O d   1       7.760  29.015  29.613  0.00  0.00     0.085 H 
ATOM     34  CAD I2O d   1       4.429  29.766  29.433  0.00  0.00    -0.057 A 
ATOM     35  H   I2O d   1       3.540  29.544  28.843  0.00  0.00     0.086 H 
BRANCH  28  36
ATOM     36  CAG I2O d   1       5.415  32.047  32.383  0.00  0.00    -0.050 C 
ATOM     37  H   I2O d   1       5.722  31.570  33.314  0.00  0.00     0.033 H 
ATOM     38  H   I2O d   1       6.083  32.880  32.162  0.00  0.00     0.033 H 
ATOM     39  H   I2O d   1       4.394  32.415  32.481  0.00  0.00     0.033 H 
ENDBRANCH  28  36
BRANCH  32  40
ATOM     40  CAH I2O d   1       5.695  28.128  27.894  0.00  0.00     0.252 C 
ATOM     41  NAI I2O d   1       6.604  27.149  27.853  0.00  0.00    -0.352 N 
ATOM     42  H   I2O d   1       7.249  26.999  28.629  0.00  0.00     0.163 HD
ATOM     43  OAM I2O d   1       4.985  28.314  26.917  0.00  0.00    -0.268 OA
BRANCH  41  44
ATOM     44  CAJ I2O d   1       6.648  26.306  26.674  0.00  0.00     0.012 A 
ATOM     45  CAK I2O d   1       7.064  27.044  25.393  0.00  0.00    -0.044 A 
ATOM     46  CAL I2O d   1       8.039  26.059  26.035  0.00  0.00    -0.044 A 
ATOM     47  H   I2O d   1       7.076  28.066  25.014  0.00  0.00     0.036 H 
ATOM     48  H   I2O d   1       6.652  27.249  24.405  0.00  0.00     0.036 H 
ATOM     49  H   I2O d   1       8.667  25.218  25.740  0.00  0.00     0.036 H 
ATOM     50  H   I2O d   1       9.085  26.023  26.339  0.00  0.00     0.036 H 
ATOM     51  H   I2O d   1       5.830  25.657  26.985  0.00  0.00     0.072 H 
ENDBRANCH  41  44
ENDBRANCH  32  40
ENDBRANCH   1  27
TORSDOF 4
