REMARK  8 active torsions:
REMARK  status: ('A' for Active; 'I' for Inactive)
REMARK    1  A    between atoms: S1_1  and  N2_18 
REMARK    2  A    between atoms: C14_23  and  S1_1 
REMARK    3  A    between atoms: C2_4  and  C9_13 
REMARK    4  A    between atoms: C5_9  and  C4_8 
REMARK    5  A    between atoms: RE1_26  and  C7_11 
REMARK    6  A    between atoms: RE1_26  and  C8_12 
REMARK       I    between atoms: C9_13  and  N1_14 
REMARK    7  A    between atoms: N1_14  and  C10_15 
REMARK    8  A    between atoms: C10_15  and  C11_17 
ROOT
ATOM      1  C1  RCS d   1      20.845   7.834  13.381  0.00  0.00    -0.027 A 
ATOM      2  O1  RCS d   1      21.552  11.614  10.973  0.00  0.00    -0.279 OA
ATOM      3  C2  RCS d   1      19.815   8.070  14.363  0.00  0.00     0.067 A 
ATOM      4  C3  RCS d   1      20.282   9.131  15.235  0.00  0.00    -0.027 A 
ATOM      5  C4  RCS d   1      21.952   8.759  13.637  0.00  0.00    -0.041 A 
ATOM      6  C5  RCS d   1      21.559   9.574  14.745  0.00  0.00    -0.041 A 
ATOM      7  C6  RCS d   1      20.921  11.012  11.802  0.00  0.00     0.279 C 
ATOM      8 RE1  RCS d   1      20.078   9.974  13.139  0.00  0.00     0.000 Re
ATOM      9  H1  RCS d   1      20.806   7.097  12.587  0.00  0.00     0.043 H 
ATOM     10  H2  RCS d   1      19.761   9.521  16.102  0.00  0.00     0.043 H 
ATOM     11  H3  RCS d   1      22.888   8.815  13.092  0.00  0.00     0.042 H 
ATOM     12  H4  RCS d   1      22.134  10.398  15.152  0.00  0.00     0.042 H 
ENDROOT
BRANCH   8  13
ATOM     13  C7  RCS d   1      19.103  11.521  13.617  0.00  0.00     0.279 C 
ATOM     14  O2  RCS d   1      18.474  12.541  13.667  0.00  0.00    -0.279 OA
ENDBRANCH   8  13
BRANCH   8  15
ATOM     15  C8  RCS d   1      18.683   9.687  11.776  0.00  0.00     0.279 C 
ATOM     16  O3  RCS d   1      18.029   9.274  10.971  0.00  0.00    -0.279 OA
ENDBRANCH   8  15
BRANCH   3  17
ATOM     17  C9  RCS d   1      18.549   7.395  14.441  0.00  0.00     0.228 C 
ATOM     18  N1  RCS d   1      18.136   6.512  13.503  0.00  0.00    -0.356 N 
ATOM     19  H   RCS d   1      18.761   6.207  12.757  0.00  0.00     0.162 HD
ATOM     20  O4  RCS d   1      17.747   7.756  15.367  0.00  0.00    -0.273 OA
BRANCH  18  21
ATOM     21  C10 RCS d   1      16.810   6.024  13.589  0.00  0.00     0.019 C 
ATOM     22  H   RCS d   1      16.573   5.669  12.586  0.00  0.00     0.071 H 
ATOM     23  H   RCS d   1      16.230   6.849  14.002  0.00  0.00     0.071 H 
BRANCH  21  24
ATOM     24  C11 RCS d   1      16.527   4.850  14.499  0.00  0.00    -0.040 C 
ATOM     25  C12 RCS d   1      15.218   4.772  14.934  0.00  0.00    -0.074 C 
ATOM     26  C13 RCS d   1      14.843   3.649  15.644  0.00  0.00    -0.060 C 
ATOM     27  H   RCS d   1      14.506   5.570  14.724  0.00  0.00     0.084 H 
ATOM     28  C14 RCS d   1      15.729   2.603  15.871  0.00  0.00     0.079 C 
ATOM     29  H   RCS d   1      13.828   3.581  16.036  0.00  0.00     0.085 H 
ATOM     30  C15 RCS d   1      17.101   2.726  15.552  0.00  0.00    -0.060 C 
ATOM     31  C16 RCS d   1      17.464   3.891  14.835  0.00  0.00    -0.074 C 
ATOM     32  H   RCS d   1      17.833   1.971  15.840  0.00  0.00     0.085 H 
ATOM     33  H   RCS d   1      18.504   4.035  14.542  0.00  0.00     0.084 H 
BRANCH  28  34
ATOM     34  S1  RCS d   1      15.134   1.235  16.769  0.00  0.00     0.256 S 
ATOM     35  O5  RCS d   1      13.676   1.304  16.654  0.00  0.00    -0.201 OA
ATOM     36  O6  RCS d   1      15.689   1.389  18.108  0.00  0.00    -0.201 OA
BRANCH  34  37
ATOM     37  N2  RCS d   1      15.663  -0.065  16.080  0.00  0.00    -0.324 N 
ATOM     38  H   RCS d   1      15.008  -0.712  15.640  0.00  0.00     0.169 HD
ATOM     39  H   RCS d   1      16.663  -0.267  16.070  0.00  0.00     0.169 HD
ENDBRANCH  34  37
ENDBRANCH  28  34
ENDBRANCH  21  24
ENDBRANCH  18  21
ENDBRANCH   3  17
TORSDOF 8
