REMARK  5 active torsions:
REMARK  status: ('A' for Active; 'I' for Inactive)
REMARK    1  A    between atoms: C2_3  and  N3_4 
REMARK    2  A    between atoms: C4_5  and  C5_6 
REMARK    3  A    between atoms: C5_6  and  C6_7 
REMARK    4  A    between atoms: N15_16  and  C14_15 
REMARK    5  A    between atoms: C16_17  and  N15_16 
ROOT
ATOM      1  N1  06Z d   1     118.327  46.187 -49.813  0.00  0.00    -0.205 NA
ATOM      2  C2  06Z d   1     119.432  45.412 -50.091  0.00  0.00     0.145 A 
ATOM      3  C4  06Z d   1     119.979  44.658 -49.025  0.00  0.00     0.104 A 
ATOM      4  S13 06Z d   1     119.015  45.001 -47.604  0.00  0.00    -0.044 SA
ATOM      5  C14 06Z d   1     117.992  46.066 -48.562  0.00  0.00     0.174 A 
ENDROOT
BRANCH   3   6
ATOM      6  C5  06Z d   1     121.132  43.753 -49.122  0.00  0.00     0.203 C 
ATOM      7  O12 06Z d   1     121.737  43.601 -50.212  0.00  0.00    -0.286 OA
BRANCH   6   8
ATOM      8  C6  06Z d   1     121.605  42.945 -47.931  0.00  0.00     0.015 A 
ATOM      9  C7  06Z d   1     120.664  42.167 -47.122  0.00  0.00    -0.069 A 
ATOM     10  C8  06Z d   1     121.112  41.391 -46.004  0.00  0.00    -0.082 A 
ATOM     11  H3  06Z d   1     119.610  42.178 -47.374  0.00  0.00     0.085 H 
ATOM     12  C9  06Z d   1     122.513  41.373 -45.673  0.00  0.00    -0.083 A 
ATOM     13  H4  06Z d   1     120.403  40.823 -45.413  0.00  0.00     0.083 H 
ATOM     14  C10 06Z d   1     123.460  42.133 -46.462  0.00  0.00    -0.082 A 
ATOM     15  H5  06Z d   1     122.861  40.788 -44.829  0.00  0.00     0.083 H 
ATOM     16  C11 06Z d   1     123.010  42.918 -47.590  0.00  0.00    -0.069 A 
ATOM     17  H6  06Z d   1     124.513  42.113 -46.205  0.00  0.00     0.083 H 
ATOM     18  H7  06Z d   1     123.723  43.484 -48.178  0.00  0.00     0.085 H 
ENDBRANCH   6   8
ENDBRANCH   3   6
BRANCH   2  19
ATOM     19  N3  06Z d   1     119.913  45.389 -51.324  0.00  0.00    -0.383 N 
ATOM     20  H1  06Z d   1     120.738  44.814 -51.544  0.00  0.00     0.157 HD
ATOM     21  H2  06Z d   1     119.462  45.947 -52.063  0.00  0.00     0.157 HD
ENDBRANCH   2  19
BRANCH   5  22
ATOM     22  N15 06Z d   1     116.892  46.744 -48.083  0.00  0.00    -0.335 N 
ATOM     23  H8  06Z d   1     116.430  47.320 -48.801  0.00  0.00     0.168 HD
BRANCH  22  24
ATOM     24  C16 06Z d   1     116.254  46.822 -46.812  0.00  0.00     0.036 A 
ATOM     25  C17 06Z d   1     115.406  47.944 -46.437  0.00  0.00    -0.020 A 
ATOM     26  C18 06Z d   1     114.790  47.949 -45.112  0.00  0.00     0.118 A 
ATOM     27  H9  06Z d   1     115.234  48.761 -47.128  0.00  0.00     0.091 H 
ATOM     28  F   06Z d   1     114.010  49.001 -44.783  0.00  0.00    -0.206 F 
ATOM     29  C19 06Z d   1     114.987  46.885 -44.157  0.00  0.00    -0.046 A 
ATOM     30  C20 06Z d   1     115.831  45.762 -44.538  0.00  0.00    -0.078 A 
ATOM     31  H10 06Z d   1     114.518  46.921 -43.180  0.00  0.00     0.088 H 
ATOM     32  C21 06Z d   1     116.458  45.726 -45.850  0.00  0.00    -0.057 A 
ATOM     33  H11 06Z d   1     115.993  44.948 -43.840  0.00  0.00     0.083 H 
ATOM     34  H12 06Z d   1     117.082  44.883 -46.123  0.00  0.00     0.086 H 
ENDBRANCH  22  24
ENDBRANCH   5  22
TORSDOF 5
