REMARK  24 active torsions:
REMARK  status: ('A' for Active; 'I' for Inactive)
REMARK    1  A    between atoms: C_1  and  CH3_3 
REMARK       I    between atoms: N_4  and  C_1 
REMARK    2  A    between atoms: CA_5  and  N_4 
REMARK    3  A    between atoms: C_6  and  CA_5 
REMARK    4  A    between atoms: CA_5  and  CB_8 
REMARK       I    between atoms: N_11  and  C_6 
REMARK    5  A    between atoms: CB_8  and  CG1_9 
REMARK    6  A    between atoms: CB_8  and  CG2_10 
REMARK    7  A    between atoms: CA_12  and  N_11 
REMARK    8  A    between atoms: C_13  and  CA_12 
REMARK    9  A    between atoms: CA_12  and  CB_15 
REMARK       I    between atoms: N_19  and  C_13 
REMARK   10  A    between atoms: CB_15  and  CG_16 
REMARK   11  A    between atoms: CA_20  and  N_19 
REMARK   12  A    between atoms: C_21  and  CA_20 
REMARK   13  A    between atoms: CA_20  and  CB_23 
REMARK       I    between atoms: N_27  and  C_21 
REMARK   14  A    between atoms: CB_23  and  CG1_24 
REMARK   15  A    between atoms: CB_23  and  CG2_25 
REMARK   16  A    between atoms: C_26  and  CA_29 
REMARK       I    between atoms: N_38  and  C_26 
REMARK   17  A    between atoms: CB_30  and  OB1_33 
REMARK   18  A    between atoms: OB1_33  and  CB2_34 
REMARK   19  A    between atoms: CB2_34  and  CB3_35 
REMARK   20  A    between atoms: CB2_34  and  CB4_36 
REMARK   21  A    between atoms: CA_40  and  C_37 
REMARK   22  A    between atoms: N_38  and  CA_40 
REMARK   23  A    between atoms: CA_40  and  CB_41 
REMARK   24  A    between atoms: CB_41  and  CG_42 
ROOT
ATOM      1  CA  VAL d   1      -3.693 -10.442  33.241  0.00  0.00     0.092 C 
ATOM      2  H   VAL d   1      -3.666 -10.475  34.330  0.00  0.00     0.088 H 
ENDROOT
BRANCH   1   3
ATOM      3  N   VAL d   1      -4.391 -11.631  32.767  0.00  0.00    -0.346 N 
ATOM      4  C   ASP d   1      -4.712 -12.648  33.568  0.00  0.00     0.241 C 
ATOM      5  O   ASP d   1      -4.451 -12.660  34.775  0.00  0.00    -0.271 OA
ATOM      6  H   VAL d   1      -4.645 -11.688  31.781  0.00  0.00     0.163 HD
BRANCH   4   7
ATOM      7  CA  ASP d   1      -5.397 -13.847  32.885  0.00  0.00     0.098 C 
ATOM      8  H   ASP d   1      -5.299 -13.699  31.810  0.00  0.00     0.088 H 
BRANCH   7   9
ATOM      9  N   ASP d   1      -4.738 -15.079  33.283  0.00  0.00    -0.345 N 
ATOM     10  C   VAL d   1      -3.852 -15.684  32.488  0.00  0.00     0.241 C 
ATOM     11  O   VAL d   1      -3.461 -15.186  31.418  0.00  0.00    -0.271 OA
ATOM     12  H   ASP d   1      -4.957 -15.491  34.190  0.00  0.00     0.163 HD
BRANCH  10  13
ATOM     13  CA  VAL d   1      -3.333 -17.066  32.957  0.00  0.00     0.092 C 
ATOM     14  H   VAL d   1      -4.177 -17.622  33.365  0.00  0.00     0.088 H 
BRANCH  13  15
ATOM     15  N   VAL d   1      -2.810 -17.855  31.831  0.00  0.00    -0.348 N 
ATOM     16  C   ACE d   1      -3.204 -19.105  31.575  0.00  0.00     0.214 C 
ATOM     17  O   ACE d   1      -4.242 -19.579  32.035  0.00  0.00    -0.274 OA
ATOM     18  H   VAL d   1      -2.115 -17.428  31.218  0.00  0.00     0.163 HD
BRANCH  16  19
ATOM     19  CH3 ACE d   1      -2.528 -19.767  30.413  0.00  0.00    -0.003 C 
ATOM     20  H   ACE d   1      -2.255 -20.786  30.686  0.00  0.00     0.040 H 
ATOM     21  H   ACE d   1      -3.209 -19.788  29.562  0.00  0.00     0.040 H 
ATOM     22  H   ACE d   1      -1.631 -19.207  30.149  0.00  0.00     0.040 H 
ENDBRANCH  16  19
ENDBRANCH  13  15
BRANCH  13  23
ATOM     23  CB  VAL d   1      -2.280 -16.908  34.106  0.00  0.00    -0.033 C 
ATOM     24  H   VAL d   1      -2.818 -16.630  35.012  0.00  0.00     0.042 H 
BRANCH  23  25
ATOM     25  CG1 VAL d   1      -1.563 -18.215  34.341  0.00  0.00    -0.071 C 
ATOM     26  H   VAL d   1      -0.992 -18.480  33.451  0.00  0.00     0.028 H 
ATOM     27  H   VAL d   1      -0.887 -18.110  35.190  0.00  0.00     0.028 H 
ATOM     28  H   VAL d   1      -2.294 -18.996  34.551  0.00  0.00     0.028 H 
ENDBRANCH  23  25
BRANCH  23  29
ATOM     29  CG2 VAL d   1      -1.283 -15.798  33.810  0.00  0.00    -0.071 C 
ATOM     30  H   VAL d   1      -0.606 -15.684  34.657  0.00  0.00     0.028 H 
ATOM     31  H   VAL d   1      -0.711 -16.054  32.918  0.00  0.00     0.028 H 
ATOM     32  H   VAL d   1      -1.820 -14.864  33.644  0.00  0.00     0.028 H 
ENDBRANCH  23  29
ENDBRANCH  13  23
ENDBRANCH  10  13
ENDBRANCH   7   9
BRANCH   7  33
ATOM     33  CB  ASP d   1      -6.902 -13.931  33.171  0.00  0.00     0.043 C 
ATOM     34  H   ASP d   1      -7.330 -12.942  33.006  0.00  0.00     0.052 H 
ATOM     35  H   ASP d   1      -7.029 -14.278  34.197  0.00  0.00     0.052 H 
BRANCH  33  36
ATOM     36  CG  ASP d   1      -7.630 -14.926  32.239  0.00  0.00     0.175 C 
ATOM     37  OD1 ASP d   1      -7.361 -14.906  31.024  0.00  0.00    -0.648 OA
ATOM     38  OD2 ASP d   1      -8.487 -15.720  32.698  0.00  0.00    -0.648 OA
ENDBRANCH  33  36
ENDBRANCH   7  33
ENDBRANCH   4   7
ENDBRANCH   1   3
BRANCH   1  39
ATOM     39  C   VAL d   1      -4.455  -9.187  32.774  0.00  0.00     0.243 C 
ATOM     40  O   VAL d   1      -5.181  -9.226  31.772  0.00  0.00    -0.271 OA
ATOM     41  N   3PX d   1      -4.314  -8.074  33.516  0.00  0.00    -0.334 N 
ATOM     42  CA  3PX d   1      -4.950  -6.783  33.225  0.00  0.00     0.116 C 
ATOM     43  CD  3PX d   1      -3.659  -7.977  34.843  0.00  0.00     0.001 C 
ATOM     44  CB  3PX d   1      -4.676  -5.897  34.436  0.00  0.00     0.068 C 
ATOM     45  H   3PX d   1      -6.009  -6.960  33.036  0.00  0.00     0.091 H 
ATOM     46  CG  3PX d   1      -3.465  -6.497  35.107  0.00  0.00    -0.024 C 
ATOM     47  H   3PX d   1      -4.499  -4.851  34.187  0.00  0.00     0.087 H 
ATOM     48  H   3PX d   1      -3.394  -6.253  36.167  0.00  0.00     0.039 H 
ATOM     49  H   3PX d   1      -2.522  -6.110  34.721  0.00  0.00     0.039 H 
ATOM     50  H   3PX d   1      -2.707  -8.508  34.853  0.00  0.00     0.064 H 
ATOM     51  H   3PX d   1      -4.269  -8.439  35.619  0.00  0.00     0.064 H 
BRANCH  42  52
ATOM     52  C   3PX d   1      -4.443  -6.096  31.989  0.00  0.00     0.243 C 
ATOM     53  O   3PX d   1      -3.238  -6.091  31.729  0.00  0.00    -0.271 OA
ATOM     54  N   ASJ d   1      -5.365  -5.482  31.245  0.00  0.00    -0.348 N 
ATOM     55  H   ASJ d   1      -6.345  -5.593  31.504  0.00  0.00     0.163 HD
BRANCH  54  56
ATOM     56  CA  ASJ d   1      -5.045  -4.651  30.069  0.00  0.00     0.071 C 
ATOM     57  H   ASJ d   1      -4.011  -4.877  29.809  0.00  0.00     0.084 H 
BRANCH  56  58
ATOM     58  C   ASJ d   1      -5.144  -3.154  30.351  0.00  0.00     0.110 C 
ATOM     59  O   ASJ d   1      -4.361  -2.370  29.843  0.00  0.00    -0.305 OA
ATOM     60  H1  ASJ d   1      -5.924  -2.782  31.014  0.00  0.00     0.146 H 
ENDBRANCH  56  58
BRANCH  56  61
ATOM     61  CB  ASJ d   1      -5.994  -4.991  28.904  0.00  0.00     0.040 C 
ATOM     62  H   ASJ d   1      -6.597  -4.107  28.697  0.00  0.00     0.052 H 
ATOM     63  H   ASJ d   1      -6.592  -5.852  29.202  0.00  0.00     0.052 H 
BRANCH  61  64
ATOM     64  CG  ASJ d   1      -5.255  -5.358  27.629  0.00  0.00     0.174 C 
ATOM     65  OD1 ASJ d   1      -4.025  -5.554  27.685  0.00  0.00    -0.648 OA
ATOM     66  OD2 ASJ d   1      -5.906  -5.461  26.567  0.00  0.00    -0.648 OA
ENDBRANCH  61  64
ENDBRANCH  56  61
ENDBRANCH  54  56
ENDBRANCH  42  52
BRANCH  44  67
ATOM     67  OB1 3PX d   1      -5.815  -5.988  35.287  0.00  0.00    -0.379 OA
BRANCH  67  68
ATOM     68  CB2 3PX d   1      -5.785  -5.139  36.443  0.00  0.00     0.032 C 
ATOM     69  H   3PX d   1      -4.896  -5.359  37.035  0.00  0.00     0.082 H 
BRANCH  68  70
ATOM     70  CB3 3PX d   1      -5.690  -3.666  36.039  0.00  0.00    -0.052 C 
ATOM     71  H   3PX d   1      -4.778  -3.506  35.464  0.00  0.00     0.030 H 
ATOM     72  H   3PX d   1      -6.555  -3.401  35.432  0.00  0.00     0.030 H 
ATOM     73  H   3PX d   1      -5.669  -3.046  36.935  0.00  0.00     0.030 H 
ENDBRANCH  68  70
BRANCH  68  74
ATOM     74  CB4 3PX d   1      -7.024  -5.415  37.295  0.00  0.00    -0.052 C 
ATOM     75  H   3PX d   1      -7.920  -5.208  36.709  0.00  0.00     0.030 H 
ATOM     76  H   3PX d   1      -7.025  -6.460  37.605  0.00  0.00     0.030 H 
ATOM     77  H   3PX d   1      -7.008  -4.773  38.176  0.00  0.00     0.030 H 
ENDBRANCH  68  74
ENDBRANCH  67  68
ENDBRANCH  44  67
ENDBRANCH   1  39
BRANCH   1  78
ATOM     78  CB  VAL d   1      -2.192 -10.396  32.751  0.00  0.00    -0.033 C 
ATOM     79  H   VAL d   1      -1.789  -9.435  33.072  0.00  0.00     0.042 H 
BRANCH  78  80
ATOM     80  CG1 VAL d   1      -1.346 -11.511  33.397  0.00  0.00    -0.071 C 
ATOM     81  H   VAL d   1      -1.357 -11.392  34.480  0.00  0.00     0.028 H 
ATOM     82  H   VAL d   1      -1.764 -12.482  33.132  0.00  0.00     0.028 H 
ATOM     83  H   VAL d   1      -0.321 -11.444  33.034  0.00  0.00     0.028 H 
ENDBRANCH  78  80
BRANCH  78  84
ATOM     84  CG2 VAL d   1      -2.091 -10.467  31.232  0.00  0.00    -0.071 C 
ATOM     85  H   VAL d   1      -2.538 -11.398  30.883  0.00  0.00     0.028 H 
ATOM     86  H   VAL d   1      -2.621  -9.621  30.794  0.00  0.00     0.028 H 
ATOM     87  H   VAL d   1      -1.042 -10.432  30.937  0.00  0.00     0.028 H 
ENDBRANCH  78  84
ENDBRANCH   1  78
TORSDOF 24
