REMARK  13 active torsions:
REMARK  status: ('A' for Active; 'I' for Inactive)
REMARK    1  A    between atoms: C2_2  and  CBI_35 
REMARK    2  A    between atoms: NAX_28  and  C6_6 
REMARK    3  A    between atoms: OAY_29  and  CAA_7 
REMARK    4  A    between atoms: CBG_33  and  CAB_8 
REMARK    5  A    between atoms: CBG_33  and  CAC_9 
REMARK    6  A    between atoms: CAL_18  and  CAK_17 
REMARK    7  A    between atoms: CAK_17  and  CAS_25 
REMARK    8  A    between atoms: OAZ_30  and  CAL_18 
REMARK    9  A    between atoms: CAS_25  and  NBJ_36 
REMARK   10  A    between atoms: CBH_34  and  NAX_28 
REMARK   11  A    between atoms: CBA_31  and  OAY_29 
REMARK   12  A    between atoms: CBB_32  and  OAZ_30 
REMARK   13  A    between atoms: CBG_33  and  NBK_37 
ROOT
ATOM      1  N1  CIQ d   1      -9.709  15.417  47.503  0.00  0.00    -0.215 NA
ATOM      2  C2  CIQ d   1      -8.460  14.970  47.295  0.00  0.00     0.133 A 
ATOM      3  N3  CIQ d   1      -8.136  13.697  47.580  0.00  0.00    -0.232 NA
ATOM      4  C4  CIQ d   1      -9.060  12.835  48.026  0.00  0.00     0.075 A 
ATOM      5  C5  CIQ d   1     -10.377  13.266  48.204  0.00  0.00     0.041 A 
ATOM      6  C6  CIQ d   1     -10.685  14.602  47.928  0.00  0.00     0.138 A 
ATOM      7  CAD CIQ d   1      -8.707  11.515  48.294  0.00  0.00    -0.019 A 
ATOM      8  CAE CIQ d   1     -11.335  12.363  48.660  0.00  0.00    -0.032 A 
ATOM      9  CBA CIQ d   1     -10.983  11.043  48.964  0.00  0.00     0.102 A 
ATOM     10  CBB CIQ d   1      -9.665  10.618  48.777  0.00  0.00     0.104 A 
ATOM     11  H   CIQ d   1      -7.683  11.181  48.127  0.00  0.00     0.091 H 
ATOM     12  H   CIQ d   1     -12.368  12.688  48.781  0.00  0.00     0.089 H 
ENDROOT
BRANCH   6  13
ATOM     13  NAX CIQ d   1     -11.913  15.101  48.068  0.00  0.00    -0.369 N 
ATOM     14  H   CIQ d   1     -12.559  14.704  48.751  0.00  0.00     0.161 HD
BRANCH  13  15
ATOM     15  CBH CIQ d   1     -12.323  16.233  47.222  0.00  0.00     0.014 C 
ATOM     16  CAO CIQ d   1     -13.213  15.725  46.089  0.00  0.00    -0.021 C 
ATOM     17  CAT CIQ d   1     -13.828  16.872  45.286  0.00  0.00     0.116 C 
ATOM     18  H   CIQ d   1     -12.599  15.127  45.415  0.00  0.00     0.038 H 
ATOM     19  H   CIQ d   1     -14.024  15.143  46.527  0.00  0.00     0.038 H 
ATOM     20  NBK CIQ d   1     -14.558  17.801  46.170  0.00  0.00     0.092 N 
ATOM     21  H   CIQ d   1     -14.527  16.457  44.560  0.00  0.00     0.080 H 
ATOM     22  H   CIQ d   1     -13.028  17.419  44.787  0.00  0.00     0.080 H 
ATOM     23  CAU CIQ d   1     -13.617  18.390  47.146  0.00  0.00     0.116 C 
ATOM     24  CAP CIQ d   1     -13.054  17.290  48.054  0.00  0.00    -0.021 C 
ATOM     25  H   CIQ d   1     -12.797  18.871  46.612  0.00  0.00     0.080 H 
ATOM     26  H   CIQ d   1     -14.143  19.126  47.755  0.00  0.00     0.080 H 
ATOM     27  H   CIQ d   1     -13.877  16.815  48.588  0.00  0.00     0.038 H 
ATOM     28  H   CIQ d   1     -12.351  17.736  48.758  0.00  0.00     0.038 H 
ATOM     29  H   CIQ d   1     -11.436  16.700  46.794  0.00  0.00     0.072 H 
BRANCH  20  30
ATOM     30  CBG CIQ d   1     -15.151  18.855  45.326  0.00  0.00     0.128 C 
ATOM     31  H   CIQ d   1     -14.351  19.335  44.762  0.00  0.00     0.087 H 
BRANCH  30  32
ATOM     32  CAB CIQ d   1     -15.830  19.926  46.180  0.00  0.00    -0.047 C 
ATOM     33  H   CIQ d   1     -16.222  20.710  45.533  0.00  0.00     0.030 H 
ATOM     34  H   CIQ d   1     -16.647  19.476  46.743  0.00  0.00     0.030 H 
ATOM     35  H   CIQ d   1     -15.103  20.353  46.871  0.00  0.00     0.030 H 
ENDBRANCH  30  32
BRANCH  30  36
ATOM     36  CAC CIQ d   1     -16.150  18.239  44.347  0.00  0.00    -0.047 C 
ATOM     37  H   CIQ d   1     -16.968  17.783  44.904  0.00  0.00     0.030 H 
ATOM     38  H   CIQ d   1     -16.543  19.017  43.693  0.00  0.00     0.030 H 
ATOM     39  H   CIQ d   1     -15.648  17.479  43.748  0.00  0.00     0.030 H 
ENDBRANCH  30  36
ENDBRANCH  20  30
ENDBRANCH  13  15
ENDBRANCH   6  13
BRANCH   2  40
ATOM     40  CBI CIQ d   1      -7.397  15.935  46.769  0.00  0.00     0.006 C 
ATOM     41  CAM CIQ d   1      -6.607  16.469  47.972  0.00  0.00    -0.055 C 
ATOM     42  CAG CIQ d   1      -5.729  17.666  47.602  0.00  0.00    -0.064 C 
ATOM     43  H   CIQ d   1      -7.321  16.793  48.729  0.00  0.00     0.034 H 
ATOM     44  H   CIQ d   1      -5.958  15.671  48.333  0.00  0.00     0.034 H 
ATOM     45  CAF CIQ d   1      -6.569  18.777  46.968  0.00  0.00    -0.065 C 
ATOM     46  H   CIQ d   1      -5.260  18.052  48.507  0.00  0.00     0.033 H 
ATOM     47  H   CIQ d   1      -4.975  17.342  46.885  0.00  0.00     0.033 H 
ATOM     48  CAH CIQ d   1      -7.218  18.270  45.680  0.00  0.00    -0.064 C 
ATOM     49  H   CIQ d   1      -5.926  19.626  46.736  0.00  0.00     0.033 H 
ATOM     50  H   CIQ d   1      -7.348  19.081  47.667  0.00  0.00     0.033 H 
ATOM     51  CAN CIQ d   1      -8.099  17.045  45.947  0.00  0.00    -0.055 C 
ATOM     52  H   CIQ d   1      -6.430  17.986  44.982  0.00  0.00     0.033 H 
ATOM     53  H   CIQ d   1      -7.842  19.064  45.269  0.00  0.00     0.033 H 
ATOM     54  H   CIQ d   1      -8.360  16.616  44.980  0.00  0.00     0.034 H 
ATOM     55  H   CIQ d   1      -8.958  17.383  46.526  0.00  0.00     0.034 H 
ATOM     56  H   CIQ d   1      -6.687  15.450  46.100  0.00  0.00     0.052 H 
ENDBRANCH   2  40
BRANCH   9  57
ATOM     57  OAY CIQ d   1     -11.934  10.169  49.404  0.00  0.00    -0.353 OA
BRANCH  57  58
ATOM     58  CAA CIQ d   1     -12.613  10.683  50.555  0.00  0.00     0.010 C 
ATOM     59  H   CIQ d   1     -11.893  10.848  51.356  0.00  0.00     0.066 H 
ATOM     60  H   CIQ d   1     -13.097  11.626  50.299  0.00  0.00     0.066 H 
ATOM     61  H   CIQ d   1     -13.365   9.965  50.883  0.00  0.00     0.066 H 
ENDBRANCH  57  58
ENDBRANCH   9  57
BRANCH  10  62
ATOM     62  OAZ CIQ d   1      -9.317   9.326  49.021  0.00  0.00    -0.348 OA
BRANCH  62  63
ATOM     63  CAL CIQ d   1      -8.180   9.306  49.906  0.00  0.00     0.028 C 
ATOM     64  H   CIQ d   1      -7.571  10.185  49.697  0.00  0.00     0.075 H 
ATOM     65  H   CIQ d   1      -8.548   9.297  50.932  0.00  0.00     0.075 H 
BRANCH  63  66
ATOM     66  CAK CIQ d   1      -7.312   8.063  49.699  0.00  0.00    -0.020 C 
ATOM     67  H   CIQ d   1      -6.602   7.990  50.523  0.00  0.00     0.038 H 
ATOM     68  H   CIQ d   1      -6.793   8.153  48.745  0.00  0.00     0.038 H 
BRANCH  66  69
ATOM     69  CAS CIQ d   1      -8.168   6.799  49.675  0.00  0.00     0.115 C 
ATOM     70  H   CIQ d   1      -9.037   6.922  50.322  0.00  0.00     0.080 H 
ATOM     71  H   CIQ d   1      -7.591   5.949  50.039  0.00  0.00     0.080 H 
BRANCH  69  72
ATOM     72  NBJ CIQ d   1      -8.597   6.563  48.294  0.00  0.00     0.088 N 
ATOM     73  CAQ CIQ d   1      -9.823   5.756  48.309  0.00  0.00     0.113 C 
ATOM     74  CAI CIQ d   1      -9.800   4.992  46.975  0.00  0.00    -0.038 C 
ATOM     75  H   CIQ d   1      -9.857   5.082  49.165  0.00  0.00     0.079 H 
ATOM     76  H   CIQ d   1     -10.716   6.373  48.410  0.00  0.00     0.079 H 
ATOM     77  CAJ CIQ d   1      -8.349   5.061  46.484  0.00  0.00    -0.038 C 
ATOM     78  H   CIQ d   1     -10.129   3.961  47.101  0.00  0.00     0.035 H 
ATOM     79  H   CIQ d   1     -10.486   5.433  46.252  0.00  0.00     0.035 H 
ATOM     80  CAR CIQ d   1      -7.595   5.709  47.642  0.00  0.00     0.113 C 
ATOM     81  H   CIQ d   1      -8.253   5.631  45.560  0.00  0.00     0.035 H 
ATOM     82  H   CIQ d   1      -7.952   4.078  46.232  0.00  0.00     0.035 H 
ATOM     83  H   CIQ d   1      -6.730   6.278  47.301  0.00  0.00     0.079 H 
ATOM     84  H   CIQ d   1      -7.178   4.969  48.326  0.00  0.00     0.079 H 
ENDBRANCH  69  72
ENDBRANCH  66  69
ENDBRANCH  63  66
ENDBRANCH  62  63
ENDBRANCH  10  62
TORSDOF 13
