REMARK  6 active torsions:
REMARK  status: ('A' for Active; 'I' for Inactive)
REMARK    1  A    between atoms: C1_1  and  N2_2 
REMARK    2  A    between atoms: N2_2  and  C3_3 
REMARK    3  A    between atoms: C6_6  and  C9_9 
REMARK    4  A    between atoms: C9_9  and  C10_10 
REMARK    5  A    between atoms: C9_9  and  O16_16 
REMARK    6  A    between atoms: C19_19  and  C22_22 
ROOT
ATOM      1  C3  07Z d   1      91.369 117.858 -49.520  0.00  0.00     0.173 A 
ATOM      2  N4  07Z d   1      91.776 118.074 -50.772  0.00  0.00    -0.206 NA
ATOM      3  C5  07Z d   1      92.853 117.357 -51.073  0.00  0.00     0.140 A 
ATOM      4  C6  07Z d   1      93.304 116.553 -50.032  0.00  0.00     0.065 A 
ATOM      5  S7  07Z d   1      92.343 116.729 -48.623  0.00  0.00    -0.050 SA
ATOM      6  N8  07Z d   1      93.386 117.418 -52.238  0.00  0.00    -0.383 N 
ATOM      7  H2  07Z d   1      94.221 116.854 -52.453  0.00  0.00     0.157 HD
ATOM      8  H3  07Z d   1      92.979 118.031 -52.959  0.00  0.00     0.157 HD
ENDROOT
BRANCH   1   9
ATOM      9  N2  07Z d   1      90.248 118.518 -49.085  0.00  0.00    -0.335 N 
ATOM     10  H1  07Z d   1      89.822 119.161 -49.768  0.00  0.00     0.168 HD
BRANCH   9  11
ATOM     11  C1  07Z d   1      89.613 118.445 -47.873  0.00  0.00     0.034 A 
ATOM     12  C17 07Z d   1      88.726 119.517 -47.524  0.00  0.00    -0.056 A 
ATOM     13  C18 07Z d   1      88.016 119.502 -46.306  0.00  0.00    -0.064 A 
ATOM     14  H10 07Z d   1      88.600 120.350 -48.206  0.00  0.00     0.086 H 
ATOM     15  C19 07Z d   1      88.162 118.413 -45.384  0.00  0.00     0.041 A 
ATOM     16  H11 07Z d   1      87.352 120.323 -46.063  0.00  0.00     0.085 H 
ATOM     17  C20 07Z d   1      89.048 117.335 -45.717  0.00  0.00    -0.064 A 
ATOM     18  C21 07Z d   1      89.761 117.347 -46.942  0.00  0.00    -0.056 A 
ATOM     19  H12 07Z d   1      89.173 116.507 -45.028  0.00  0.00     0.085 H 
ATOM     20  H13 07Z d   1      90.424 116.525 -47.184  0.00  0.00     0.086 H 
BRANCH  15  21
ATOM     21  C22 07Z d   1      87.392 118.427 -44.109  0.00  0.00     0.209 C 
ATOM     22  O23 07Z d   1      86.564 119.473 -43.857  0.00  0.00    -0.644 OA
ATOM     23  O24 07Z d   1      87.493 117.388 -43.160  0.00  0.00    -0.644 OA
ENDBRANCH  15  21
ENDBRANCH   9  11
ENDBRANCH   1   9
BRANCH   4  24
ATOM     24  C9  07Z d   1      94.476 115.630 -50.101  0.00  0.00     0.097 C 
ATOM     25  H4  07Z d   1      95.129 116.430 -49.722  0.00  0.00     0.099 H 
BRANCH  24  26
ATOM     26  C10 07Z d   1      94.899 114.750 -48.971  0.00  0.00    -0.007 A 
ATOM     27  C11 07Z d   1      93.934 113.981 -48.218  0.00  0.00    -0.071 A 
ATOM     28  C12 07Z d   1      94.343 113.132 -47.150  0.00  0.00    -0.065 A 
ATOM     29  H5  07Z d   1      92.882 114.052 -48.470  0.00  0.00     0.084 H 
ATOM     30  C13 07Z d   1      95.715 113.048 -46.838  0.00  0.00     0.002 A 
ATOM     31  H6  07Z d   1      93.613 112.561 -46.588  0.00  0.00     0.085 H 
ATOM     32  N14 07Z d   1      96.629 113.783 -47.569  0.00  0.00    -0.272 NA
ATOM     33  H7  07Z d   1      96.052 112.410 -46.029  0.00  0.00     0.114 H 
ATOM     34  C15 07Z d   1      96.268 114.623 -48.616  0.00  0.00     0.011 A 
ATOM     35  H8  07Z d   1      97.026 115.177 -49.158  0.00  0.00     0.115 H 
ENDBRANCH  24  26
BRANCH  24  36
ATOM     36  O16 07Z d   1      95.174 115.573 -51.256  0.00  0.00    -0.385 OA
ATOM     37  H9  07Z d   1      95.134 114.691 -51.606  0.00  0.00     0.210 HD
ENDBRANCH  24  36
ENDBRANCH   4  24
TORSDOF 6
