REMARK  6 active torsions:
REMARK  status: ('A' for Active; 'I' for Inactive)
REMARK    1  A    between atoms: C1_1  and  N2_2 
REMARK    2  A    between atoms: N2_2  and  C3_3 
REMARK    3  A    between atoms: C6_6  and  C9_9 
REMARK    4  A    between atoms: C9_9  and  C10_10 
REMARK    5  A    between atoms: C9_9  and  O16_16 
REMARK    6  A    between atoms: C19_19  and  C22_22 
ROOT
ATOM      1  C3  08Z d   1      91.927 117.844 -49.348  0.00  0.00     0.173 A 
ATOM      2  N4  08Z d   1      92.276 118.047 -50.628  0.00  0.00    -0.206 NA
ATOM      3  C5  08Z d   1      93.348 117.312 -50.962  0.00  0.00     0.140 A 
ATOM      4  C6  08Z d   1      93.836 116.524 -49.936  0.00  0.00     0.065 A 
ATOM      5  S7  08Z d   1      92.955 116.723 -48.498  0.00  0.00    -0.050 SA
ATOM      6  N8  08Z d   1      93.839 117.338 -52.135  0.00  0.00    -0.383 N 
ATOM      7  H2  08Z d   1      94.663 116.763 -52.361  0.00  0.00     0.157 HD
ATOM      8  H3  08Z d   1      93.413 117.935 -52.858  0.00  0.00     0.157 HD
ENDROOT
BRANCH   1   9
ATOM      9  N2  08Z d   1      90.827 118.507 -48.855  0.00  0.00    -0.335 N 
ATOM     10  H1  08Z d   1      90.357 119.141 -49.517  0.00  0.00     0.168 HD
BRANCH   9  11
ATOM     11  C1  08Z d   1      90.269 118.439 -47.600  0.00  0.00     0.034 A 
ATOM     12  C17 08Z d   1      89.551 119.592 -47.106  0.00  0.00    -0.056 A 
ATOM     13  C18 08Z d   1      88.939 119.570 -45.823  0.00  0.00    -0.067 A 
ATOM     14  H10 08Z d   1      89.478 120.482 -47.720  0.00  0.00     0.086 H 
ATOM     15  C19 08Z d   1      89.019 118.395 -44.993  0.00  0.00     0.017 A 
ATOM     16  H11 08Z d   1      88.408 120.445 -45.466  0.00  0.00     0.085 H 
ATOM     17  C20 08Z d   1      89.727 117.250 -45.478  0.00  0.00    -0.067 A 
ATOM     18  C21 08Z d   1      90.341 117.269 -46.758  0.00  0.00    -0.056 A 
ATOM     19  H12 08Z d   1      89.795 116.360 -44.863  0.00  0.00     0.085 H 
ATOM     20  H13 08Z d   1      90.872 116.391 -47.108  0.00  0.00     0.086 H 
BRANCH  15  21
ATOM     21  C22 08Z d   1      88.362 118.387 -43.649  0.00  0.00     0.182 C 
ATOM     22  O23 08Z d   1      87.705 119.495 -43.239  0.00  0.00    -0.172 OA
ATOM     23  N24 08Z d   1      88.401 117.348 -42.865  0.00  0.00    -0.377 N 
ATOM     24  H14 08Z d   1      87.951 117.378 -41.973  0.00  0.00     0.158 HD
ATOM     25  H15 08Z d   1      88.881 116.520 -43.155  0.00  0.00     0.158 HD
ENDBRANCH  15  21
ENDBRANCH   9  11
ENDBRANCH   1   9
BRANCH   4  26
ATOM     26  C9  08Z d   1      94.996 115.597 -50.058  0.00  0.00     0.097 C 
ATOM     27  H4  08Z d   1      95.669 116.387 -49.693  0.00  0.00     0.099 H 
BRANCH  26  28
ATOM     28  C10 08Z d   1      95.448 114.702 -48.953  0.00  0.00    -0.007 A 
ATOM     29  C11 08Z d   1      94.471 113.944 -48.190  0.00  0.00    -0.071 A 
ATOM     30  C12 08Z d   1      94.873 113.072 -47.152  0.00  0.00    -0.065 A 
ATOM     31  H5  08Z d   1      93.417 114.049 -48.420  0.00  0.00     0.084 H 
ATOM     32  C13 08Z d   1      96.255 112.945 -46.872  0.00  0.00     0.002 A 
ATOM     33  H6  08Z d   1      94.139 112.513 -46.583  0.00  0.00     0.085 H 
ATOM     34  N14 08Z d   1      97.179 113.668 -47.611  0.00  0.00    -0.272 NA
ATOM     35  H7  08Z d   1      96.590 112.284 -46.081  0.00  0.00     0.114 H 
ATOM     36  C15 08Z d   1      96.822 114.536 -48.639  0.00  0.00     0.011 A 
ATOM     37  H8  08Z d   1      97.582 115.077 -49.191  0.00  0.00     0.115 H 
ENDBRANCH  26  28
BRANCH  26  38
ATOM     38  O16 08Z d   1      95.643 115.551 -51.224  0.00  0.00    -0.385 OA
ATOM     39  H9  08Z d   1      95.583 114.674 -51.584  0.00  0.00     0.210 HD
ENDBRANCH  26  38
ENDBRANCH   4  26
TORSDOF 6
