REMARK  7 active torsions:
REMARK  status: ('A' for Active; 'I' for Inactive)
REMARK    1  A    between atoms: C1_1  and  C2_2 
REMARK    2  A    between atoms: C2_2  and  C3_3 
REMARK    3  A    between atoms: C2_2  and  N4_4 
REMARK    4  A    between atoms: N4_4  and  C5_5 
REMARK    5  A    between atoms: C8_8  and  C11_11 
REMARK    6  A    between atoms: C11_11  and  C12_12 
REMARK    7  A    between atoms: C11_11  and  O18_18 
ROOT
ATOM      1  C5  09Z d   1     -38.313 -82.101 -85.472  0.00  0.00     0.169 A 
ATOM      2  N6  09Z d   1     -38.638 -82.262 -86.783  0.00  0.00    -0.206 NA
ATOM      3  C7  09Z d   1     -39.659 -81.463 -87.112  0.00  0.00     0.140 A 
ATOM      4  C8  09Z d   1     -40.119 -80.687 -86.082  0.00  0.00     0.065 A 
ATOM      5  S9  09Z d   1     -39.263 -80.969 -84.640  0.00  0.00    -0.050 SA
ATOM      6  N10 09Z d   1     -40.142 -81.432 -88.310  0.00  0.00    -0.383 N 
ATOM      7  H9  09Z d   1     -40.929 -80.806 -88.532  0.00  0.00     0.157 HD
ATOM      8  H10 09Z d   1     -39.740 -82.034 -89.043  0.00  0.00     0.157 HD
ENDROOT
BRANCH   4   9
ATOM      9  C11 09Z d   1     -41.251 -79.691 -86.206  0.00  0.00     0.097 C 
ATOM     10  H11 09Z d   1     -41.967 -80.465 -85.893  0.00  0.00     0.099 H 
BRANCH   9  11
ATOM     11  C12 09Z d   1     -41.707 -78.820 -85.094  0.00  0.00    -0.007 A 
ATOM     12  C13 09Z d   1     -40.726 -78.102 -84.291  0.00  0.00    -0.071 A 
ATOM     13  C14 09Z d   1     -41.131 -77.239 -83.208  0.00  0.00    -0.065 A 
ATOM     14  H12 09Z d   1     -39.671 -78.219 -84.512  0.00  0.00     0.084 H 
ATOM     15  C15 09Z d   1     -42.520 -77.091 -82.932  0.00  0.00     0.002 A 
ATOM     16  H13 09Z d   1     -40.391 -76.713 -82.615  0.00  0.00     0.085 H 
ATOM     17  N16 09Z d   1     -43.465 -77.776 -83.710  0.00  0.00    -0.272 NA
ATOM     18  H14 09Z d   1     -42.847 -76.450 -82.121  0.00  0.00     0.114 H 
ATOM     19  C17 09Z d   1     -43.112 -78.640 -84.790  0.00  0.00     0.011 A 
ATOM     20  H15 09Z d   1     -43.876 -79.148 -85.368  0.00  0.00     0.115 H 
ENDBRANCH   9  11
BRANCH   9  21
ATOM     21  O18 09Z d   1     -41.864 -79.570 -87.405  0.00  0.00    -0.385 OA
ATOM     22  H16 09Z d   1     -41.755 -78.683 -87.727  0.00  0.00     0.210 HD
ENDBRANCH   9  21
ENDBRANCH   4   9
BRANCH   1  23
ATOM     23  N4  09Z d   1     -37.274 -82.828 -84.906  0.00  0.00    -0.365 N 
ATOM     24  H8  09Z d   1     -36.886 -83.633 -85.418  0.00  0.00     0.162 HD
BRANCH  23  25
ATOM     25  C2  09Z d   1     -36.713 -82.473 -83.588  0.00  0.00     0.004 C 
ATOM     26  H4  09Z d   1     -37.531 -82.267 -82.882  0.00  0.00     0.071 H 
BRANCH  25  27
ATOM     27  C1  09Z d   1     -35.873 -83.681 -83.085  0.00  0.00    -0.058 C 
ATOM     28  H1  09Z d   1     -35.442 -83.443 -82.101  0.00  0.00     0.030 H 
ATOM     29  H2  09Z d   1     -35.063 -83.888 -83.800  0.00  0.00     0.030 H 
ATOM     30  H3  09Z d   1     -36.520 -84.566 -82.997  0.00  0.00     0.030 H 
ENDBRANCH  25  27
BRANCH  25  31
ATOM     31  C3  09Z d   1     -35.803 -81.222 -83.698  0.00  0.00    -0.058 C 
ATOM     32  H5  09Z d   1     -36.397 -80.367 -84.054  0.00  0.00     0.030 H 
ATOM     33  H6  09Z d   1     -34.987 -81.423 -84.408  0.00  0.00     0.030 H 
ATOM     34  H7  09Z d   1     -35.380 -80.989 -82.710  0.00  0.00     0.030 H 
ENDBRANCH  25  31
ENDBRANCH  23  25
ENDBRANCH   1  23
TORSDOF 7
