REMARK  5 active torsions:
REMARK  status: ('A' for Active; 'I' for Inactive)
REMARK    1  A    between atoms: C1_1  and  C6_6 
REMARK    2  A    between atoms: C2_2  and  N7_7 
REMARK    3  A    between atoms: N8_8  and  C4_4 
REMARK    4  A    between atoms: C6_6  and  C13_13 
REMARK    5  A    between atoms: C18_18  and  N8_8 
ROOT
ATOM      1  C1  12Z d   1     -93.884 -44.833 -49.735  0.00  0.00     0.104 A 
ATOM      2  C2  12Z d   1     -93.374 -45.589 -50.744  0.00  0.00     0.145 A 
ATOM      3  N3  12Z d   1     -92.321 -46.407 -50.359  0.00  0.00    -0.206 NA
ATOM      4  C4  12Z d   1     -92.024 -46.278 -49.078  0.00  0.00     0.169 A 
ATOM      5  S5  12Z d   1     -93.028 -45.141 -48.222  0.00  0.00    -0.044 SA
ENDROOT
BRANCH   4   6
ATOM      6  N8  12Z d   1     -91.015 -46.946 -48.455  0.00  0.00    -0.364 N 
ATOM      7  H3  12Z d   1     -90.502 -47.606 -49.057  0.00  0.00     0.162 HD
BRANCH   6   8
ATOM      8  C18 12Z d   1     -90.544 -46.886 -47.097  0.00  0.00     0.011 C 
ATOM      9  C17 12Z d   1     -89.622 -45.622 -46.948  0.00  0.00    -0.046 C 
ATOM     10  C16 12Z d   1     -89.064 -45.497 -45.510  0.00  0.00    -0.063 C 
ATOM     11  H10 12Z d   1     -88.781 -45.707 -47.652  0.00  0.00     0.035 H 
ATOM     12  H11 12Z d   1     -90.208 -44.722 -47.184  0.00  0.00     0.035 H 
ATOM     13  C21 12Z d   1     -88.336 -46.803 -45.065  0.00  0.00    -0.065 C 
ATOM     14  H8  12Z d   1     -89.897 -45.299 -44.819  0.00  0.00     0.033 H 
ATOM     15  H9  12Z d   1     -88.351 -44.660 -45.474  0.00  0.00     0.033 H 
ATOM     16  C20 12Z d   1     -89.237 -48.059 -45.246  0.00  0.00    -0.063 C 
ATOM     17  H17 12Z d   1     -88.060 -46.713 -44.004  0.00  0.00     0.033 H 
ATOM     18  H18 12Z d   1     -87.426 -46.927 -45.671  0.00  0.00     0.033 H 
ATOM     19  C19 12Z d   1     -89.751 -48.166 -46.710  0.00  0.00    -0.046 C 
ATOM     20  H15 12Z d   1     -88.653 -48.959 -45.002  0.00  0.00     0.033 H 
ATOM     21  H16 12Z d   1     -90.099 -47.985 -44.566  0.00  0.00     0.033 H 
ATOM     22  H13 12Z d   1     -88.893 -48.281 -47.389  0.00  0.00     0.035 H 
ATOM     23  H14 12Z d   1     -90.410 -49.042 -46.800  0.00  0.00     0.035 H 
ATOM     24  H12 12Z d   1     -91.407 -46.789 -46.422  0.00  0.00     0.072 H 
ENDBRANCH   6   8
ENDBRANCH   4   6
BRANCH   2  25
ATOM     25  N7  12Z d   1     -93.817 -45.582 -52.049  0.00  0.00    -0.383 N 
ATOM     26  H1  12Z d   1     -93.368 -46.191 -52.748  0.00  0.00     0.157 HD
ATOM     27  H2  12Z d   1     -94.597 -44.968 -52.325  0.00  0.00     0.157 HD
ENDBRANCH   2  25
BRANCH   1  28
ATOM     28  C6  12Z d   1     -95.002 -43.854 -49.816  0.00  0.00     0.204 C 
ATOM     29  O9  12Z d   1     -95.669 -43.789 -50.871  0.00  0.00    -0.286 OA
BRANCH  28  30
ATOM     30  C13 12Z d   1     -95.309 -42.946 -48.659  0.00  0.00     0.033 A 
ATOM     31  C12 12Z d   1     -96.673 -42.739 -48.262  0.00  0.00     0.015 A 
ATOM     32  N11 12Z d   1     -97.029 -41.919 -47.213  0.00  0.00    -0.272 NA
ATOM     33  H5  12Z d   1     -97.456 -43.249 -48.811  0.00  0.00     0.116 H 
ATOM     34  C10 12Z d   1     -96.046 -41.267 -46.509  0.00  0.00     0.002 A 
ATOM     35  C15 12Z d   1     -94.655 -41.398 -46.820  0.00  0.00    -0.065 A 
ATOM     36  H4  12Z d   1     -96.336 -40.627 -45.684  0.00  0.00     0.114 H 
ATOM     37  C14 12Z d   1     -94.291 -42.246 -47.910  0.00  0.00    -0.066 A 
ATOM     38  H7  12Z d   1     -93.902 -40.870 -46.246  0.00  0.00     0.085 H 
ATOM     39  H6  12Z d   1     -93.247 -42.365 -48.176  0.00  0.00     0.085 H 
ENDBRANCH  28  30
ENDBRANCH   1  28
TORSDOF 5
