REMARK  9 active torsions:
REMARK  status: ('A' for Active; 'I' for Inactive)
REMARK    1  A    between atoms: C1_1  and  C2_2 
REMARK    2  A    between atoms: C8_10  and  C10_12 
REMARK    3  A    between atoms: C8_10  and  C11_13 
REMARK    4  A    between atoms: C15_17  and  C28_34 
REMARK    5  A    between atoms: C18_21  and  C27_33 
REMARK    6  A    between atoms: C19_22  and  C26_32 
REMARK       I    between atoms: N3_24  and  C23_27 
REMARK    7  A    between atoms: C23_27  and  C24_29 
REMARK    8  A    between atoms: C24_29  and  C25_30 
REMARK    9  A    between atoms: C24_29  and  N4_31 
REMARK       I    between atoms: C28_34  and  N5_36 
ROOT
ATOM      1  C2  06T d   1       6.001  10.212  23.711  0.00  0.00    -0.023 A 
ATOM      2  C3  06T d   1       4.675   9.843  23.785  0.00  0.00     0.025 A 
ATOM      3  N1  06T d   1       3.947  10.965  24.174  0.00  0.00    -0.318 N 
ATOM      4  C4  06T d   1       4.819  12.023  24.335  0.00  0.00     0.032 A 
ATOM      5  C5  06T d   1       6.096  11.574  24.057  0.00  0.00     0.041 A 
ATOM      6  C6  06T d   1       7.257  12.460  24.167  0.00  0.00     0.162 C 
ATOM      7  O1  06T d   1       8.402  12.016  24.097  0.00  0.00    -0.292 OA
ATOM      8  C7  06T d   1       6.998  13.876  24.677  0.00  0.00     0.002 C 
ATOM      9  C8  06T d   1       5.695  14.027  25.491  0.00  0.00    -0.036 C 
ATOM     10  C9  06T d   1       4.480  13.422  24.758  0.00  0.00    -0.019 C 
ATOM     11  C12 06T d   1       2.548  11.073  24.393  0.00  0.00     0.041 A 
ATOM     12  C13 06T d   1       1.747  11.988  23.722  0.00  0.00    -0.056 A 
ATOM     13  C14 06T d   1       0.369  11.984  23.966  0.00  0.00    -0.063 A 
ATOM     14  C15 06T d   1      -0.207  11.079  24.880  0.00  0.00     0.058 A 
ATOM     15  C16 06T d   1       0.609  10.161  25.549  0.00  0.00     0.046 A 
ATOM     16  C17 06T d   1       2.001  10.197  25.314  0.00  0.00    -0.030 A 
ATOM     17  N2  06T d   1       0.129   9.245  26.459  0.00  0.00    -0.384 N 
ATOM     18  C18 06T d   1       0.849   8.040  26.820  0.00  0.00     0.011 C 
ATOM     19  C19 06T d   1       1.246   7.203  25.571  0.00  0.00    -0.023 C 
ATOM     20  C20 06T d   1       2.433   6.260  25.863  0.00  0.00     0.003 C 
ATOM     21  N3  06T d   1       3.464   6.355  24.810  0.00  0.00    -0.350 N 
ATOM     22  C21 06T d   1       4.250   7.601  24.753  0.00  0.00     0.003 C 
ATOM     23  C22 06T d   1       4.051   8.496  23.522  0.00  0.00    -0.011 C 
ATOM     24  C23 06T d   1       3.700   5.348  23.920  0.00  0.00     0.250 C 
ATOM     25  O2  06T d   1       4.557   5.456  23.032  0.00  0.00    -0.271 OA
ATOM     26  H4  06T d   1       6.943  14.550  23.810  0.00  0.00     0.046 H 
ATOM     27  H5  06T d   1       7.841  14.171  25.318  0.00  0.00     0.046 H 
ATOM     28  H6  06T d   1       3.612  13.404  25.433  0.00  0.00     0.043 H 
ATOM     29  H7  06T d   1       4.243  14.029  23.872  0.00  0.00     0.043 H 
ATOM     30  H14 06T d   1       2.181  12.693  23.022  0.00  0.00     0.087 H 
ATOM     31  H15 06T d   1      -0.267  12.689  23.443  0.00  0.00     0.085 H 
ATOM     32  H16 06T d   1       2.652   9.527  25.864  0.00  0.00     0.090 H 
ATOM     33  H17 06T d   1      -0.783   9.425  26.903  0.00  0.00     0.160 HD
ATOM     34  H18 06T d   1       1.795   8.351  27.286  0.00  0.00     0.072 H 
ATOM     35  H19 06T d   1       1.593   7.922  24.814  0.00  0.00     0.045 H 
ATOM     36  H20 06T d   1       2.065   5.225  25.912  0.00  0.00     0.065 H 
ATOM     37  H21 06T d   1       2.881   6.536  26.829  0.00  0.00     0.065 H 
ATOM     38  H22 06T d   1       5.314   7.324  24.793  0.00  0.00     0.065 H 
ATOM     39  H23 06T d   1       3.992   8.197  25.641  0.00  0.00     0.065 H 
ATOM     40  H24 06T d   1       4.531   8.032  22.648  0.00  0.00     0.044 H 
ATOM     41  H25 06T d   1       2.976   8.620  23.327  0.00  0.00     0.044 H 
ENDROOT
BRANCH  24  42
ATOM     42  C24 06T d   1       2.905   4.057  23.990  0.00  0.00     0.172 C 
ATOM     43  H26 06T d   1       1.851   4.252  24.239  0.00  0.00     0.098 H 
BRANCH  42  44
ATOM     44  C25 06T d   1       3.535   3.128  25.009  0.00  0.00    -0.042 C 
ATOM     45  H27 06T d   1       2.958   2.193  25.059  0.00  0.00     0.030 H 
ATOM     46  H28 06T d   1       3.534   3.612  25.997  0.00  0.00     0.030 H 
ATOM     47  H29 06T d   1       4.570   2.905  24.711  0.00  0.00     0.030 H 
ENDBRANCH  42  44
BRANCH  42  48
ATOM     48  N4  06T d   1       3.043   3.421  22.637  0.00  0.00    -0.067 N 
ATOM     49  H30 06T d   1       2.631   4.021  21.940  0.00  0.00     0.275 HD
ATOM     50  H31 06T d   1       2.571   2.530  22.635  0.00  0.00     0.275 HD
ATOM     51  H32 06T d   1       4.020   3.285  22.428  0.00  0.00     0.275 HD
ENDBRANCH  42  48
ENDBRANCH  24  42
BRANCH  19  52
ATOM     52  C26 06T d   1       0.072   6.453  24.947  0.00  0.00    -0.070 C 
ATOM     53  H33 06T d   1      -0.751   7.156  24.754  0.00  0.00     0.028 H 
ATOM     54  H34 06T d   1      -0.270   5.668  25.637  0.00  0.00     0.028 H 
ATOM     55  H35 06T d   1       0.392   5.994  24.000  0.00  0.00     0.028 H 
ENDBRANCH  19  52
BRANCH  18  56
ATOM     56  C27 06T d   1       0.053   7.300  27.902  0.00  0.00    -0.057 C 
ATOM     57  H36 06T d   1       0.588   6.382  28.187  0.00  0.00     0.030 H 
ATOM     58  H37 06T d   1      -0.942   7.039  27.512  0.00  0.00     0.030 H 
ATOM     59  H38 06T d   1      -0.058   7.948  28.784  0.00  0.00     0.030 H 
ENDBRANCH  18  56
BRANCH   1  60
ATOM     60  C1  06T d   1       7.167   9.341  23.328  0.00  0.00    -0.048 C 
ATOM     61  H1  06T d   1       6.809   8.325  23.108  0.00  0.00     0.033 H 
ATOM     62  H2  06T d   1       7.886   9.304  24.160  0.00  0.00     0.033 H 
ATOM     63  H3  06T d   1       7.659   9.758  22.437  0.00  0.00     0.033 H 
ENDBRANCH   1  60
BRANCH  14  64
ATOM     64  C28 06T d   1      -1.686  11.113  25.159  0.00  0.00     0.251 C 
ATOM     65  O3  06T d   1      -2.186  10.657  26.200  0.00  0.00    -0.268 OA
ATOM     66  N5  06T d   1      -2.451  11.720  24.235  0.00  0.00    -0.366 N 
ATOM     67  H39 06T d   1      -3.441  11.775  24.363  0.00  0.00     0.159 HD
ATOM     68  H40 06T d   1      -2.030  12.117  23.419  0.00  0.00     0.159 HD
ENDBRANCH  14  64
BRANCH   9  69
ATOM     69  C10 06T d   1       5.884  13.324  26.853  0.00  0.00    -0.069 C 
ATOM     70  H8  06T d   1       6.751  13.758  27.372  0.00  0.00     0.028 H 
ATOM     71  H9  06T d   1       6.054  12.249  26.691  0.00  0.00     0.028 H 
ATOM     72  H10 06T d   1       4.981  13.464  27.466  0.00  0.00     0.028 H 
ENDBRANCH   9  69
BRANCH   9  73
ATOM     73  C11 06T d   1       5.430  15.510  25.762  0.00  0.00    -0.069 C 
ATOM     74  H11 06T d   1       5.291  16.038  24.807  0.00  0.00     0.028 H 
ATOM     75  H12 06T d   1       6.287  15.943  26.299  0.00  0.00     0.028 H 
ATOM     76  H13 06T d   1       4.522  15.614  26.374  0.00  0.00     0.028 H 
ENDBRANCH   9  73
TORSDOF 9
