REMARK  7 active torsions:
REMARK  status: ('A' for Active; 'I' for Inactive)
REMARK    1  A    between atoms: P_1  and  O5'_5 
REMARK    2  A    between atoms: O5'_5  and  C5'_6 
REMARK    3  A    between atoms: C5'_6  and  C4'_7 
REMARK    4  A    between atoms: C3'_9  and  O3'_10 
REMARK    5  A    between atoms: C2'_11  and  O2'_12 
REMARK    6  A    between atoms: C1'_13  and  N9_14 
REMARK    7  A    between atoms: C2_21  and  N2_22 
ROOT
ATOM      1  C4' 5GP d   1     -27.005   8.977   5.042  0.00  0.00     0.089 C 
ATOM      2  O4' 5GP d   1     -26.217   9.260   3.843  0.00  0.00    -0.353 OA
ATOM      3  C3' 5GP d   1     -26.867   7.460   5.147  0.00  0.00     0.091 C 
ATOM      4  C2' 5GP d   1     -27.042   7.041   3.687  0.00  0.00     0.105 C 
ATOM      5  C1' 5GP d   1     -26.158   8.084   3.018  0.00  0.00     0.139 C 
ATOM      6  H3  5GP d   1     -28.063   9.248   4.907  0.00  0.00     0.090 H 
ATOM      7  H4  5GP d   1     -25.890   7.154   5.548  0.00  0.00     0.091 H 
ATOM      8  H6  5GP d   1     -26.712   6.008   3.504  0.00  0.00     0.093 H 
ATOM      9  H8  5GP d   1     -26.529   8.318   2.009  0.00  0.00     0.122 H 
ENDROOT
BRANCH   5  10
ATOM     10  N9  5GP d   1     -24.793   7.533   2.924  0.00  0.00    -0.295 N 
ATOM     11  C8  5GP d   1     -23.841   7.491   3.864  0.00  0.00     0.071 A 
ATOM     12  N7  5GP d   1     -22.746   6.902   3.357  0.00  0.00    -0.234 NA
ATOM     13  H9  5GP d   1     -23.939   7.874   4.879  0.00  0.00     0.144 H 
ATOM     14  C5  5GP d   1     -23.014   6.556   2.095  0.00  0.00     0.171 A 
ATOM     15  C6  5GP d   1     -22.288   5.921   1.091  0.00  0.00     0.292 A 
ATOM     16  C4  5GP d   1     -24.311   6.965   1.827  0.00  0.00     0.161 A 
ATOM     17  O6  5GP d   1     -21.126   5.556   1.275  0.00  0.00    -0.265 OA
ATOM     18  N1  5GP d   1     -22.891   5.723  -0.152  0.00  0.00    -0.154 N 
ATOM     19  C2  5GP d   1     -24.207   6.155  -0.353  0.00  0.00     0.680 A 
ATOM     20  H10 5GP d   1     -22.388   5.277  -0.892  0.00  0.00     0.187 HD
ATOM     21  N3  5GP d   1     -24.879   6.757   0.635  0.00  0.00    -0.174 N 
ATOM     22  H13 5GP d   1     -25.849   7.065   0.475  0.00  0.00     0.186 HD
BRANCH  19  23
ATOM     23  N2  5GP d   1     -24.803   5.986  -1.526  0.00  0.00    -0.234 N 
ATOM     24  H11 5GP d   1     -25.772   6.308  -1.663  0.00  0.00     0.174 HD
ATOM     25  H12 5GP d   1     -24.297   5.533  -2.300  0.00  0.00     0.174 HD
ENDBRANCH  19  23
ENDBRANCH   5  10
BRANCH   4  26
ATOM     26  O2' 5GP d   1     -28.395   7.238   3.221  0.00  0.00    -0.388 OA
ATOM     27  H7  5GP d   1     -28.990   6.720   3.751  0.00  0.00     0.210 HD
ENDBRANCH   4  26
BRANCH   1  28
ATOM     28  C5' 5GP d   1     -26.423   9.817   6.215  0.00  0.00     0.059 C 
ATOM     29  H1  5GP d   1     -26.633  10.883   6.044  0.00  0.00     0.079 H 
ATOM     30  H2  5GP d   1     -26.886   9.499   7.161  0.00  0.00     0.079 H 
BRANCH  28  31
ATOM     31  O5' 5GP d   1     -25.007   9.611   6.280  0.00  0.00    -0.280 OA
BRANCH  31  32
ATOM     32  P   5GP d   1     -24.077  10.565   7.186  0.00  0.00     0.422 P 
ATOM     33  O1P 5GP d   1     -22.710   9.954   7.274  0.00  0.00    -0.617 OA
ATOM     34  O2P 5GP d   1     -24.792  10.737   8.611  0.00  0.00    -0.617 OA
ATOM     35  O3P 5GP d   1     -23.989  11.963   6.488  0.00  0.00    -0.617 OA
ENDBRANCH  31  32
ENDBRANCH  28  31
ENDBRANCH   1  28
BRANCH   3  36
ATOM     36  O3' 5GP d   1     -27.909   6.956   5.952  0.00  0.00    -0.390 OA
ATOM     37  H5  5GP d   1     -28.746   7.175   5.559  0.00  0.00     0.210 HD
ENDBRANCH   3  36
TORSDOF 7
