REMARK  7 active torsions:
REMARK  status: ('A' for Active; 'I' for Inactive)
REMARK    1  A    between atoms: P_1  and  O5'_5 
REMARK    2  A    between atoms: O5'_5  and  C5'_6 
REMARK    3  A    between atoms: C5'_6  and  C4'_7 
REMARK    4  A    between atoms: C3'_9  and  O3'_10 
REMARK    5  A    between atoms: C2'_11  and  O2'_12 
REMARK    6  A    between atoms: C1'_13  and  N9_14 
REMARK    7  A    between atoms: C2_21  and  N2_22 
ROOT
ATOM      1  C4' 5GP d   1     -26.762   9.925   5.038  0.00  0.00     0.089 C 
ATOM      2  O4' 5GP d   1     -25.929  10.205   3.895  0.00  0.00    -0.353 OA
ATOM      3  C3' 5GP d   1     -26.668   8.410   5.163  0.00  0.00     0.091 C 
ATOM      4  C2' 5GP d   1     -26.817   8.000   3.700  0.00  0.00     0.105 C 
ATOM      5  C1' 5GP d   1     -25.981   9.085   3.001  0.00  0.00     0.139 C 
ATOM      6  H3  5GP d   1     -27.807  10.223   4.865  0.00  0.00     0.090 H 
ATOM      7  H4  5GP d   1     -25.697   8.094   5.571  0.00  0.00     0.091 H 
ATOM      8  H6  5GP d   1     -26.443   6.983   3.512  0.00  0.00     0.093 H 
ATOM      9  H8  5GP d   1     -26.442   9.373   2.045  0.00  0.00     0.122 H 
ENDROOT
BRANCH   5  10
ATOM     10  N9  5GP d   1     -24.599   8.573   2.771  0.00  0.00    -0.295 N 
ATOM     11  C8  5GP d   1     -23.565   8.524   3.631  0.00  0.00     0.071 A 
ATOM     12  N7  5GP d   1     -22.522   7.969   3.024  0.00  0.00    -0.234 NA
ATOM     13  H9  5GP d   1     -23.581   8.882   4.659  0.00  0.00     0.144 H 
ATOM     14  C5  5GP d   1     -22.884   7.649   1.783  0.00  0.00     0.171 A 
ATOM     15  C6  5GP d   1     -22.228   7.049   0.711  0.00  0.00     0.292 A 
ATOM     16  C4  5GP d   1     -24.210   8.035   1.626  0.00  0.00     0.161 A 
ATOM     17  O6  5GP d   1     -21.052   6.680   0.757  0.00  0.00    -0.265 OA
ATOM     18  N1  5GP d   1     -22.931   6.880  -0.472  0.00  0.00    -0.154 N 
ATOM     19  C2  5GP d   1     -24.268   7.283  -0.574  0.00  0.00     0.680 A 
ATOM     20  H10 5GP d   1     -22.478   6.466  -1.261  0.00  0.00     0.187 HD
ATOM     21  N3  5GP d   1     -24.883   7.860   0.469  0.00  0.00    -0.174 N 
ATOM     22  H13 5GP d   1     -25.863   8.168   0.388  0.00  0.00     0.186 HD
BRANCH  19  23
ATOM     23  N2  5GP d   1     -24.913   7.098  -1.720  0.00  0.00    -0.234 N 
ATOM     24  H11 5GP d   1     -25.897   7.389  -1.810  0.00  0.00     0.174 HD
ATOM     25  H12 5GP d   1     -24.429   6.663  -2.519  0.00  0.00     0.174 HD
ENDBRANCH  19  23
ENDBRANCH   5  10
BRANCH   4  26
ATOM     26  O2' 5GP d   1     -28.176   8.137   3.258  0.00  0.00    -0.388 OA
ATOM     27  H7  5GP d   1     -28.737   7.583   3.787  0.00  0.00     0.210 HD
ENDBRANCH   4  26
BRANCH   1  28
ATOM     28  C5' 5GP d   1     -26.202  10.726   6.202  0.00  0.00     0.059 C 
ATOM     29  H1  5GP d   1     -26.292  11.799   5.977  0.00  0.00     0.079 H 
ATOM     30  H2  5GP d   1     -26.778  10.492   7.110  0.00  0.00     0.079 H 
BRANCH  28  31
ATOM     31  O5' 5GP d   1     -24.812  10.405   6.428  0.00  0.00    -0.280 OA
BRANCH  31  32
ATOM     32  P   5GP d   1     -23.872  11.358   7.300  0.00  0.00     0.422 P 
ATOM     33  O1P 5GP d   1     -22.507  10.801   7.383  0.00  0.00    -0.617 OA
ATOM     34  O2P 5GP d   1     -24.590  11.600   8.731  0.00  0.00    -0.617 OA
ATOM     35  O3P 5GP d   1     -23.835  12.772   6.623  0.00  0.00    -0.617 OA
ENDBRANCH  31  32
ENDBRANCH  28  31
ENDBRANCH   1  28
BRANCH   3  36
ATOM     36  O3' 5GP d   1     -27.726   7.897   5.996  0.00  0.00    -0.390 OA
ATOM     37  H5  5GP d   1     -28.566   8.121   5.613  0.00  0.00     0.210 HD
ENDBRANCH   3  36
TORSDOF 7
