REMARK WARNING: 32 MAX_TORS EXCEEDED!!!
REMARK  34 active torsions:
REMARK  status: ('A' for Active; 'I' for Inactive)
REMARK    1  A    between atoms: N_1  and  CA_2 
REMARK    2  A    between atoms: CA_2  and  C_3 
REMARK    3  A    between atoms: CA_2  and  CB_5 
REMARK       I    between atoms: C_3  and  N_7 
REMARK    4  A    between atoms: CB_5  and  OG_6 
REMARK    5  A    between atoms: N_7  and  CA_8 
REMARK    6  A    between atoms: CA_8  and  C_9 
REMARK    7  A    between atoms: CA_8  and  CB_11 
REMARK       I    between atoms: C_9  and  N_19 
REMARK    8  A    between atoms: CB_11  and  CG_12 
REMARK    9  A    between atoms: CZ_17  and  OH_18 
REMARK   10  A    between atoms: N_19  and  CA_20 
REMARK   11  A    between atoms: CA_20  and  C_21 
REMARK   12  A    between atoms: CA_20  and  CB_23 
REMARK       I    between atoms: C_21  and  N_27 
REMARK   13  A    between atoms: CB_23  and  CG_24 
REMARK   14  A    between atoms: CG_24  and  CD1_25 
REMARK   15  A    between atoms: CG_24  and  CD2_26 
REMARK   16  A    between atoms: N_27  and  CA_28 
REMARK   17  A    between atoms: CA_28  and  C_29 
REMARK   18  A    between atoms: CA_28  and  CB_31 
REMARK       I    between atoms: C_29  and  N_34 
REMARK   19  A    between atoms: CB_31  and  CG1_32 
REMARK   20  A    between atoms: CB_31  and  CG2_33 
REMARK   21  A    between atoms: N_34  and  CA_35 
REMARK   22  A    between atoms: CA_35  and  C_36 
REMARK   23  A    between atoms: CA_35  and  CB_38 
REMARK       I    between atoms: C_36  and  N_41 
REMARK   24  A    between atoms: CB_38  and  OG1_39 
REMARK   25  A    between atoms: CB_38  and  CG2_40 
REMARK   26  A    between atoms: N_41  and  CA_42 
REMARK   27  A    between atoms: CA_42  and  C_43 
REMARK   28  A    between atoms: CA_42  and  CB_45 
REMARK       I    between atoms: C_43  and  N_47 
REMARK   29  A    between atoms: CB_45  and  OG_46 
REMARK   30  A    between atoms: N_47  and  CA_48 
REMARK   31  A    between atoms: CA_48  and  C_49 
REMARK   32  A    between atoms: CA_48  and  CB_51 
REMARK   33  A    between atoms: CB_51  and  CG1_52 
REMARK   34  A    between atoms: CB_51  and  CG2_53 
ROOT
ATOM      1  CA  VAL d   1      50.185  -4.221  24.312  0.00  0.00     0.092 C 
ATOM      2  H   VAL d   1      49.865  -4.652  23.363  0.00  0.00     0.088 H 
ENDROOT
BRANCH   1   3
ATOM      3  N   VAL d   1      49.370  -3.037  24.570  0.00  0.00    -0.346 N 
ATOM      4  C   LEU d   1      48.482  -2.576  23.693  0.00  0.00     0.241 C 
ATOM      5  O   LEU d   1      48.307  -3.079  22.582  0.00  0.00    -0.271 OA
ATOM      6  H   VAL d   1      49.486  -2.545  25.456  0.00  0.00     0.163 HD
BRANCH   4   7
ATOM      7  CA  LEU d   1      47.683  -1.353  24.134  0.00  0.00     0.089 C 
ATOM      8  H   LEU d   1      48.008  -1.096  25.142  0.00  0.00     0.087 H 
BRANCH   7   9
ATOM      9  N   LEU d   1      47.944  -0.209  23.269  0.00  0.00    -0.346 N 
ATOM     10  C   TYR d   1      48.587   0.869  23.712  0.00  0.00     0.241 C 
ATOM     11  O   TYR d   1      49.034   0.962  24.859  0.00  0.00    -0.271 OA
ATOM     12  H   LEU d   1      47.626  -0.235  22.300  0.00  0.00     0.163 HD
BRANCH  10  13
ATOM     13  CA  TYR d   1      48.759   2.018  22.718  0.00  0.00     0.093 C 
ATOM     14  H   TYR d   1      49.618   2.590  23.068  0.00  0.00     0.088 H 
BRANCH  13  15
ATOM     15  N   TYR d   1      49.102   1.595  21.355  0.00  0.00    -0.346 N 
ATOM     16  C   SER d   1      50.138   0.803  21.080  0.00  0.00     0.251 C 
ATOM     17  O   SER d   1      50.841   0.279  21.949  0.00  0.00    -0.271 OA
ATOM     18  H   TYR d   1      48.521   1.922  20.583  0.00  0.00     0.163 HD
BRANCH  16  19
ATOM     19  CA  SER d   1      50.412   0.555  19.596  0.00  0.00     0.195 C 
ATOM     20  H   SER d   1      49.526   0.086  19.168  0.00  0.00     0.102 H 
BRANCH  19  21
ATOM     21  N   SER d   1      50.658   1.839  18.882  0.00  0.00    -0.064 N 
ATOM     22  H   SER d   1      49.861   2.461  19.019  0.00  0.00     0.275 HD
ATOM     23  H   SER d   1      51.501   2.277  19.253  0.00  0.00     0.275 HD
ATOM     24  H   SER d   1      50.779   1.655  17.886  0.00  0.00     0.275 HD
ENDBRANCH  19  21
BRANCH  19  25
ATOM     25  CB  SER d   1      51.597  -0.400  19.405  0.00  0.00     0.051 C 
ATOM     26  H   SER d   1      51.849  -0.428  18.345  0.00  0.00     0.077 H 
ATOM     27  H   SER d   1      51.309  -1.384  19.775  0.00  0.00     0.077 H 
BRANCH  25  28
ATOM     28  OG  SER d   1      52.739   0.034  20.126  0.00  0.00    -0.398 OA
ATOM     29  H   SER d   1      52.529   0.074  21.062  0.00  0.00     0.209 HD
ENDBRANCH  25  28
ENDBRANCH  19  25
ENDBRANCH  16  19
ENDBRANCH  13  15
BRANCH  13  30
ATOM     30  CB  TYR d   1      47.504   2.904  22.711  0.00  0.00    -0.014 C 
ATOM     31  H   TYR d   1      46.747   2.386  22.122  0.00  0.00     0.043 H 
ATOM     32  H   TYR d   1      47.796   3.873  22.307  0.00  0.00     0.043 H 
BRANCH  30  33
ATOM     33  CG  TYR d   1      46.912   3.151  24.086  0.00  0.00    -0.056 A 
ATOM     34  CD1 TYR d   1      47.608   3.889  25.047  0.00  0.00    -0.074 A 
ATOM     35  CE1 TYR d   1      47.070   4.110  26.311  0.00  0.00    -0.051 A 
ATOM     36  H   TYR d   1      48.588   4.298  24.802  0.00  0.00     0.084 H 
ATOM     37  CZ  TYR d   1      45.822   3.596  26.623  0.00  0.00     0.065 A 
ATOM     38  H   TYR d   1      47.627   4.684  27.051  0.00  0.00     0.087 H 
ATOM     39  CE2 TYR d   1      45.110   2.862  25.687  0.00  0.00    -0.051 A 
ATOM     40  CD2 TYR d   1      45.658   2.643  24.425  0.00  0.00    -0.074 A 
ATOM     41  H   TYR d   1      44.128   2.459  25.937  0.00  0.00     0.087 H 
ATOM     42  H   TYR d   1      45.097   2.065  23.690  0.00  0.00     0.084 H 
BRANCH  37  43
ATOM     43  OH  TYR d   1      45.284   3.818  27.872  0.00  0.00    -0.361 OA
ATOM     44  H   TYR d   1      45.898   4.338  28.396  0.00  0.00     0.217 HD
ENDBRANCH  37  43
ENDBRANCH  30  33
ENDBRANCH  13  30
ENDBRANCH  10  13
ENDBRANCH   7   9
BRANCH   7  45
ATOM     45  CB  LEU d   1      46.182  -1.663  24.172  0.00  0.00    -0.035 C 
ATOM     46  H   LEU d   1      45.988  -2.234  23.264  0.00  0.00     0.037 H 
ATOM     47  H   LEU d   1      45.697  -0.695  24.297  0.00  0.00     0.037 H 
BRANCH  45  48
ATOM     48  CG  LEU d   1      45.636  -2.531  25.311  0.00  0.00    -0.059 C 
ATOM     49  H   LEU d   1      46.238  -3.438  25.358  0.00  0.00     0.038 H 
BRANCH  48  50
ATOM     50  CD1 LEU d   1      45.756  -1.827  26.664  0.00  0.00    -0.073 C 
ATOM     51  H   LEU d   1      46.805  -1.611  26.868  0.00  0.00     0.028 H 
ATOM     52  H   LEU d   1      45.190  -0.896  26.639  0.00  0.00     0.028 H 
ATOM     53  H   LEU d   1      45.358  -2.474  27.445  0.00  0.00     0.028 H 
ENDBRANCH  48  50
BRANCH  48  54
ATOM     54  CD2 LEU d   1      44.184  -2.909  25.034  0.00  0.00    -0.073 C 
ATOM     55  H   LEU d   1      43.583  -2.003  24.955  0.00  0.00     0.028 H 
ATOM     56  H   LEU d   1      44.127  -3.467  24.100  0.00  0.00     0.028 H 
ATOM     57  H   LEU d   1      43.808  -3.526  25.851  0.00  0.00     0.028 H 
ENDBRANCH  48  54
ENDBRANCH  45  48
ENDBRANCH   7  45
ENDBRANCH   4   7
ENDBRANCH   1   3
BRANCH   1  58
ATOM     58  C   VAL d   1      49.985  -5.223  25.445  0.00  0.00     0.241 C 
ATOM     59  O   VAL d   1      50.389  -4.969  26.582  0.00  0.00    -0.271 OA
ATOM     60  N   THR d   1      49.353  -6.352  25.132  0.00  0.00    -0.344 N 
ATOM     61  H   THR d   1      49.057  -6.505  24.168  0.00  0.00     0.163 HD
BRANCH  60  62
ATOM     62  CA  THR d   1      49.072  -7.380  26.136  0.00  0.00     0.113 C 
ATOM     63  H   THR d   1      49.238  -6.924  27.112  0.00  0.00     0.091 H 
BRANCH  62  64
ATOM     64  C   THR d   1      50.019  -8.569  25.992  0.00  0.00     0.243 C 
ATOM     65  O   THR d   1      50.172  -9.125  24.900  0.00  0.00    -0.271 OA
ATOM     66  N   SER d   1      50.654  -8.944  27.101  0.00  0.00    -0.344 N 
ATOM     67  H   SER d   1      50.482  -8.431  27.966  0.00  0.00     0.163 HD
BRANCH  66  68
ATOM     68  CA  SER d   1      51.589 -10.067  27.119  0.00  0.00     0.109 C 
ATOM     69  H   SER d   1      52.119 -10.077  26.167  0.00  0.00     0.090 H 
BRANCH  68  70
ATOM     70  C   SER d   1      50.846 -11.392  27.263  0.00  0.00     0.243 C 
ATOM     71  O   SER d   1      50.000 -11.544  28.148  0.00  0.00    -0.271 OA
ATOM     72  N   VAL d   1      51.164 -12.342  26.385  0.00  0.00    -0.344 N 
ATOM     73  H   VAL d   1      51.893 -12.155  25.697  0.00  0.00     0.163 HD
BRANCH  72  74
ATOM     74  CA  VAL d   1      50.498 -13.649  26.378  0.00  0.00     0.099 C 
ATOM     75  H   VAL d   1      49.803 -13.623  27.217  0.00  0.00     0.090 H 
BRANCH  74  76
ATOM     76  C   VAL d   1      51.471 -14.814  26.620  0.00  0.00     0.197 C 
ATOM     77  O   VAL d   1      51.056 -15.942  26.898  0.00  0.00    -0.646 OA
ATOM     78  OXT VAL d   1      52.693 -14.667  26.549  0.00  0.00    -0.646 OA
ENDBRANCH  74  76
BRANCH  74  79
ATOM     79  CB  VAL d   1      49.667 -13.890  25.074  0.00  0.00    -0.032 C 
ATOM     80  H   VAL d   1      49.049 -14.772  25.241  0.00  0.00     0.042 H 
BRANCH  79  81
ATOM     81  CG1 VAL d   1      48.737 -12.706  24.781  0.00  0.00    -0.071 C 
ATOM     82  H   VAL d   1      48.047 -12.573  25.614  0.00  0.00     0.028 H 
ATOM     83  H   VAL d   1      49.332 -11.802  24.652  0.00  0.00     0.028 H 
ATOM     84  H   VAL d   1      48.174 -12.905  23.869  0.00  0.00     0.028 H 
ENDBRANCH  79  81
BRANCH  79  85
ATOM     85  CG2 VAL d   1      50.574 -14.171  23.881  0.00  0.00    -0.071 C 
ATOM     86  H   VAL d   1      51.234 -13.319  23.719  0.00  0.00     0.028 H 
ATOM     87  H   VAL d   1      51.171 -15.061  24.081  0.00  0.00     0.028 H 
ATOM     88  H   VAL d   1      49.964 -14.334  22.993  0.00  0.00     0.028 H 
ENDBRANCH  79  85
ENDBRANCH  74  79
ENDBRANCH  72  74
ENDBRANCH  68  70
BRANCH  68  89
ATOM     89  CB  SER d   1      52.623  -9.901  28.239  0.00  0.00     0.044 C 
ATOM     90  H   SER d   1      52.947  -8.860  28.257  0.00  0.00     0.077 H 
ATOM     91  H   SER d   1      53.455 -10.577  28.042  0.00  0.00     0.077 H 
BRANCH  89  92
ATOM     92  OG  SER d   1      52.074 -10.223  29.511  0.00  0.00    -0.398 OA
ATOM     93  H   SER d   1      51.774 -11.135  29.507  0.00  0.00     0.209 HD
ENDBRANCH  89  92
ENDBRANCH  68  89
ENDBRANCH  66  68
ENDBRANCH  62  64
BRANCH  62  94
ATOM     94  CB  THR d   1      47.601  -7.853  26.076  0.00  0.00     0.060 C 
ATOM     95  H   THR d   1      47.446  -8.356  25.122  0.00  0.00     0.086 H 
BRANCH  94  96
ATOM     96  OG1 THR d   1      46.726  -6.723  26.186  0.00  0.00    -0.393 OA
ATOM     97  H   THR d   1      46.896  -6.117  25.462  0.00  0.00     0.210 HD
ENDBRANCH  94  96
BRANCH  94  98
ATOM     98  CG2 THR d   1      47.292  -8.839  27.203  0.00  0.00    -0.050 C 
ATOM     99  H   THR d   1      47.942  -9.709  27.111  0.00  0.00     0.031 H 
ATOM    100  H   THR d   1      47.464  -8.355  28.165  0.00  0.00     0.031 H 
ATOM    101  H   THR d   1      46.251  -9.153  27.134  0.00  0.00     0.031 H 
ENDBRANCH  94  98
ENDBRANCH  62  94
ENDBRANCH  60  62
ENDBRANCH   1  58
BRANCH   1 102
ATOM    102  CB  VAL d   1      51.691  -3.872  24.181  0.00  0.00    -0.033 C 
ATOM    103  H   VAL d   1      52.050  -3.561  25.162  0.00  0.00     0.042 H 
BRANCH 102 104
ATOM    104  CG1 VAL d   1      52.487  -5.090  23.737  0.00  0.00    -0.071 C 
ATOM    105  H   VAL d   1      52.371  -5.886  24.473  0.00  0.00     0.028 H 
ATOM    106  H   VAL d   1      52.118  -5.431  22.770  0.00  0.00     0.028 H 
ATOM    107  H   VAL d   1      53.540  -4.823  23.652  0.00  0.00     0.028 H 
ENDBRANCH 102 104
BRANCH 102 108
ATOM    108  CG2 VAL d   1      51.900  -2.718  23.206  0.00  0.00    -0.071 C 
ATOM    109  H   VAL d   1      51.519  -3.000  22.225  0.00  0.00     0.028 H 
ATOM    110  H   VAL d   1      51.366  -1.839  23.566  0.00  0.00     0.028 H 
ATOM    111  H   VAL d   1      52.964  -2.494  23.133  0.00  0.00     0.028 H 
ENDBRANCH 102 108
ENDBRANCH   1 102
TORSDOF 34
