REMARK  30 active torsions:
REMARK  status: ('A' for Active; 'I' for Inactive)
REMARK    1  A    between atoms: N_1  and  CA_2 
REMARK    2  A    between atoms: CA_2  and  C_3 
REMARK    3  A    between atoms: CA_2  and  CB_5 
REMARK       I    between atoms: C_3  and  N_13 
REMARK    4  A    between atoms: CB_5  and  CG_6 
REMARK    5  A    between atoms: CZ_11  and  OH_12 
REMARK    6  A    between atoms: N_13  and  CA_14 
REMARK    7  A    between atoms: CA_14  and  C_15 
REMARK    8  A    between atoms: CA_14  and  CB_17 
REMARK       I    between atoms: C_15  and  N_21 
REMARK    9  A    between atoms: CB_17  and  CG_18 
REMARK   10  A    between atoms: CG_18  and  CD1_19 
REMARK   11  A    between atoms: CG_18  and  CD2_20 
REMARK   12  A    between atoms: N_21  and  CA_22 
REMARK   13  A    between atoms: CA_22  and  C_23 
REMARK   14  A    between atoms: CA_22  and  CB_25 
REMARK       I    between atoms: C_23  and  N_28 
REMARK   15  A    between atoms: CB_25  and  CG1_26 
REMARK   16  A    between atoms: CB_25  and  CG2_27 
REMARK   17  A    between atoms: N_28  and  CA_29 
REMARK   18  A    between atoms: CA_29  and  C_30 
REMARK   19  A    between atoms: CA_29  and  CB_32 
REMARK       I    between atoms: C_30  and  N_35 
REMARK   20  A    between atoms: CB_32  and  OG1_33 
REMARK   21  A    between atoms: CB_32  and  CG2_34 
REMARK   22  A    between atoms: N_35  and  CA_36 
REMARK   23  A    between atoms: CA_36  and  C_37 
REMARK   24  A    between atoms: CA_36  and  CB_39 
REMARK       I    between atoms: C_37  and  N_41 
REMARK   25  A    between atoms: CB_39  and  OG_40 
REMARK   26  A    between atoms: N_41  and  CA_42 
REMARK   27  A    between atoms: CA_42  and  C_43 
REMARK   28  A    between atoms: CA_42  and  CB_45 
REMARK   29  A    between atoms: CB_45  and  CG1_46 
REMARK   30  A    between atoms: CB_45  and  CG2_47 
ROOT
ATOM      1  CA  VAL d   1      58.575  -4.374  46.985  0.00  0.00     0.092 C 
ATOM      2  H   VAL d   1      59.174  -3.756  46.316  0.00  0.00     0.088 H 
ENDROOT
BRANCH   1   3
ATOM      3  N   VAL d   1      59.519  -5.247  47.671  0.00  0.00    -0.346 N 
ATOM      4  C   LEU d   1      60.708  -4.777  48.028  0.00  0.00     0.241 C 
ATOM      5  O   LEU d   1      61.033  -3.607  47.818  0.00  0.00    -0.271 OA
ATOM      6  H   VAL d   1      59.267  -6.214  47.876  0.00  0.00     0.163 HD
BRANCH   4   7
ATOM      7  CA  LEU d   1      61.670  -5.749  48.738  0.00  0.00     0.089 C 
ATOM      8  H   LEU d   1      62.269  -5.178  49.448  0.00  0.00     0.087 H 
BRANCH   7   9
ATOM      9  N   LEU d   1      60.908  -6.765  49.466  0.00  0.00    -0.346 N 
ATOM     10  C   TYR d   1      60.801  -6.770  50.793  0.00  0.00     0.249 C 
ATOM     11  O   TYR d   1      61.526  -6.103  51.526  0.00  0.00    -0.271 OA
ATOM     12  H   LEU d   1      60.440  -7.499  48.935  0.00  0.00     0.163 HD
BRANCH  10  13
ATOM     13  CA  TYR d   1      59.719  -7.677  51.388  0.00  0.00     0.179 C 
ATOM     14  H   TYR d   1      59.630  -7.436  52.447  0.00  0.00     0.099 H 
BRANCH  13  15
ATOM     15  N   TYR d   1      58.373  -7.422  50.761  0.00  0.00    -0.066 N 
ATOM     16  H   TYR d   1      58.136  -6.435  50.858  0.00  0.00     0.275 HD
ATOM     17  H   TYR d   1      58.408  -7.669  49.772  0.00  0.00     0.275 HD
ATOM     18  H   TYR d   1      57.668  -7.990  51.230  0.00  0.00     0.275 HD
ENDBRANCH  13  15
BRANCH  13  19
ATOM     19  CB  TYR d   1      60.119  -9.147  51.267  0.00  0.00    -0.006 C 
ATOM     20  H   TYR d   1      61.175  -9.162  50.998  0.00  0.00     0.043 H 
ATOM     21  H   TYR d   1      59.447  -9.595  50.535  0.00  0.00     0.043 H 
BRANCH  19  22
ATOM     22  CG  TYR d   1      59.982  -9.961  52.539  0.00  0.00    -0.056 A 
ATOM     23  CD1 TYR d   1      60.263  -9.403  53.789  0.00  0.00    -0.074 A 
ATOM     24  CE1 TYR d   1      60.151 -10.157  54.956  0.00  0.00    -0.051 A 
ATOM     25  H   TYR d   1      60.575  -8.361  53.852  0.00  0.00     0.084 H 
ATOM     26  CZ  TYR d   1      59.778 -11.494  54.879  0.00  0.00     0.065 A 
ATOM     27  H   TYR d   1      60.355  -9.700  55.925  0.00  0.00     0.087 H 
ATOM     28  CE2 TYR d   1      59.508 -12.076  53.650  0.00  0.00    -0.051 A 
ATOM     29  CD2 TYR d   1      59.615 -11.308  52.487  0.00  0.00    -0.074 A 
ATOM     30  H   TYR d   1      59.215 -13.124  53.591  0.00  0.00     0.087 H 
ATOM     31  H   TYR d   1      59.408 -11.769  51.521  0.00  0.00     0.084 H 
BRANCH  26  32
ATOM     32  OH  TYR d   1      59.671 -12.242  56.028  0.00  0.00    -0.361 OA
ATOM     33  H   TYR d   1      59.890 -11.695  56.786  0.00  0.00     0.217 HD
ENDBRANCH  26  32
ENDBRANCH  19  22
ENDBRANCH  13  19
ENDBRANCH  10  13
ENDBRANCH   7   9
BRANCH   7  34
ATOM     34  CB  LEU d   1      62.638  -6.410  47.739  0.00  0.00    -0.035 C 
ATOM     35  H   LEU d   1      61.981  -6.621  46.895  0.00  0.00     0.037 H 
ATOM     36  H   LEU d   1      63.135  -7.151  48.365  0.00  0.00     0.037 H 
BRANCH  34  37
ATOM     37  CG  LEU d   1      63.837  -5.723  47.045  0.00  0.00    -0.059 C 
ATOM     38  H   LEU d   1      64.410  -6.532  46.593  0.00  0.00     0.038 H 
BRANCH  37  39
ATOM     39  CD1 LEU d   1      63.395  -4.781  45.906  0.00  0.00    -0.073 C 
ATOM     40  H   LEU d   1      62.852  -5.353  45.154  0.00  0.00     0.028 H 
ATOM     41  H   LEU d   1      62.748  -4.003  46.310  0.00  0.00     0.028 H 
ATOM     42  H   LEU d   1      64.275  -4.324  45.452  0.00  0.00     0.028 H 
ENDBRANCH  37  39
BRANCH  37  43
ATOM     43  CD2 LEU d   1      64.791  -5.022  48.025  0.00  0.00    -0.073 C 
ATOM     44  H   LEU d   1      64.246  -4.254  48.574  0.00  0.00     0.028 H 
ATOM     45  H   LEU d   1      65.193  -5.754  48.725  0.00  0.00     0.028 H 
ATOM     46  H   LEU d   1      65.608  -4.562  47.469  0.00  0.00     0.028 H 
ENDBRANCH  37  43
ENDBRANCH  34  37
ENDBRANCH   7  34
ENDBRANCH   4   7
ENDBRANCH   1   3
BRANCH   1  47
ATOM     47  C   VAL d   1      57.857  -3.461  47.974  0.00  0.00     0.241 C 
ATOM     48  O   VAL d   1      57.530  -3.848  49.098  0.00  0.00    -0.271 OA
ATOM     49  N   THR d   1      57.656  -2.223  47.553  0.00  0.00    -0.344 N 
ATOM     50  H   THR d   1      58.066  -1.922  46.669  0.00  0.00     0.163 HD
BRANCH  49  51
ATOM     51  CA  THR d   1      56.863  -1.286  48.325  0.00  0.00     0.113 C 
ATOM     52  H   THR d   1      56.656  -1.656  49.329  0.00  0.00     0.091 H 
BRANCH  51  53
ATOM     53  C   THR d   1      55.562  -1.099  47.548  0.00  0.00     0.243 C 
ATOM     54  O   THR d   1      55.564  -0.478  46.480  0.00  0.00    -0.271 OA
ATOM     55  N   SER d   1      54.469  -1.609  48.126  0.00  0.00    -0.344 N 
ATOM     56  H   SER d   1      54.550  -1.965  49.078  0.00  0.00     0.163 HD
BRANCH  55  57
ATOM     57  CA  SER d   1      53.161  -1.685  47.469  0.00  0.00     0.109 C 
ATOM     58  H   SER d   1      53.292  -1.378  46.431  0.00  0.00     0.090 H 
BRANCH  57  59
ATOM     59  C   SER d   1      52.144  -0.723  48.093  0.00  0.00     0.243 C 
ATOM     60  O   SER d   1      51.995  -0.670  49.313  0.00  0.00    -0.271 OA
ATOM     61  N   VAL d   1      51.449   0.029  47.246  0.00  0.00    -0.344 N 
ATOM     62  H   VAL d   1      51.597  -0.101  46.245  0.00  0.00     0.163 HD
BRANCH  61  63
ATOM     63  CA  VAL d   1      50.485   1.031  47.682  0.00  0.00     0.099 C 
ATOM     64  H   VAL d   1      50.475   1.009  48.772  0.00  0.00     0.090 H 
BRANCH  63  65
ATOM     65  C   VAL d   1      49.063   0.688  47.180  0.00  0.00     0.197 C 
ATOM     66  O   VAL d   1      48.061   1.349  47.536  0.00  0.00    -0.646 OA
ATOM     67  OXT VAL d   1      48.872  -0.286  46.421  0.00  0.00    -0.646 OA
ENDBRANCH  63  65
BRANCH  63  68
ATOM     68  CB  VAL d   1      50.906   2.497  47.266  0.00  0.00    -0.032 C 
ATOM     69  H   VAL d   1      50.168   3.163  47.712  0.00  0.00     0.042 H 
BRANCH  68  70
ATOM     70  CG1 VAL d   1      52.289   2.887  47.827  0.00  0.00    -0.071 C 
ATOM     71  H   VAL d   1      52.265   2.837  48.916  0.00  0.00     0.028 H 
ATOM     72  H   VAL d   1      53.042   2.197  47.446  0.00  0.00     0.028 H 
ATOM     73  H   VAL d   1      52.533   3.902  47.514  0.00  0.00     0.028 H 
ENDBRANCH  68  70
BRANCH  68  74
ATOM     74  CG2 VAL d   1      50.864   2.695  45.762  0.00  0.00    -0.071 C 
ATOM     75  H   VAL d   1      51.550   1.995  45.285  0.00  0.00     0.028 H 
ATOM     76  H   VAL d   1      49.851   2.516  45.401  0.00  0.00     0.028 H 
ATOM     77  H   VAL d   1      51.161   3.716  45.523  0.00  0.00     0.028 H 
ENDBRANCH  68  74
ENDBRANCH  63  68
ENDBRANCH  61  63
ENDBRANCH  57  59
BRANCH  57  78
ATOM     78  CB  SER d   1      52.638  -3.130  47.506  0.00  0.00     0.044 C 
ATOM     79  H   SER d   1      52.794  -3.520  48.512  0.00  0.00     0.077 H 
ATOM     80  H   SER d   1      53.176  -3.704  46.752  0.00  0.00     0.077 H 
BRANCH  78  81
ATOM     81  OG  SER d   1      51.244  -3.209  47.211  0.00  0.00    -0.398 OA
ATOM     82  H   SER d   1      50.962  -4.126  47.245  0.00  0.00     0.209 HD
ENDBRANCH  78  81
ENDBRANCH  57  78
ENDBRANCH  55  57
ENDBRANCH  51  53
BRANCH  51  83
ATOM     83  CB  THR d   1      57.624   0.040  48.521  0.00  0.00     0.060 C 
ATOM     84  H   THR d   1      57.883   0.441  47.541  0.00  0.00     0.086 H 
BRANCH  83  85
ATOM     85  OG1 THR d   1      58.816  -0.209  49.289  0.00  0.00    -0.393 OA
ATOM     86  H   THR d   1      59.293   0.615  49.413  0.00  0.00     0.210 HD
ENDBRANCH  83  85
BRANCH  83  87
ATOM     87  CG2 THR d   1      56.758   1.065  49.248  0.00  0.00    -0.050 C 
ATOM     88  H   THR d   1      55.859   1.260  48.663  0.00  0.00     0.031 H 
ATOM     89  H   THR d   1      56.478   0.674  50.226  0.00  0.00     0.031 H 
ATOM     90  H   THR d   1      57.320   1.991  49.373  0.00  0.00     0.031 H 
ENDBRANCH  83  87
ENDBRANCH  51  83
ENDBRANCH  49  51
ENDBRANCH   1  47
BRANCH   1  91
ATOM     91  CB  VAL d   1      57.566  -5.126  46.034  0.00  0.00    -0.033 C 
ATOM     92  H   VAL d   1      56.929  -4.367  45.580  0.00  0.00     0.042 H 
BRANCH  91  93
ATOM     93  CG1 VAL d   1      58.308  -5.863  44.913  0.00  0.00    -0.071 C 
ATOM     94  H   VAL d   1      58.876  -5.145  44.322  0.00  0.00     0.028 H 
ATOM     95  H   VAL d   1      58.988  -6.595  45.349  0.00  0.00     0.028 H 
ATOM     96  H   VAL d   1      57.586  -6.372  44.274  0.00  0.00     0.028 H 
ENDBRANCH  91  93
BRANCH  91  97
ATOM     97  CG2 VAL d   1      56.661  -6.071  46.797  0.00  0.00    -0.071 C 
ATOM     98  H   VAL d   1      57.267  -6.818  47.309  0.00  0.00     0.028 H 
ATOM     99  H   VAL d   1      56.083  -5.507  47.529  0.00  0.00     0.028 H 
ATOM    100  H   VAL d   1      55.984  -6.566  46.100  0.00  0.00     0.028 H 
ENDBRANCH  91  97
ENDBRANCH   1  91
TORSDOF 30
