REMARK  5 active torsions:
REMARK  status: ('A' for Active; 'I' for Inactive)
REMARK    1  A    between atoms: C2_4  and  C1_1 
REMARK    2  A    between atoms: N1_2  and  C2_4 
REMARK       I    between atoms: C3_6  and  N1_2 
REMARK    3  A    between atoms: C4_8  and  C3_6 
REMARK    4  A    between atoms: N3_7  and  C8_13 
REMARK    5  A    between atoms: N4_9  and  C13_18 
ROOT
ATOM      1  N2  RME d   1       1.762  47.458  71.917  0.00  0.00    -0.242 NA
ATOM      2  C4  RME d   1       2.127  46.857  69.615  0.00  0.00     0.077 A 
ATOM      3  C5  RME d   1       3.328  46.223  69.987  0.00  0.00    -0.063 A 
ATOM      4  C6  RME d   1       3.735  46.209  71.316  0.00  0.00    -0.065 A 
ATOM      5  C7  RME d   1       2.923  46.837  72.236  0.00  0.00     0.004 A 
ATOM      6  C8  RME d   1       1.332  47.485  70.616  0.00  0.00     0.141 A 
ATOM      7  H8  RME d   1       3.939  45.742  69.232  0.00  0.00     0.085 H 
ATOM      8  H9  RME d   1       4.656  45.723  71.617  0.00  0.00     0.085 H 
ATOM      9  H10 RME d   1       3.231  46.834  73.275  0.00  0.00     0.114 H 
ENDROOT
BRANCH   6  10
ATOM     10  N3  RME d   1       0.111  48.144  70.328  0.00  0.00    -0.362 N 
ATOM     11  C9  RME d   1      -1.000  47.335  69.809  0.00  0.00     0.019 C 
ATOM     12  C10 RME d   1      -1.937  48.242  69.012  0.00  0.00     0.098 C 
ATOM     13  H11 RME d   1      -1.549  46.880  70.647  0.00  0.00     0.066 H 
ATOM     14  H12 RME d   1      -0.607  46.543  69.155  0.00  0.00     0.066 H 
ATOM     15  N4  RME d   1      -2.426  49.351  69.924  0.00  0.00    -0.072 N 
ATOM     16  H13 RME d   1      -1.396  48.676  68.158  0.00  0.00     0.078 H 
ATOM     17  H14 RME d   1      -2.794  47.659  68.645  0.00  0.00     0.078 H 
ATOM     18  C11 RME d   1      -1.291  50.155  70.525  0.00  0.00     0.098 C 
ATOM     19  H7  RME d   1      -2.916  48.912  70.687  0.00  0.00     0.279 HD
ATOM     20  C12 RME d   1      -0.305  49.231  71.235  0.00  0.00     0.019 C 
ATOM     21  H15 RME d   1      -1.700  50.875  71.249  0.00  0.00     0.078 H 
ATOM     22  H16 RME d   1      -0.767  50.698  69.725  0.00  0.00     0.078 H 
ATOM     23  H17 RME d   1       0.580  49.809  71.541  0.00  0.00     0.066 H 
ATOM     24  H18 RME d   1      -0.787  48.799  72.124  0.00  0.00     0.066 H 
BRANCH  15  25
ATOM     25  C13 RME d   1      -3.404  50.249  69.219  0.00  0.00     0.066 C 
ATOM     26  H19 RME d   1      -4.217  49.643  68.792  0.00  0.00     0.068 H 
ATOM     27  H20 RME d   1      -2.889  50.791  68.412  0.00  0.00     0.068 H 
ATOM     28  H21 RME d   1      -3.822  50.970  69.936  0.00  0.00     0.068 H 
ENDBRANCH  15  25
ENDBRANCH   6  10
BRANCH   2  29
ATOM     29  C3  RME d   1       1.774  46.817  68.168  0.00  0.00     0.255 C 
ATOM     30  N1  RME d   1       1.374  48.020  67.612  0.00  0.00    -0.357 N 
ATOM     31  H4  RME d   1       1.341  48.835  68.191  0.00  0.00     0.162 HD
ATOM     32  O1  RME d   1       1.861  45.755  67.555  0.00  0.00    -0.268 OA
BRANCH  30  33
ATOM     33  C2  RME d   1       1.000  48.134  66.211  0.00  0.00    -0.008 C 
ATOM     34  H5  RME d   1       1.725  47.574  65.603  0.00  0.00     0.063 H 
ATOM     35  H6  RME d   1      -0.003  47.704  66.074  0.00  0.00     0.063 H 
BRANCH  33  36
ATOM     36  C1  RME d   1       0.982  49.579  65.747  0.00  0.00    -0.061 C 
ATOM     37  H1  RME d   1       0.695  49.620  64.686  0.00  0.00     0.029 H 
ATOM     38  H2  RME d   1       1.983  50.017  65.873  0.00  0.00     0.029 H 
ATOM     39  H3  RME d   1       0.255  50.147  66.345  0.00  0.00     0.029 H 
ENDBRANCH  33  36
ENDBRANCH  30  33
ENDBRANCH   2  29
TORSDOF 5
