REMARK  7 active torsions:
REMARK  status: ('A' for Active; 'I' for Inactive)
REMARK    1  A    between atoms: N02_2  and  C07_7 
REMARK    2  A    between atoms: C08_8  and  N02_2 
REMARK    3  A    between atoms: C06_6  and  N03_3 
REMARK    4  A    between atoms: S29_29  and  N04_4 
REMARK    5  A    between atoms: C05_5  and  C09_9 
REMARK    6  A    between atoms: C09_9  and  C10_10 
REMARK    7  A    between atoms: C18_18  and  S29_29 
ROOT
ATOM      1  N01 20Z d   1      92.333  81.931 -51.081  0.00  0.00    -0.205 NA
ATOM      2  C05 20Z d   1      94.005  80.403 -50.386  0.00  0.00     0.104 A 
ATOM      3  C06 20Z d   1      93.411  81.125 -51.431  0.00  0.00     0.145 A 
ATOM      4  C07 20Z d   1      92.094  81.839 -49.792  0.00  0.00     0.174 A 
ATOM      5  S28 20Z d   1      93.157  80.774 -48.926  0.00  0.00    -0.044 SA
ENDROOT
BRANCH   2   6
ATOM      6  C09 20Z d   1      95.105  79.526 -50.494  0.00  0.00     0.203 C 
ATOM      7  O25 20Z d   1      95.642  79.359 -51.580  0.00  0.00    -0.286 OA
BRANCH   6   8
ATOM      8  C10 20Z d   1      95.626  78.868 -49.383  0.00  0.00     0.016 A 
ATOM      9  C11 20Z d   1      97.033  78.931 -49.119  0.00  0.00    -0.068 A 
ATOM     10  C12 20Z d   1      97.586  78.277 -47.983  0.00  0.00    -0.071 A 
ATOM     11  H6  20Z d   1      97.682  79.482 -49.791  0.00  0.00     0.085 H 
ATOM     12  C13 20Z d   1      96.754  77.544 -47.078  0.00  0.00    -0.026 A 
ATOM     13  H7  20Z d   1      98.653  78.335 -47.800  0.00  0.00     0.084 H 
ATOM     14  C14 20Z d   1      95.323  77.467 -47.334  0.00  0.00    -0.025 A 
ATOM     15  C21 20Z d   1      97.292  76.886 -45.924  0.00  0.00    -0.072 A 
ATOM     16  C15 20Z d   1      94.782  78.128 -48.484  0.00  0.00    -0.058 A 
ATOM     17  C24 20Z d   1      94.490  76.735 -46.429  0.00  0.00    -0.072 A 
ATOM     18  H8  20Z d   1      93.718  78.069 -48.680  0.00  0.00     0.086 H 
ATOM     19  C23 20Z d   1      95.046  76.088 -45.288  0.00  0.00    -0.082 A 
ATOM     20  H16 20Z d   1      93.424  76.672 -46.614  0.00  0.00     0.084 H 
ATOM     21  C22 20Z d   1      96.442  76.164 -45.035  0.00  0.00    -0.082 A 
ATOM     22  H15 20Z d   1      94.403  75.537 -44.612  0.00  0.00     0.083 H 
ATOM     23  H14 20Z d   1      96.862  75.672 -44.165  0.00  0.00     0.083 H 
ATOM     24  H13 20Z d   1      98.356  76.938 -45.725  0.00  0.00     0.084 H 
ENDBRANCH   6   8
ENDBRANCH   2   6
BRANCH   3  25
ATOM     25  N03 20Z d   1      93.817  81.060 -52.635  0.00  0.00    -0.383 N 
ATOM     26  H2  20Z d   1      94.617  80.458 -52.877  0.00  0.00     0.157 HD
ATOM     27  H3  20Z d   1      93.346  81.609 -53.368  0.00  0.00     0.157 HD
ENDBRANCH   3  25
BRANCH   4  28
ATOM     28  N02 20Z d   1      91.119  82.539 -49.263  0.00  0.00    -0.335 N 
ATOM     29  H1  20Z d   1      90.902  83.418 -49.754  0.00  0.00     0.168 HD
BRANCH  28  30
ATOM     30  C08 20Z d   1      90.381  82.301 -48.216  0.00  0.00     0.034 A 
ATOM     31  C16 20Z d   1      89.306  83.207 -47.966  0.00  0.00    -0.056 A 
ATOM     32  C17 20Z d   1      88.452  83.026 -46.857  0.00  0.00    -0.058 A 
ATOM     33  H9  20Z d   1      89.144  84.044 -48.636  0.00  0.00     0.087 H 
ATOM     34  C18 20Z d   1      88.654  81.935 -45.970  0.00  0.00     0.079 A 
ATOM     35  H10 20Z d   1      87.639  83.722 -46.682  0.00  0.00     0.086 H 
ATOM     36  C19 20Z d   1      89.721  81.019 -46.195  0.00  0.00    -0.058 A 
ATOM     37  C20 20Z d   1      90.581  81.197 -47.307  0.00  0.00    -0.056 A 
ATOM     38  H11 20Z d   1      89.875  80.187 -45.517  0.00  0.00     0.086 H 
ATOM     39  H12 20Z d   1      91.394  80.500 -47.476  0.00  0.00     0.087 H 
BRANCH  34  40
ATOM     40  S29 20Z d   1      87.553  81.709 -44.585  0.00  0.00     0.256 S 
ATOM     41  O26 20Z d   1      86.436  80.906 -45.036  0.00  0.00    -0.201 OA
ATOM     42  O27 20Z d   1      87.076  82.998 -44.105  0.00  0.00    -0.201 OA
BRANCH  40  43
ATOM     43  N04 20Z d   1      88.344  80.885 -43.345  0.00  0.00    -0.324 N 
ATOM     44  H4  20Z d   1      87.861  80.679 -42.494  0.00  0.00     0.169 HD
ATOM     45  H5  20Z d   1      89.296  80.603 -43.460  0.00  0.00     0.169 HD
ENDBRANCH  40  43
ENDBRANCH  34  40
ENDBRANCH  28  30
ENDBRANCH   4  28
TORSDOF 7
