REMARK  6 active torsions:
REMARK  status: ('A' for Active; 'I' for Inactive)
REMARK    1  A    between atoms: N02_2  and  C07_7 
REMARK    2  A    between atoms: C09_9  and  N02_2 
REMARK    3  A    between atoms: S25_25  and  N04_4 
REMARK    4  A    between atoms: C05_5  and  C08_8 
REMARK    5  A    between atoms: C08_8  and  C10_10 
REMARK    6  A    between atoms: C12_12  and  S25_25 
ROOT
ATOM      1  N01 21Z d   1     -38.413 118.267  86.007  0.00  0.00    -0.205 NA
ATOM      2  N03 21Z d   1     -39.970 117.434  87.518  0.00  0.00    -0.383 N 
ATOM      3  C05 21Z d   1     -40.126 116.806  85.266  0.00  0.00     0.104 A 
ATOM      4  C06 21Z d   1     -39.531 117.501  86.328  0.00  0.00     0.145 A 
ATOM      5  C07 21Z d   1     -38.156 118.161  84.715  0.00  0.00     0.174 A 
ATOM      6  S24 21Z d   1     -39.249 117.146  83.828  0.00  0.00    -0.044 SA
ATOM      7  H2  21Z d   1     -40.799 116.860  87.730  0.00  0.00     0.157 HD
ATOM      8  H3  21Z d   1     -39.497 117.953  88.271  0.00  0.00     0.157 HD
ENDROOT
BRANCH   5   9
ATOM      9  N02 21Z d   1     -37.147 118.787  84.197  0.00  0.00    -0.335 N 
ATOM     10  H1  21Z d   1     -36.686 119.477  84.808  0.00  0.00     0.168 HD
BRANCH   9  11
ATOM     11  C09 21Z d   1     -36.638 118.657  83.000  0.00  0.00     0.035 A 
ATOM     12  C11 21Z d   1     -35.969 119.780  82.449  0.00  0.00    -0.035 A 
ATOM     13  C12 21Z d   1     -35.388 119.717  81.162  0.00  0.00     0.081 A 
ATOM     14  H6  21Z d   1     -35.903 120.698  83.022  0.00  0.00     0.089 H 
ATOM     15  C13 21Z d   1     -35.465 118.526  80.391  0.00  0.00    -0.060 A 
ATOM     16  C14 21Z d   1     -36.127 117.381  80.920  0.00  0.00    -0.079 A 
ATOM     17  H7  21Z d   1     -35.021 118.489  79.403  0.00  0.00     0.085 H 
ATOM     18  C15 21Z d   1     -36.710 117.443  82.221  0.00  0.00    -0.057 A 
ATOM     19  H8  21Z d   1     -36.188 116.469  80.338  0.00  0.00     0.083 H 
ATOM     20  H9  21Z d   1     -37.211 116.572  82.628  0.00  0.00     0.086 H 
BRANCH  13  21
ATOM     21  S25 21Z d   1     -34.553 121.146  80.508  0.00  0.00     0.256 S 
ATOM     22  O22 21Z d   1     -33.158 120.797  80.276  0.00  0.00    -0.201 OA
ATOM     23  O23 21Z d   1     -35.186 121.533  79.249  0.00  0.00    -0.201 OA
BRANCH  21  24
ATOM     24  N04 21Z d   1     -34.630 122.401  81.630  0.00  0.00    -0.324 N 
ATOM     25  H4  21Z d   1     -34.208 123.284  81.423  0.00  0.00     0.169 HD
ATOM     26  H5  21Z d   1     -35.097 122.263  82.503  0.00  0.00     0.169 HD
ENDBRANCH  21  24
ENDBRANCH  13  21
ENDBRANCH   9  11
ENDBRANCH   5   9
BRANCH   3  27
ATOM     27  C08 21Z d   1     -41.245 115.966  85.354  0.00  0.00     0.203 C 
ATOM     28  O21 21Z d   1     -41.925 115.971  86.370  0.00  0.00    -0.286 OA
BRANCH  27  29
ATOM     29  C10 21Z d   1     -41.597 115.110  84.316  0.00  0.00     0.015 A 
ATOM     30  C16 21Z d   1     -40.650 114.188  83.757  0.00  0.00    -0.069 A 
ATOM     31  C17 21Z d   1     -41.031 113.323  82.693  0.00  0.00    -0.082 A 
ATOM     32  H10 21Z d   1     -39.639 114.150  84.147  0.00  0.00     0.085 H 
ATOM     33  C18 21Z d   1     -42.351 113.366  82.180  0.00  0.00    -0.083 A 
ATOM     34  H11 21Z d   1     -40.310 112.630  82.274  0.00  0.00     0.083 H 
ATOM     35  C19 21Z d   1     -43.300 114.271  82.727  0.00  0.00    -0.082 A 
ATOM     36  H12 21Z d   1     -42.638 112.707  81.368  0.00  0.00     0.083 H 
ATOM     37  C20 21Z d   1     -42.925 115.141  83.791  0.00  0.00    -0.069 A 
ATOM     38  H13 21Z d   1     -44.310 114.299  82.335  0.00  0.00     0.083 H 
ATOM     39  H14 21Z d   1     -43.652 115.831  84.205  0.00  0.00     0.085 H 
ENDBRANCH  27  29
ENDBRANCH   3  27
TORSDOF 6
