REMARK  0 active torsions:
REMARK  status: ('A' for Active; 'I' for Inactive)
ROOT
ATOM      1 PT1  TPT d   1      25.193  -4.685  23.728  0.00  0.00     0.000 Pt
ATOM      2  N1  TPT d   1      25.783  -5.821  25.302  0.00  0.00    -0.259 N 
ATOM      3  N2  TPT d   1      27.053  -5.190  23.176  0.00  0.00    -0.244 N 
ATOM      4  N3  TPT d   1      25.367  -3.716  21.894  0.00  0.00    -0.259 N 
ATOM      5  C1  TPT d   1      24.993  -6.070  26.381  0.00  0.00     0.003 A 
ATOM      6  C2  TPT d   1      25.432  -6.804  27.445  0.00  0.00    -0.066 A 
ATOM      7  C3  TPT d   1      26.737  -7.300  27.381  0.00  0.00    -0.079 A 
ATOM      8  C4  TPT d   1      27.512  -7.054  26.282  0.00  0.00    -0.053 A 
ATOM      9  C5  TPT d   1      27.066  -6.304  25.203  0.00  0.00     0.085 A 
ATOM     10  C6  TPT d   1      27.822  -5.955  23.948  0.00  0.00     0.086 A 
ATOM     11  C7  TPT d   1      29.113  -6.316  23.576  0.00  0.00    -0.053 A 
ATOM     12  C8  TPT d   1      29.626  -5.862  22.344  0.00  0.00    -0.078 A 
ATOM     13  C9  TPT d   1      28.871  -5.057  21.511  0.00  0.00    -0.053 A 
ATOM     14  C10 TPT d   1      27.565  -4.720  21.943  0.00  0.00     0.086 A 
ATOM     15  C11 TPT d   1      26.589  -3.876  21.237  0.00  0.00     0.085 A 
ATOM     16  C12 TPT d   1      26.819  -3.245  19.986  0.00  0.00    -0.053 A 
ATOM     17  C13 TPT d   1      25.814  -2.456  19.415  0.00  0.00    -0.079 A 
ATOM     18  C14 TPT d   1      24.540  -2.276  20.080  0.00  0.00    -0.066 A 
ATOM     19  C15 TPT d   1      24.395  -2.953  21.333  0.00  0.00     0.003 A 
ATOM     20  H1  TPT d   1      23.984  -5.673  26.396  0.00  0.00     0.114 H 
ATOM     21  H2  TPT d   1      24.796  -6.994  28.302  0.00  0.00     0.085 H 
ATOM     22  H3  TPT d   1      27.136  -7.881  28.205  0.00  0.00     0.083 H 
ATOM     23  H4  TPT d   1      28.516  -7.462  26.252  0.00  0.00     0.087 H 
ATOM     24  H5  TPT d   1      29.717  -6.939  24.226  0.00  0.00     0.087 H 
ATOM     25  H6  TPT d   1      30.628  -6.148  22.045  0.00  0.00     0.083 H 
ATOM     26  H7  TPT d   1      29.263  -4.699  20.566  0.00  0.00     0.087 H 
ATOM     27  H8  TPT d   1      27.767  -3.374  19.476  0.00  0.00     0.087 H 
ATOM     28  H9  TPT d   1      25.992  -1.973  18.461  0.00  0.00     0.083 H 
ATOM     29  H10 TPT d   1      23.748  -1.669  19.657  0.00  0.00     0.085 H 
ATOM     30  H11 TPT d   1      23.455  -2.850  21.864  0.00  0.00     0.114 H 
ENDROOT
TORSDOF 0
