REMARK  4 active torsions:
REMARK  status: ('A' for Active; 'I' for Inactive)
REMARK    1  A    between atoms: C01_1  and  C02_2 
REMARK    2  A    between atoms: C02_2  and  C03_3 
REMARK    3  A    between atoms: N05_5  and  C20_20 
REMARK    4  A    between atoms: C08_8  and  N12_12 
ROOT
ATOM      1  C03 LJ9 d   1      -3.271  -0.637  17.335  0.00  0.00     0.067 A 
ATOM      2  N04 LJ9 d   1      -3.202  -1.814  17.967  0.00  0.00    -0.171 NA
ATOM      3  N05 LJ9 d   1      -4.053  -1.725  19.045  0.00  0.00    -0.233 N 
ATOM      4  C06 LJ9 d   1      -4.753  -0.508  19.058  0.00  0.00     0.073 A 
ATOM      5  C07 LJ9 d   1      -5.723   0.029  19.916  0.00  0.00    -0.029 A 
ATOM      6  C08 LJ9 d   1      -6.167   1.320  19.660  0.00  0.00     0.032 A 
ATOM      7  C09 LJ9 d   1      -5.653   2.067  18.553  0.00  0.00    -0.056 A 
ATOM      8  C10 LJ9 d   1      -4.699   1.527  17.722  0.00  0.00    -0.067 A 
ATOM      9  C11 LJ9 d   1      -4.237   0.246  17.965  0.00  0.00     0.019 A 
ATOM     10  H   LJ9 d   1      -6.115  -0.546  20.755  0.00  0.00     0.090 H 
ATOM     11  H   LJ9 d   1      -6.022   3.076  18.366  0.00  0.00     0.086 H 
ATOM     12  H   LJ9 d   1      -4.311   2.102  16.881  0.00  0.00     0.085 H 
ENDROOT
BRANCH   6  13
ATOM     13  N12 LJ9 d   1      -7.203   1.844  20.526  0.00  0.00    -0.380 N 
ATOM     14  C13 LJ9 d   1      -8.069   3.028  20.216  0.00  0.00     0.000 C 
ATOM     15  C14 LJ9 d   1      -9.282   2.892  21.165  0.00  0.00    -0.009 C 
ATOM     16  H   LJ9 d   1      -8.373   3.044  19.169  0.00  0.00     0.065 H 
ATOM     17  H   LJ9 d   1      -7.539   3.968  20.368  0.00  0.00     0.065 H 
ATOM     18  C15 LJ9 d   1      -9.187   3.723  22.459  0.00  0.00     0.087 C 
ATOM     19  C18 LJ9 d   1      -9.348   1.418  21.622  0.00  0.00    -0.009 C 
ATOM     20  H   LJ9 d   1     -10.147   3.244  20.603  0.00  0.00     0.045 H 
ATOM     21  N16 LJ9 d   1      -9.009   2.751  23.566  0.00  0.00    -0.074 N 
ATOM     22  H   LJ9 d   1     -10.084   4.324  22.606  0.00  0.00     0.076 H 
ATOM     23  H   LJ9 d   1      -8.353   4.424  22.415  0.00  0.00     0.076 H 
ATOM     24  C17 LJ9 d   1      -9.622   1.477  23.132  0.00  0.00     0.087 C 
ATOM     25  H   LJ9 d   1      -9.454   3.092  24.418  0.00  0.00     0.277 HD
ATOM     26  H   LJ9 d   1      -8.019   2.621  23.774  0.00  0.00     0.277 HD
ATOM     27  H   LJ9 d   1     -10.688   1.437  23.357  0.00  0.00     0.076 H 
ATOM     28  H   LJ9 d   1      -9.203   0.620  23.659  0.00  0.00     0.076 H 
ATOM     29  C19 LJ9 d   1      -7.973   0.812  21.295  0.00  0.00     0.000 C 
ATOM     30  H   LJ9 d   1     -10.116   0.812  21.141  0.00  0.00     0.045 H 
ATOM     31  H   LJ9 d   1      -7.445   0.543  22.210  0.00  0.00     0.065 H 
ATOM     32  H   LJ9 d   1      -8.086  -0.099  20.707  0.00  0.00     0.065 H 
ENDBRANCH   6  13
BRANCH   3  33
ATOM     33  C20 LJ9 d   1      -4.313  -2.835  19.938  0.00  0.00     0.059 A 
ATOM     34  C21 LJ9 d   1      -4.532  -4.094  19.390  0.00  0.00    -0.055 A 
ATOM     35  C22 LJ9 d   1      -4.865  -5.156  20.231  0.00  0.00    -0.081 A 
ATOM     36  H   LJ9 d   1      -4.444  -4.250  18.315  0.00  0.00     0.087 H 
ATOM     37  C23 LJ9 d   1      -4.981  -4.966  21.600  0.00  0.00    -0.083 A 
ATOM     38  H   LJ9 d   1      -5.036  -6.146  19.808  0.00  0.00     0.083 H 
ATOM     39  C24 LJ9 d   1      -4.771  -3.703  22.134  0.00  0.00    -0.081 A 
ATOM     40  H   LJ9 d   1      -5.235  -5.802  22.251  0.00  0.00     0.083 H 
ATOM     41  C25 LJ9 d   1      -4.442  -2.629  21.310  0.00  0.00    -0.055 A 
ATOM     42  H   LJ9 d   1      -4.864  -3.549  23.209  0.00  0.00     0.083 H 
ATOM     43  H   LJ9 d   1      -4.287  -1.637  21.735  0.00  0.00     0.087 H 
ENDBRANCH   3  33
BRANCH   1  44
ATOM     44  C02 LJ9 d   1      -2.595  -0.282  16.066  0.00  0.00    -0.025 C 
ATOM     45  H   LJ9 d   1      -2.841   0.750  15.817  0.00  0.00     0.041 H 
ATOM     46  H   LJ9 d   1      -1.520  -0.409  16.196  0.00  0.00     0.041 H 
BRANCH  44  47
ATOM     47  C01 LJ9 d   1      -3.055  -1.177  14.933  0.00  0.00    -0.071 C 
ATOM     48  H   LJ9 d   1      -2.823  -2.214  15.174  0.00  0.00     0.028 H 
ATOM     49  H   LJ9 d   1      -4.131  -1.066  14.798  0.00  0.00     0.028 H 
ATOM     50  H   LJ9 d   1      -2.541  -0.892  14.015  0.00  0.00     0.028 H 
ENDBRANCH  44  47
ENDBRANCH   1  44
TORSDOF 4
