REMARK  5 active torsions:
REMARK  status: ('A' for Active; 'I' for Inactive)
REMARK    1  A    between atoms: C8_16  and  O1_4 
REMARK    2  A    between atoms: C2_6  and  C7_15 
REMARK    3  A    between atoms: N2_8  and  C12_20 
REMARK    4  A    between atoms: C8_16  and  C4_12 
REMARK    5  A    between atoms: C8_16  and  C9_17 
ROOT
ATOM      1  N1  25Z d   1      91.731  81.829 -51.110  0.00  0.00    -0.206 NA
ATOM      2  S1  25Z d   1      91.955  80.739 -48.784  0.00  0.00    -0.050 SA
ATOM      3  N2  25Z d   1      90.225  82.694 -49.523  0.00  0.00    -0.335 N 
ATOM      4  N3  25Z d   1      93.368  80.696 -52.405  0.00  0.00    -0.383 N 
ATOM      5  C9  25Z d   1      92.966  80.204 -50.040  0.00  0.00     0.065 A 
ATOM      6  C10 25Z d   1      91.221  81.854 -49.847  0.00  0.00     0.173 A 
ATOM      7  C11 25Z d   1      92.716  80.905 -51.226  0.00  0.00     0.140 A 
ATOM      8  H3  25Z d   1      90.022  83.429 -50.216  0.00  0.00     0.168 HD
ATOM      9  H5  25Z d   1      94.113  79.987 -52.463  0.00  0.00     0.157 HD
ATOM     10  H6  25Z d   1      93.116  81.247 -53.238  0.00  0.00     0.157 HD
ENDROOT
BRANCH   5  11
ATOM     11  C8  25Z d   1      93.982  79.087 -49.826  0.00  0.00     0.096 C 
ATOM     12  H9  25Z d   1      94.758  79.823 -49.569  0.00  0.00     0.099 H 
BRANCH  11  13
ATOM     13  O1  25Z d   1      94.653  78.689 -50.924  0.00  0.00    -0.386 OA
ATOM     14  H2  25Z d   1      94.398  79.230 -51.663  0.00  0.00     0.210 HD
ENDBRANCH  11  13
BRANCH  11  15
ATOM     15  C4  25Z d   1      94.210  78.418 -48.616  0.00  0.00    -0.024 A 
ATOM     16  C3  25Z d   1      94.287  79.134 -47.336  0.00  0.00    -0.059 A 
ATOM     17  C2  25Z d   1      94.521  78.451 -46.064  0.00  0.00     0.048 A 
ATOM     18  H4  25Z d   1      94.166  80.211 -47.334  0.00  0.00     0.085 H 
ATOM     19  C1  25Z d   1      94.683  76.997 -46.104  0.00  0.00    -0.068 A 
ATOM     20  C6  25Z d   1      94.615  76.268 -47.342  0.00  0.00    -0.082 A 
ATOM     21  H1  25Z d   1      94.858  76.458 -45.180  0.00  0.00     0.084 H 
ATOM     22  C5  25Z d   1      94.383  76.958 -48.582  0.00  0.00    -0.074 A 
ATOM     23  H8  25Z d   1      94.740  75.191 -47.340  0.00  0.00     0.083 H 
ATOM     24  H7  25Z d   1      94.335  76.393 -49.506  0.00  0.00     0.084 H 
BRANCH  17  25
ATOM     25  C7  25Z d   1      94.597  79.146 -44.812  0.00  0.00     0.417 C 
ATOM     26  F1  25Z d   1      94.321  80.500 -44.969  0.00  0.00    -0.166 F 
ATOM     27  F2  25Z d   1      95.861  79.040 -44.276  0.00  0.00    -0.166 F 
ATOM     28  F3  25Z d   1      93.690  78.619 -43.901  0.00  0.00    -0.166 F 
ENDBRANCH  17  25
ENDBRANCH  11  15
ENDBRANCH   5  11
BRANCH   3  29
ATOM     29  C12 25Z d   1      89.416  82.710 -48.362  0.00  0.00     0.034 A 
ATOM     30  C13 25Z d   1      89.097  81.538 -47.509  0.00  0.00    -0.057 A 
ATOM     31  C14 25Z d   1      88.260  81.670 -46.338  0.00  0.00    -0.081 A 
ATOM     32  H10 25Z d   1      89.499  80.565 -47.769  0.00  0.00     0.086 H 
ATOM     33  C15 25Z d   1      87.723  82.958 -45.988  0.00  0.00    -0.083 A 
ATOM     34  H11 25Z d   1      88.038  80.803 -45.727  0.00  0.00     0.083 H 
ATOM     35  C16 25Z d   1      88.012  84.110 -46.797  0.00  0.00    -0.081 A 
ATOM     36  H12 25Z d   1      87.097  83.060 -45.109  0.00  0.00     0.083 H 
ATOM     37  C17 25Z d   1      88.848  83.987 -47.967  0.00  0.00    -0.057 A 
ATOM     38  H13 25Z d   1      87.600  85.076 -46.527  0.00  0.00     0.083 H 
ATOM     39  H14 25Z d   1      89.057  84.867 -48.564  0.00  0.00     0.086 H 
ENDBRANCH   3  29
TORSDOF 5
