REMARK  7 active torsions:
REMARK  status: ('A' for Active; 'I' for Inactive)
REMARK    1  A    between atoms: N02_2  and  C08_8 
REMARK    2  A    between atoms: C09_9  and  N02_2 
REMARK    3  A    between atoms: C15_15  and  N04_4 
REMARK    4  A    between atoms: S26_26  and  N05_5 
REMARK    5  A    between atoms: C06_6  and  C10_10 
REMARK    6  A    between atoms: C10_10  and  C11_11 
REMARK    7  A    between atoms: C19_19  and  S26_26 
ROOT
ATOM      1  N01 26Z d   1      65.352 117.642 -86.815  0.00  0.00    -0.205 NA
ATOM      2  N03 26Z d   1      66.885 116.783 -88.351  0.00  0.00    -0.383 N 
ATOM      3  C06 26Z d   1      67.038 116.129 -86.110  0.00  0.00     0.104 A 
ATOM      4  C07 26Z d   1      66.454 116.843 -87.155  0.00  0.00     0.145 A 
ATOM      5  C08 26Z d   1      65.093 117.545 -85.533  0.00  0.00     0.174 A 
ATOM      6  S25 26Z d   1      66.150 116.497 -84.664  0.00  0.00    -0.044 SA
ATOM      7  H2  26Z d   1      67.696 116.189 -88.577  0.00  0.00     0.157 HD
ATOM      8  H3  26Z d   1      66.423 117.328 -89.093  0.00  0.00     0.157 HD
ENDROOT
BRANCH   5   9
ATOM      9  N02 26Z d   1      64.100 118.230 -85.007  0.00  0.00    -0.335 N 
ATOM     10  H1  26Z d   1      63.867 119.108 -85.493  0.00  0.00     0.168 HD
BRANCH   9  11
ATOM     11  C09 26Z d   1      63.367 117.962 -83.961  0.00  0.00     0.034 A 
ATOM     12  C17 26Z d   1      63.509 116.783 -83.157  0.00  0.00    -0.056 A 
ATOM     13  C18 26Z d   1      62.660 116.572 -82.047  0.00  0.00    -0.058 A 
ATOM     14  H12 26Z d   1      64.270 116.051 -83.401  0.00  0.00     0.087 H 
ATOM     15  C19 26Z d   1      61.666 117.532 -81.731  0.00  0.00     0.079 A 
ATOM     16  H13 26Z d   1      62.768 115.680 -81.440  0.00  0.00     0.086 H 
ATOM     17  C20 26Z d   1      61.518 118.702 -82.514  0.00  0.00    -0.058 A 
ATOM     18  C21 26Z d   1      62.355 118.914 -83.613  0.00  0.00    -0.056 A 
ATOM     19  H14 26Z d   1      60.757 119.432 -82.262  0.00  0.00     0.086 H 
ATOM     20  H15 26Z d   1      62.237 119.811 -84.210  0.00  0.00     0.087 H 
BRANCH  15  21
ATOM     21  S26 26Z d   1      60.590 117.257 -80.362  0.00  0.00     0.256 S 
ATOM     22  O23 26Z d   1      59.498 116.451 -80.860  0.00  0.00    -0.201 OA
ATOM     23  O24 26Z d   1      60.078 118.526 -79.853  0.00  0.00    -0.201 OA
BRANCH  21  24
ATOM     24  N05 26Z d   1      61.411 116.406 -79.156  0.00  0.00    -0.324 N 
ATOM     25  H6  26Z d   1      60.942 116.166 -78.306  0.00  0.00     0.169 HD
ATOM     26  H7  26Z d   1      62.366 116.142 -79.292  0.00  0.00     0.169 HD
ENDBRANCH  21  24
ENDBRANCH  15  21
ENDBRANCH   9  11
ENDBRANCH   5   9
BRANCH   3  27
ATOM     27  C10 26Z d   1      68.149 115.267 -86.219  0.00  0.00     0.203 C 
ATOM     28  O22 26Z d   1      68.760 115.209 -87.289  0.00  0.00    -0.286 OA
BRANCH  27  29
ATOM     29  C11 26Z d   1      68.596 114.477 -85.143  0.00  0.00     0.018 A 
ATOM     30  C12 26Z d   1      69.992 114.398 -84.866  0.00  0.00    -0.069 A 
ATOM     31  C13 26Z d   1      70.470 113.615 -83.781  0.00  0.00    -0.080 A 
ATOM     32  H8  26Z d   1      70.695 114.940 -85.488  0.00  0.00     0.085 H 
ATOM     33  C14 26Z d   1      69.567 112.897 -82.951  0.00  0.00    -0.058 A 
ATOM     34  H9  26Z d   1      71.535 113.565 -83.584  0.00  0.00     0.083 H 
ATOM     35  C15 26Z d   1      68.176 112.955 -83.205  0.00  0.00     0.026 A 
ATOM     36  H10 26Z d   1      69.943 112.305 -82.124  0.00  0.00     0.086 H 
ATOM     37  C16 26Z d   1      67.683 113.743 -84.301  0.00  0.00    -0.044 A 
ATOM     38  H11 26Z d   1      66.618 113.786 -84.496  0.00  0.00     0.088 H 
BRANCH  35  39
ATOM     39  N04 26Z d   1      67.366 112.304 -82.447  0.00  0.00    -0.399 N 
ATOM     40  H4  26Z d   1      67.731 111.743 -81.665  0.00  0.00     0.156 HD
ATOM     41  H5  26Z d   1      66.352 112.344 -82.623  0.00  0.00     0.156 HD
ENDBRANCH  35  39
ENDBRANCH  27  29
ENDBRANCH   3  27
TORSDOF 7
