REMARK  6 active torsions:
REMARK  status: ('A' for Active; 'I' for Inactive)
REMARK    1  A    between atoms: C12_10  and  C1_1 
REMARK       I    between atoms: C1_1  and  N22_20 
REMARK    2  A    between atoms: C13_11  and  N2_5 
REMARK    3  A    between atoms: S2_7  and  N4_9 
REMARK    4  A    between atoms: C18_16  and  S2_7 
REMARK    5  A    between atoms: N3_8  and  C14_12 
REMARK    6  A    between atoms: C15_13  and  N3_8 
ROOT
ATOM      1  C15 27Z d   1      89.851  82.139 -48.222  0.00  0.00     0.034 A 
ATOM      2  C16 27Z d   1      90.027  80.968 -47.287  0.00  0.00    -0.056 A 
ATOM      3  C17 27Z d   1      89.182  80.789 -46.162  0.00  0.00    -0.058 A 
ATOM      4  C18 27Z d   1      88.121  81.760 -45.903  0.00  0.00     0.079 A 
ATOM      5  C19 27Z d   1      87.932  82.910 -46.798  0.00  0.00    -0.058 A 
ATOM      6  C20 27Z d   1      88.778  83.097 -47.937  0.00  0.00    -0.056 A 
ATOM      7  H6  27Z d   1      90.815  80.249 -47.479  0.00  0.00     0.087 H 
ATOM      8  H7  27Z d   1      89.322  79.941 -45.501  0.00  0.00     0.086 H 
ATOM      9  H8  27Z d   1      87.143  83.625 -46.593  0.00  0.00     0.086 H 
ATOM     10  H9  27Z d   1      88.625  83.948 -48.590  0.00  0.00     0.087 H 
ENDROOT
BRANCH   1  11
ATOM     11  N3  27Z d   1      90.629  82.381 -49.329  0.00  0.00    -0.335 N 
ATOM     12  H3  27Z d   1      90.373  83.217 -49.873  0.00  0.00     0.168 HD
BRANCH  11  13
ATOM     13  C14 27Z d   1      91.699  81.669 -49.814  0.00  0.00     0.174 A 
ATOM     14  N1  27Z d   1      92.021  81.754 -51.104  0.00  0.00    -0.205 NA
ATOM     15  C13 27Z d   1      93.103  80.997 -51.397  0.00  0.00     0.147 A 
ATOM     16  C12 27Z d   1      93.625  80.314 -50.316  0.00  0.00     0.121 A 
ATOM     17  S1  27Z d   1      92.724  80.641 -48.896  0.00  0.00    -0.043 SA
BRANCH  15  18
ATOM     18  N2  27Z d   1      93.594  80.937 -52.647  0.00  0.00    -0.383 N 
ATOM     19  H1  27Z d   1      94.419  80.354 -52.849  0.00  0.00     0.157 HD
ATOM     20  H2  27Z d   1      93.145  81.474 -53.403  0.00  0.00     0.157 HD
ENDBRANCH  15  18
BRANCH  16  21
ATOM     21  C1  27Z d   1      94.810  79.409 -50.350  0.00  0.00     0.260 C 
ATOM     22  O21 27Z d   1      95.434  79.211 -51.400  0.00  0.00    -0.267 OA
ATOM     23  N22 27Z d   1      95.151  78.824 -49.201  0.00  0.00    -0.365 N 
ATOM     24  H10 27Z d   1      95.938  78.208 -49.168  0.00  0.00     0.159 HD
ATOM     25  H11 27Z d   1      94.620  79.002 -48.373  0.00  0.00     0.159 HD
ENDBRANCH  16  21
ENDBRANCH  11  13
ENDBRANCH   1  11
BRANCH   4  26
ATOM     26  S2  27Z d   1      87.159  81.562 -44.640  0.00  0.00     0.256 S 
ATOM     27  O1  27Z d   1      85.970  80.600 -45.107  0.00  0.00    -0.201 OA
ATOM     28  O2  27Z d   1      86.565  83.010 -44.180  0.00  0.00    -0.201 OA
BRANCH  26  29
ATOM     29  N4  27Z d   1      87.922  80.869 -43.473  0.00  0.00    -0.324 N 
ATOM     30  H4  27Z d   1      88.340  79.972 -43.612  0.00  0.00     0.169 HD
ATOM     31  H5  27Z d   1      87.994  81.321 -42.584  0.00  0.00     0.169 HD
ENDBRANCH  26  29
ENDBRANCH   4  26
TORSDOF 6
