REMARK  31 active torsions:
REMARK  status: ('A' for Active; 'I' for Inactive)
REMARK    1  A    between atoms: C_1  and  CH3_3 
REMARK       I    between atoms: N_4  and  C_1 
REMARK    2  A    between atoms: C_6  and  CA_5 
REMARK       I    between atoms: N_11  and  C_6 
REMARK    3  A    between atoms: CA_12  and  N_11 
REMARK    4  A    between atoms: C_13  and  CA_12 
REMARK    5  A    between atoms: CA_12  and  CB_15 
REMARK       I    between atoms: N_20  and  C_13 
REMARK    6  A    between atoms: CB_15  and  CG_16 
REMARK    7  A    between atoms: CG_16  and  CD1_17 
REMARK    8  A    between atoms: CG_16  and  CD2_18 
REMARK    9  A    between atoms: CA_22  and  C_19 
REMARK       I    between atoms: C_19  and  N_43 
REMARK   10  A    between atoms: CA_22  and  N_20 
REMARK   11  A    between atoms: CB_23  and  CA_22 
REMARK   12  A    between atoms: CG_24  and  CB_23 
REMARK   13  A    between atoms: C27_25  and  C28_26 
REMARK   14  A    between atoms: C27_25  and  ND1_39 
REMARK   15  A    between atoms: C28_26  and  C29_27 
REMARK   16  A    between atoms: C29_27  and  C30_28 
REMARK   17  A    between atoms: C30_28  and  C31_29 
REMARK   18  A    between atoms: C31_29  and  C32_30 
REMARK   19  A    between atoms: C32_30  and  C33_31 
REMARK   20  A    between atoms: C33_31  and  C34_32 
REMARK   21  A    between atoms: C34_32  and  C35_33 
REMARK   22  A    between atoms: N_43  and  CA_44 
REMARK   23  A    between atoms: CA_44  and  C_45 
REMARK   24  A    between atoms: CA_44  and  CB_47 
REMARK       I    between atoms: C_45  and  N_49 
REMARK   25  A    between atoms: CB_47  and  OG_48 
REMARK   26  A    between atoms: N_49  and  CA_50 
REMARK   27  A    between atoms: CA_50  and  CB_51 
REMARK   28  A    between atoms: CA_50  and  C_58 
REMARK   29  A    between atoms: CB_51  and  CG2_52 
REMARK   30  A    between atoms: CB_51  and  OG1_53 
REMARK   31  A    between atoms: OG1_53  and  P_54 
REMARK       I    between atoms: C_58  and  N_60 
ROOT
ATOM      1  CA  56A d   1       1.321  24.279  16.125  0.00  0.00     0.094 C 
ATOM      2  H23 56A d   1       1.705  23.431  16.712  0.00  0.00     0.088 H 
ENDROOT
BRANCH   1   3
ATOM      3  C   56A d   1       1.383  23.922  14.674  0.00  0.00     0.241 C 
ATOM      4  O   56A d   1       1.761  24.713  13.777  0.00  0.00    -0.271 OA
ATOM      5  N   SER d   1       0.825  22.742  14.354  0.00  0.00    -0.344 N 
ATOM      6  H49 SER d   1       0.417  22.196  15.086  0.00  0.00     0.163 HD
BRANCH   5   7
ATOM      7  CA  SER d   1       0.784  22.215  12.991  0.00  0.00     0.109 C 
ATOM      8  H50 SER d   1       1.746  22.427  12.502  0.00  0.00     0.090 H 
BRANCH   7   9
ATOM      9  C   SER d   1      -0.277  22.943  12.234  0.00  0.00     0.243 C 
ATOM     10  O   SER d   1      -1.072  23.792  12.708  0.00  0.00    -0.271 OA
ATOM     11  N   TPO d   1      -0.366  22.625  10.938  0.00  0.00    -0.344 N 
ATOM     12  H54 TPO d   1       0.197  21.878  10.584  0.00  0.00     0.163 HD
BRANCH  11  13
ATOM     13  CA  TPO d   1      -1.239  23.316  10.041  0.00  0.00     0.114 C 
ATOM     14  H55 TPO d   1      -0.980  24.384  10.090  0.00  0.00     0.091 H 
BRANCH  13  15
ATOM     15  CB  TPO d   1      -0.973  22.811   8.613  0.00  0.00     0.076 C 
ATOM     16  H56 TPO d   1      -1.249  21.752   8.504  0.00  0.00     0.087 H 
BRANCH  15  17
ATOM     17  CG2 TPO d   1      -1.771  23.700   7.650  0.00  0.00    -0.049 C 
ATOM     18  H57 TPO d   1      -1.602  23.364   6.616  0.00  0.00     0.031 H 
ATOM     19  H58 TPO d   1      -1.440  24.744   7.755  0.00  0.00     0.031 H 
ATOM     20  H59 TPO d   1      -2.842  23.629   7.888  0.00  0.00     0.031 H 
ENDBRANCH  15  17
BRANCH  15  21
ATOM     21  OG1 TPO d   1       0.396  23.019   8.342  0.00  0.00    -0.275 OA
BRANCH  21  22
ATOM     22  P   TPO d   1       1.312  21.671   8.106  0.00  0.00     0.422 P 
ATOM     23  O1P TPO d   1       0.676  20.928   6.996  0.00  0.00    -0.617 OA
ATOM     24  O2P TPO d   1       2.681  22.275   7.776  0.00  0.00    -0.617 OA
ATOM     25  O3P TPO d   1       1.342  20.934   9.429  0.00  0.00    -0.617 OA
ENDBRANCH  21  22
ENDBRANCH  15  21
ENDBRANCH  13  15
BRANCH  13  26
ATOM     26  C   TPO d   1      -2.688  23.202  10.335  0.00  0.00     0.240 C 
ATOM     27  O   TPO d   1      -3.207  22.152  10.566  0.00  0.00    -0.271 OA
ATOM     28  N   NH2 d   1      -3.399  24.346  10.298  0.00  0.00    -0.368 N 
ATOM     29  H60 NH2 d   1      -4.381  24.331  10.488  0.00  0.00     0.159 HD
ATOM     30  H61 NH2 d   1      -2.945  25.210  10.081  0.00  0.00     0.159 HD
ENDBRANCH  13  26
ENDBRANCH  11  13
ENDBRANCH   7   9
BRANCH   7  31
ATOM     31  CB  SER d   1       0.617  20.667  13.038  0.00  0.00     0.044 C 
ATOM     32  H51 SER d   1       1.459  20.221  13.588  0.00  0.00     0.077 H 
ATOM     33  H52 SER d   1       0.595  20.266  12.014  0.00  0.00     0.077 H 
BRANCH  31  34
ATOM     34  OG  SER d   1      -0.606  20.357  13.700  0.00  0.00    -0.398 OA
ATOM     35  H53 SER d   1      -1.330  20.745  13.223  0.00  0.00     0.209 HD
ENDBRANCH  31  34
ENDBRANCH   7  31
ENDBRANCH   5   7
ENDBRANCH   1   3
BRANCH   1  36
ATOM     36  N   56A d   1       2.208  25.424  16.319  0.00  0.00    -0.346 N 
ATOM     37  C   LEU d   1       2.802  25.622  17.493  0.00  0.00     0.241 C 
ATOM     38  O   LEU d   1       2.543  24.948  18.490  0.00  0.00    -0.271 OA
ATOM     39  H22 56A d   1       2.369  26.062  15.566  0.00  0.00     0.163 HD
BRANCH  37  40
ATOM     40  CA  LEU d   1       3.848  26.727  17.498  0.00  0.00     0.089 C 
ATOM     41  H12 LEU d   1       4.821  26.280  17.751  0.00  0.00     0.087 H 
BRANCH  40  42
ATOM     42  N   LEU d   1       3.992  27.406  16.203  0.00  0.00    -0.346 N 
ATOM     43  C   PRO d   1       4.957  27.054  15.332  0.00  0.00     0.241 C 
ATOM     44  O   PRO d   1       5.823  26.227  15.557  0.00  0.00    -0.271 OA
ATOM     45  H11 LEU d   1       3.361  28.144  15.964  0.00  0.00     0.163 HD
BRANCH  43  46
ATOM     46  CA  PRO d   1       4.960  27.903  14.086  0.00  0.00     0.091 C 
ATOM     47  N   PRO d   1       6.315  28.158  13.546  0.00  0.00    -0.339 N 
ATOM     48  C   ACE d   1       7.244  28.916  14.152  0.00  0.00     0.216 C 
ATOM     49  CD  PRO d   1       6.535  27.429  12.279  0.00  0.00    -0.001 C 
ATOM     50  O   ACE d   1       6.990  29.351  15.270  0.00  0.00    -0.274 OA
ATOM     51  CG  PRO d   1       5.269  26.620  12.011  0.00  0.00    -0.048 C 
ATOM     52  H9  PRO d   1       7.401  26.757  12.374  0.00  0.00     0.064 H 
ATOM     53  H10 PRO d   1       6.711  28.140  11.458  0.00  0.00     0.064 H 
ATOM     54  CB  PRO d   1       4.191  27.169  12.976  0.00  0.00    -0.036 C 
ATOM     55  H7  PRO d   1       4.948  26.750  10.967  0.00  0.00     0.035 H 
ATOM     56  H8  PRO d   1       5.450  25.553  12.209  0.00  0.00     0.035 H 
ATOM     57  H5  PRO d   1       3.523  27.865  12.448  0.00  0.00     0.036 H 
ATOM     58  H6  PRO d   1       3.600  26.344  13.400  0.00  0.00     0.036 H 
ATOM     59  H4  PRO d   1       4.474  28.863  14.313  0.00  0.00     0.087 H 
BRANCH  48  60
ATOM     60  CH3 ACE d   1       8.613  29.031  13.507  0.00  0.00    -0.003 C 
ATOM     61  H1  ACE d   1       8.588  28.568  12.510  0.00  0.00     0.040 H 
ATOM     62  H2  ACE d   1       9.357  28.516  14.132  0.00  0.00     0.040 H 
ATOM     63  H3  ACE d   1       8.885  30.092  13.412  0.00  0.00     0.040 H 
ENDBRANCH  48  60
ENDBRANCH  43  46
ENDBRANCH  40  42
BRANCH  40  64
ATOM     64  CB  LEU d   1       3.467  27.717  18.583  0.00  0.00    -0.035 C 
ATOM     65  H13 LEU d   1       3.157  27.169  19.485  0.00  0.00     0.037 H 
ATOM     66  H14 LEU d   1       2.635  28.344  18.230  0.00  0.00     0.037 H 
BRANCH  64  67
ATOM     67  CG  LEU d   1       4.668  28.606  18.915  0.00  0.00    -0.059 C 
ATOM     68  H15 LEU d   1       4.979  29.160  18.017  0.00  0.00     0.038 H 
BRANCH  67  69
ATOM     69  CD1 LEU d   1       4.352  29.563  20.084  0.00  0.00    -0.073 C 
ATOM     70  H16 LEU d   1       5.233  30.186  20.296  0.00  0.00     0.028 H 
ATOM     71  H17 LEU d   1       4.093  28.977  20.978  0.00  0.00     0.028 H 
ATOM     72  H18 LEU d   1       3.504  30.208  19.811  0.00  0.00     0.028 H 
ENDBRANCH  67  69
BRANCH  67  73
ATOM     73  CD2 LEU d   1       5.793  27.788  19.472  0.00  0.00    -0.073 C 
ATOM     74  H19 LEU d   1       6.118  27.052  18.722  0.00  0.00     0.028 H 
ATOM     75  H20 LEU d   1       5.452  27.263  20.377  0.00  0.00     0.028 H 
ATOM     76  H21 LEU d   1       6.635  28.448  19.727  0.00  0.00     0.028 H 
ENDBRANCH  67  73
ENDBRANCH  64  67
ENDBRANCH  40  64
ENDBRANCH  37  40
ENDBRANCH   1  36
BRANCH   1  77
ATOM     77  CB  56A d   1      -0.097  24.562  16.602  0.00  0.00     0.002 C 
ATOM     78  H24 56A d   1      -0.085  24.622  17.700  0.00  0.00     0.046 H 
ATOM     79  H25 56A d   1      -0.739  23.726  16.288  0.00  0.00     0.046 H 
BRANCH  77  80
ATOM     80  CG  56A d   1      -0.696  25.850  16.062  0.00  0.00     0.032 A 
ATOM     81  ND1 56A d   1      -0.728  27.038  16.775  0.00  0.00    -0.344 N 
ATOM     82  CE1 56A d   1      -1.375  27.949  15.969  0.00  0.00     0.066 A 
ATOM     83  NE2 56A d   1      -1.717  27.379  14.853  0.00  0.00    -0.254 NA
ATOM     84  H48 56A d   1      -1.570  28.989  16.228  0.00  0.00     0.143 H 
ATOM     85  CD2 56A d   1      -1.297  26.074  14.871  0.00  0.00     0.025 A 
ATOM     86  H47 56A d   1      -1.424  25.348  14.070  0.00  0.00     0.117 H 
BRANCH  81  87
ATOM     87  C27 56A d   1      -0.241  27.195  18.147  0.00  0.00     0.001 C 
ATOM     88  H26 56A d   1       0.641  26.559  18.310  0.00  0.00     0.065 H 
ATOM     89  H27 56A d   1       0.024  28.246  18.337  0.00  0.00     0.065 H 
BRANCH  87  90
ATOM     90  C28 56A d   1      -1.363  26.770  19.061  0.00  0.00    -0.050 C 
ATOM     91  H28 56A d   1      -1.635  25.728  18.836  0.00  0.00     0.035 H 
ATOM     92  H29 56A d   1      -2.233  27.421  18.889  0.00  0.00     0.035 H 
BRANCH  90  93
ATOM     93  C29 56A d   1      -0.944  26.872  20.528  0.00  0.00    -0.064 C 
ATOM     94  H30 56A d   1      -0.636  27.903  20.758  0.00  0.00     0.033 H 
ATOM     95  H31 56A d   1      -0.107  26.186  20.726  0.00  0.00     0.033 H 
BRANCH  93  96
ATOM     96  C30 56A d   1      -2.146  26.486  21.389  0.00  0.00    -0.065 C 
ATOM     97  H32 56A d   1      -2.666  25.609  20.976  0.00  0.00     0.033 H 
ATOM     98  H33 56A d   1      -2.854  27.323  21.482  0.00  0.00     0.033 H 
BRANCH  96  99
ATOM     99  C31 56A d   1      -1.510  26.169  22.699  0.00  0.00    -0.065 C 
ATOM    100  H34 56A d   1      -0.908  27.020  23.049  0.00  0.00     0.033 H 
ATOM    101  H35 56A d   1      -0.870  25.279  22.610  0.00  0.00     0.033 H 
BRANCH  99 102
ATOM    102  C32 56A d   1      -2.679  25.898  23.673  0.00  0.00    -0.065 C 
ATOM    103  H36 56A d   1      -3.488  26.622  23.494  0.00  0.00     0.033 H 
ATOM    104  H37 56A d   1      -2.327  25.990  24.711  0.00  0.00     0.033 H 
BRANCH 102 105
ATOM    105  C33 56A d   1      -3.203  24.448  23.420  0.00  0.00    -0.061 C 
ATOM    106  H38 56A d   1      -2.354  23.750  23.458  0.00  0.00     0.033 H 
ATOM    107  H39 56A d   1      -3.669  24.405  22.424  0.00  0.00     0.033 H 
BRANCH 105 108
ATOM    108  C34 56A d   1      -4.240  24.031  24.475  0.00  0.00    -0.041 C 
ATOM    109  H40 56A d   1      -4.580  23.014  24.230  0.00  0.00     0.040 H 
ATOM    110  H41 56A d   1      -5.089  24.727  24.407  0.00  0.00     0.040 H 
BRANCH 108 111
ATOM    111  C35 56A d   1      -3.756  24.026  25.913  0.00  0.00    -0.058 A 
ATOM    112  C36 56A d   1      -4.132  25.011  26.821  0.00  0.00    -0.077 A 
ATOM    113  C37 56A d   1      -3.636  24.942  28.119  0.00  0.00    -0.082 A 
ATOM    114  H42 56A d   1      -4.796  25.814  26.524  0.00  0.00     0.084 H 
ATOM    115  C38 56A d   1      -2.754  23.946  28.500  0.00  0.00    -0.083 A 
ATOM    116  H43 56A d   1      -3.947  25.683  28.846  0.00  0.00     0.083 H 
ATOM    117  C39 56A d   1      -2.369  22.956  27.610  0.00  0.00    -0.082 A 
ATOM    118  H44 56A d   1      -2.358  23.940  29.509  0.00  0.00     0.083 H 
ATOM    119  C40 56A d   1      -2.871  23.032  26.323  0.00  0.00    -0.077 A 
ATOM    120  H45 56A d   1      -1.702  22.155  27.910  0.00  0.00     0.083 H 
ATOM    121  H46 56A d   1      -2.562  22.284  25.602  0.00  0.00     0.084 H 
ENDBRANCH 108 111
ENDBRANCH 105 108
ENDBRANCH 102 105
ENDBRANCH  99 102
ENDBRANCH  96  99
ENDBRANCH  93  96
ENDBRANCH  90  93
ENDBRANCH  87  90
ENDBRANCH  81  87
ENDBRANCH  77  80
ENDBRANCH   1  77
TORSDOF 31
