REMARK WARNING: 32 MAX_TORS EXCEEDED!!!
REMARK  46 active torsions:
REMARK  status: ('A' for Active; 'I' for Inactive)
REMARK    1  A    between atoms: N_1  and  CA_2 
REMARK    2  A    between atoms: CA_2  and  C_3 
REMARK    3  A    between atoms: CA_2  and  CB_5 
REMARK       I    between atoms: C_3  and  N_9 
REMARK    4  A    between atoms: CB_5  and  CG_6 
REMARK    5  A    between atoms: N_9  and  CA_10 
REMARK    6  A    between atoms: CA_10  and  C_11 
REMARK    7  A    between atoms: CA_10  and  CB_13 
REMARK       I    between atoms: C_11  and  N_14 
REMARK    8  A    between atoms: N_14  and  CA_15 
REMARK    9  A    between atoms: CA_15  and  C_16 
REMARK   10  A    between atoms: CA_15  and  CB_18 
REMARK       I    between atoms: C_16  and  N_22 
REMARK   11  A    between atoms: CB_18  and  CG_19 
REMARK   12  A    between atoms: CG_19  and  CD1_20 
REMARK   13  A    between atoms: CG_19  and  CD2_21 
REMARK   14  A    between atoms: N_22  and  CA_23 
REMARK   15  A    between atoms: CA_23  and  C_24 
REMARK   16  A    between atoms: CA_23  and  CB_26 
REMARK       I    between atoms: C_24  and  N_30 
REMARK   17  A    between atoms: CB_26  and  CG_27 
REMARK   18  A    between atoms: CG_27  and  CD1_28 
REMARK   19  A    between atoms: CG_27  and  CD2_29 
REMARK   20  A    between atoms: N_30  and  CA_31 
REMARK   21  A    between atoms: CA_31  and  C_32 
REMARK   22  A    between atoms: CA_31  and  CB_34 
REMARK       I    between atoms: C_32  and  N_35 
REMARK   23  A    between atoms: N_35  and  CA_36 
REMARK   24  A    between atoms: CA_36  and  C_37 
REMARK   25  A    between atoms: CA_36  and  CB_39 
REMARK       I    between atoms: C_37  and  N_43 
REMARK   26  A    between atoms: CB_39  and  CG_40 
REMARK   27  A    between atoms: N_43  and  CA_44 
REMARK   28  A    between atoms: CA_44  and  C_45 
REMARK   29  A    between atoms: CA_44  and  CB_47 
REMARK       I    between atoms: C_45  and  N_51 
REMARK   30  A    between atoms: CB_47  and  CG_48 
REMARK   31  A    between atoms: CG_48  and  CD1_49 
REMARK   32  A    between atoms: CG_48  and  CD2_50 
REMARK   33  A    between atoms: N_51  and  CA_52 
REMARK   34  A    between atoms: CA_52  and  C_53 
REMARK   35  A    between atoms: CA_52  and  CB_55 
REMARK       I    between atoms: C_53  and  N_60 
REMARK   36  A    between atoms: CB_55  and  CG_56 
REMARK   37  A    between atoms: CG_56  and  CD_57 
REMARK   38  A    between atoms: N_60  and  CA_61 
REMARK   39  A    between atoms: CA_61  and  C_62 
REMARK   40  A    between atoms: CA_61  and  CB_64 
REMARK       I    between atoms: C_62  and  N_66 
REMARK   41  A    between atoms: CB_64  and  OG_65 
REMARK   42  A    between atoms: N_66  and  CA_67 
REMARK   43  A    between atoms: CA_67  and  C_68 
REMARK   44  A    between atoms: CA_67  and  CB_70 
REMARK   45  A    between atoms: CB_70  and  OG1_71 
REMARK   46  A    between atoms: CB_70  and  CG2_72 
ROOT
ATOM      1  N   ASP d   1      18.848  -1.162  69.197  0.00  0.00    -0.346 N 
ATOM      2  H   ASP d   1      18.286  -0.315  69.108  0.00  0.00     0.163 HD
ATOM      3  C   ALA d   1      20.100  -1.056  69.643  0.00  0.00     0.240 C 
ATOM      4  O   ALA d   1      20.854  -2.019  69.789  0.00  0.00    -0.271 OA
ENDROOT
BRANCH   3   5
ATOM      5  CA  ALA d   1      20.583   0.356  69.963  0.00  0.00     0.086 C 
ATOM      6  H   ALA d   1      21.666   0.375  69.843  0.00  0.00     0.086 H 
BRANCH   5   7
ATOM      7  N   ALA d   1      20.008   1.327  69.041  0.00  0.00    -0.346 N 
ATOM      8  C   LEU d   1      20.210   1.264  67.729  0.00  0.00     0.241 C 
ATOM      9  O   LEU d   1      20.920   0.412  67.193  0.00  0.00    -0.271 OA
ATOM     10  H   ALA d   1      19.431   2.080  69.415  0.00  0.00     0.163 HD
BRANCH   8  11
ATOM     11  CA  LEU d   1      19.498   2.320  66.892  0.00  0.00     0.089 C 
ATOM     12  H   LEU d   1      19.662   2.054  65.848  0.00  0.00     0.087 H 
BRANCH  11  13
ATOM     13  N   LEU d   1      18.064   2.340  67.147  0.00  0.00    -0.346 N 
ATOM     14  C   LEU d   1      17.265   1.299  66.928  0.00  0.00     0.241 C 
ATOM     15  O   LEU d   1      17.663   0.208  66.516  0.00  0.00    -0.271 OA
ATOM     16  H   LEU d   1      17.651   3.198  67.513  0.00  0.00     0.163 HD
BRANCH  14  17
ATOM     17  CA  LEU d   1      15.785   1.535  67.220  0.00  0.00     0.089 C 
ATOM     18  H   LEU d   1      15.315   0.564  67.379  0.00  0.00     0.087 H 
BRANCH  17  19
ATOM     19  N   LEU d   1      15.573   2.318  68.444  0.00  0.00    -0.346 N 
ATOM     20  C   ALA d   1      15.983   1.922  69.650  0.00  0.00     0.240 C 
ATOM     21  O   ALA d   1      16.563   0.852  69.854  0.00  0.00    -0.271 OA
ATOM     22  H   LEU d   1      15.087   3.211  68.368  0.00  0.00     0.163 HD
BRANCH  20  23
ATOM     23  CA  ALA d   1      15.712   2.887  70.807  0.00  0.00     0.086 C 
ATOM     24  H   ALA d   1      16.276   2.529  71.668  0.00  0.00     0.086 H 
BRANCH  23  25
ATOM     25  N   ALA d   1      16.174   4.240  70.501  0.00  0.00    -0.346 N 
ATOM     26  C   ASP d   1      17.416   4.499  70.084  0.00  0.00     0.249 C 
ATOM     27  O   ASP d   1      18.300   3.636  69.971  0.00  0.00    -0.271 OA
ATOM     28  H   ALA d   1      15.522   5.017  70.610  0.00  0.00     0.163 HD
BRANCH  26  29
ATOM     29  CA  ASP d   1      17.706   5.957  69.751  0.00  0.00     0.185 C 
ATOM     30  H   ASP d   1      18.481   5.994  68.985  0.00  0.00     0.100 H 
BRANCH  29  31
ATOM     31  N   ASP d   1      16.485   6.621  69.215  0.00  0.00    -0.066 N 
ATOM     32  H   ASP d   1      16.163   6.121  68.386  0.00  0.00     0.275 HD
ATOM     33  H   ASP d   1      15.753   6.609  69.926  0.00  0.00     0.275 HD
ATOM     34  H   ASP d   1      16.705   7.586  68.967  0.00  0.00     0.275 HD
ENDBRANCH  29  31
BRANCH  29  35
ATOM     35  CB  ASP d   1      18.209   6.689  70.996  0.00  0.00     0.050 C 
ATOM     36  H   ASP d   1      17.670   6.295  71.858  0.00  0.00     0.052 H 
ATOM     37  H   ASP d   1      18.040   7.756  70.850  0.00  0.00     0.052 H 
BRANCH  35  38
ATOM     38  CG  ASP d   1      19.693   6.478  71.235  0.00  0.00     0.175 C 
ATOM     39  OD1 ASP d   1      20.105   5.328  71.503  0.00  0.00    -0.648 OA
ATOM     40  OD2 ASP d   1      20.450   7.470  71.163  0.00  0.00    -0.648 OA
ENDBRANCH  35  38
ENDBRANCH  29  35
ENDBRANCH  26  29
ENDBRANCH  23  25
BRANCH  23  41
ATOM     41  CB  ALA d   1      14.227   2.901  71.163  0.00  0.00    -0.049 C 
ATOM     42  H   ALA d   1      14.069   3.537  72.034  0.00  0.00     0.030 H 
ATOM     43  H   ALA d   1      13.656   3.290  70.320  0.00  0.00     0.030 H 
ATOM     44  H   ALA d   1      13.899   1.886  71.388  0.00  0.00     0.030 H 
ENDBRANCH  23  41
ENDBRANCH  20  23
ENDBRANCH  17  19
BRANCH  17  45
ATOM     45  CB  LEU d   1      15.147   2.248  66.024  0.00  0.00    -0.035 C 
ATOM     46  H   LEU d   1      15.561   1.726  65.161  0.00  0.00     0.037 H 
ATOM     47  H   LEU d   1      15.355   3.302  66.210  0.00  0.00     0.037 H 
BRANCH  45  48
ATOM     48  CG  LEU d   1      13.634   2.214  65.778  0.00  0.00    -0.059 C 
ATOM     49  H   LEU d   1      13.312   1.174  65.733  0.00  0.00     0.038 H 
BRANCH  48  50
ATOM     50  CD1 LEU d   1      12.832   2.854  66.913  0.00  0.00    -0.073 C 
ATOM     51  H   LEU d   1      13.030   2.320  67.842  0.00  0.00     0.028 H 
ATOM     52  H   LEU d   1      13.128   3.897  67.022  0.00  0.00     0.028 H 
ATOM     53  H   LEU d   1      11.768   2.799  66.680  0.00  0.00     0.028 H 
ENDBRANCH  48  50
BRANCH  48  54
ATOM     54  CD2 LEU d   1      13.361   2.929  64.470  0.00  0.00    -0.073 C 
ATOM     55  H   LEU d   1      13.710   3.959  64.541  0.00  0.00     0.028 H 
ATOM     56  H   LEU d   1      13.887   2.420  63.663  0.00  0.00     0.028 H 
ATOM     57  H   LEU d   1      12.290   2.920  64.269  0.00  0.00     0.028 H 
ENDBRANCH  48  54
ENDBRANCH  45  48
ENDBRANCH  17  45
ENDBRANCH  14  17
ENDBRANCH  11  13
BRANCH  11  58
ATOM     58  CB  LEU d   1      20.071   3.709  67.168  0.00  0.00    -0.035 C 
ATOM     59  H   LEU d   1      19.909   3.836  68.238  0.00  0.00     0.037 H 
ATOM     60  H   LEU d   1      19.585   4.332  66.417  0.00  0.00     0.037 H 
BRANCH  58  61
ATOM     61  CG  LEU d   1      21.549   4.046  66.997  0.00  0.00    -0.059 C 
ATOM     62  H   LEU d   1      22.136   3.544  67.766  0.00  0.00     0.038 H 
BRANCH  61  63
ATOM     63  CD1 LEU d   1      22.121   3.550  65.674  0.00  0.00    -0.073 C 
ATOM     64  H   LEU d   1      22.018   2.466  65.619  0.00  0.00     0.028 H 
ATOM     65  H   LEU d   1      21.577   4.010  64.849  0.00  0.00     0.028 H 
ATOM     66  H   LEU d   1      23.175   3.820  65.611  0.00  0.00     0.028 H 
ENDBRANCH  61  63
BRANCH  61  67
ATOM     67  CD2 LEU d   1      21.652   5.550  67.098  0.00  0.00    -0.073 C 
ATOM     68  H   LEU d   1      21.051   6.008  66.312  0.00  0.00     0.028 H 
ATOM     69  H   LEU d   1      21.285   5.873  68.072  0.00  0.00     0.028 H 
ATOM     70  H   LEU d   1      22.693   5.850  66.982  0.00  0.00     0.028 H 
ENDBRANCH  61  67
ENDBRANCH  58  61
ENDBRANCH  11  58
ENDBRANCH   8  11
ENDBRANCH   5   7
BRANCH   5  71
ATOM     71  CB  ALA d   1      20.250   0.725  71.401  0.00  0.00    -0.049 C 
ATOM     72  H   ALA d   1      20.657   1.711  71.625  0.00  0.00     0.030 H 
ATOM     73  H   ALA d   1      19.168   0.739  71.530  0.00  0.00     0.030 H 
ATOM     74  H   ALA d   1      20.688  -0.012  72.075  0.00  0.00     0.030 H 
ENDBRANCH   5  71
ENDBRANCH   3   5
BRANCH   1  75
ATOM     75  CA  ASP d   1      18.250  -2.442  68.831  0.00  0.00     0.098 C 
ATOM     76  H   ASP d   1      18.342  -3.121  69.678  0.00  0.00     0.088 H 
BRANCH  75  77
ATOM     77  C   ASP d   1      18.984  -3.066  67.647  0.00  0.00     0.241 C 
ATOM     78  O   ASP d   1      19.403  -4.226  67.705  0.00  0.00    -0.271 OA
ATOM     79  N   LEU d   1      19.139  -2.281  66.583  0.00  0.00    -0.346 N 
ATOM     80  H   LEU d   1      18.713  -1.354  66.593  0.00  0.00     0.163 HD
BRANCH  79  81
ATOM     81  CA  LEU d   1      19.893  -2.692  65.404  0.00  0.00     0.089 C 
ATOM     82  H   LEU d   1      19.397  -3.558  64.965  0.00  0.00     0.087 H 
BRANCH  81  83
ATOM     83  C   LEU d   1      21.311  -3.091  65.783  0.00  0.00     0.241 C 
ATOM     84  O   LEU d   1      21.824  -4.112  65.314  0.00  0.00    -0.271 OA
ATOM     85  N   GLU d   1      21.933  -2.272  66.631  0.00  0.00    -0.346 N 
ATOM     86  H   GLU d   1      21.434  -1.451  66.972  0.00  0.00     0.163 HD
BRANCH  85  87
ATOM     87  CA  GLU d   1      23.298  -2.502  67.091  0.00  0.00     0.090 C 
ATOM     88  H   GLU d   1      23.971  -2.476  66.234  0.00  0.00     0.087 H 
BRANCH  87  89
ATOM     89  C   GLU d   1      23.414  -3.884  67.737  0.00  0.00     0.241 C 
ATOM     90  O   GLU d   1      24.374  -4.619  67.487  0.00  0.00    -0.271 OA
ATOM     91  N   SER d   1      22.419  -4.232  68.550  0.00  0.00    -0.344 N 
ATOM     92  H   SER d   1      21.654  -3.575  68.699  0.00  0.00     0.163 HD
BRANCH  91  93
ATOM     93  CA  SER d   1      22.383  -5.519  69.236  0.00  0.00     0.109 C 
ATOM     94  H   SER d   1      23.378  -5.686  69.648  0.00  0.00     0.090 H 
BRANCH  93  95
ATOM     95  C   SER d   1      22.090  -6.679  68.286  0.00  0.00     0.243 C 
ATOM     96  O   SER d   1      22.606  -7.780  68.472  0.00  0.00    -0.271 OA
ATOM     97  N   THR d   1      21.267  -6.421  67.272  0.00  0.00    -0.342 N 
ATOM     98  H   THR d   1      20.835  -5.499  67.217  0.00  0.00     0.163 HD
BRANCH  97  99
ATOM     99  CA  THR d   1      20.954  -7.407  66.228  0.00  0.00     0.120 C 
ATOM    100  H   THR d   1      20.400  -8.220  66.696  0.00  0.00     0.093 H 
BRANCH  99 101
ATOM    101  C   THR d   1      22.237  -7.982  65.609  0.00  0.00     0.199 C 
ATOM    102  O   THR d   1      22.266  -9.173  65.199  0.00  0.00    -0.646 OA
ATOM    103  O   THR d   1      23.265  -7.260  65.511  0.00  0.00    -0.646 OA
ENDBRANCH  99 101
BRANCH  99 104
ATOM    104  CB  THR d   1      20.072  -6.766  65.114  0.00  0.00     0.061 C 
ATOM    105  H   THR d   1      20.522  -5.809  64.850  0.00  0.00     0.086 H 
BRANCH 104 106
ATOM    106  OG1 THR d   1      18.738  -6.578  65.606  0.00  0.00    -0.393 OA
ATOM    107  H   THR d   1      18.759  -5.998  66.371  0.00  0.00     0.210 HD
ENDBRANCH 104 106
BRANCH 104 108
ATOM    108  CG2 THR d   1      20.021  -7.632  63.849  0.00  0.00    -0.050 C 
ATOM    109  H   THR d   1      21.029  -7.757  63.455  0.00  0.00     0.031 H 
ATOM    110  H   THR d   1      19.602  -8.608  64.095  0.00  0.00     0.031 H 
ATOM    111  H   THR d   1      19.395  -7.145  63.102  0.00  0.00     0.031 H 
ENDBRANCH 104 108
ENDBRANCH  99 104
ENDBRANCH  97  99
ENDBRANCH  93  95
BRANCH  93 112
ATOM    112  CB  SER d   1      21.367  -5.494  70.381  0.00  0.00     0.044 C 
ATOM    113  H   SER d   1      21.192  -6.516  70.717  0.00  0.00     0.077 H 
ATOM    114  H   SER d   1      20.444  -5.040  70.021  0.00  0.00     0.077 H 
BRANCH 112 115
ATOM    115  OG  SER d   1      21.858  -4.727  71.479  0.00  0.00    -0.398 OA
ATOM    116  H   SER d   1      22.022  -3.826  71.191  0.00  0.00     0.209 HD
ENDBRANCH 112 115
ENDBRANCH  93 112
ENDBRANCH  91  93
ENDBRANCH  87  89
BRANCH  87 117
ATOM    117  CB  GLU d   1      23.729  -1.389  68.062  0.00  0.00    -0.029 C 
ATOM    118  H   GLU d   1      23.206  -1.570  69.001  0.00  0.00     0.037 H 
ATOM    119  H   GLU d   1      23.493  -0.441  67.579  0.00  0.00     0.037 H 
BRANCH 117 120
ATOM    120  CG  GLU d   1      25.227  -1.359  68.388  0.00  0.00     0.018 C 
ATOM    121  H   GLU d   1      25.433  -0.427  68.914  0.00  0.00     0.049 H 
ATOM    122  H   GLU d   1      25.773  -1.448  67.449  0.00  0.00     0.049 H 
BRANCH 120 123
ATOM    123  CD  GLU d   1      25.665  -2.508  69.290  0.00  0.00     0.172 C 
ATOM    124  OE1 GLU d   1      24.954  -2.808  70.277  0.00  0.00    -0.648 OA
ATOM    125  OE2 GLU d   1      26.722  -3.113  69.009  0.00  0.00    -0.648 OA
ENDBRANCH 120 123
ENDBRANCH 117 120
ENDBRANCH  87 117
ENDBRANCH  85  87
ENDBRANCH  81  83
BRANCH  81 126
ATOM    126  CB  LEU d   1      19.924  -1.557  64.374  0.00  0.00    -0.035 C 
ATOM    127  H   LEU d   1      19.698  -0.657  64.945  0.00  0.00     0.037 H 
ATOM    128  H   LEU d   1      19.240  -1.876  63.588  0.00  0.00     0.037 H 
BRANCH 126 129
ATOM    129  CG  LEU d   1      21.239  -1.239  63.645  0.00  0.00    -0.059 C 
ATOM    130  H   LEU d   1      22.040  -1.326  64.379  0.00  0.00     0.038 H 
BRANCH 129 131
ATOM    131  CD1 LEU d   1      21.571  -2.236  62.535  0.00  0.00    -0.073 C 
ATOM    132  H   LEU d   1      21.664  -3.235  62.962  0.00  0.00     0.028 H 
ATOM    133  H   LEU d   1      20.773  -2.230  61.792  0.00  0.00     0.028 H 
ATOM    134  H   LEU d   1      22.511  -1.952  62.062  0.00  0.00     0.028 H 
ENDBRANCH 129 131
BRANCH 129 135
ATOM    135  CD2 LEU d   1      21.192   0.171  63.098  0.00  0.00    -0.073 C 
ATOM    136  H   LEU d   1      20.360   0.261  62.399  0.00  0.00     0.028 H 
ATOM    137  H   LEU d   1      21.055   0.874  63.920  0.00  0.00     0.028 H 
ATOM    138  H   LEU d   1      22.127   0.391  62.582  0.00  0.00     0.028 H 
ENDBRANCH 129 135
ENDBRANCH 126 129
ENDBRANCH  81 126
ENDBRANCH  79  81
ENDBRANCH  75  77
BRANCH  75 139
ATOM    139  CB  ASP d   1      16.763  -2.258  68.511  0.00  0.00     0.043 C 
ATOM    140  H   ASP d   1      16.685  -1.574  67.666  0.00  0.00     0.052 H 
ATOM    141  H   ASP d   1      16.272  -1.878  69.407  0.00  0.00     0.052 H 
BRANCH 139 142
ATOM    142  CG  ASP d   1      16.083  -3.556  68.123  0.00  0.00     0.175 C 
ATOM    143  OD1 ASP d   1      15.986  -4.465  68.978  0.00  0.00    -0.648 OA
ATOM    144  OD2 ASP d   1      15.642  -3.659  66.959  0.00  0.00    -0.648 OA
ENDBRANCH 139 142
ENDBRANCH  75 139
ENDBRANCH   1  75
TORSDOF 46
