REMARK WARNING: 32 MAX_TORS EXCEEDED!!!
REMARK  58 active torsions:
REMARK  status: ('A' for Active; 'I' for Inactive)
REMARK    1  A    between atoms: N_1  and  CA_2 
REMARK    2  A    between atoms: CA_2  and  C_3 
REMARK    3  A    between atoms: CA_2  and  CB_5 
REMARK       I    between atoms: C_3  and  N_7 
REMARK    4  A    between atoms: CB_5  and  OG_6 
REMARK    5  A    between atoms: N_7  and  CA_8 
REMARK    6  A    between atoms: CA_8  and  C_9 
REMARK    7  A    between atoms: CA_8  and  CB_11 
REMARK       I    between atoms: C_9  and  N_16 
REMARK    8  A    between atoms: CB_11  and  CG_12 
REMARK    9  A    between atoms: CG_12  and  CD_13 
REMARK   10  A    between atoms: N_16  and  CA_17 
REMARK   11  A    between atoms: CA_17  and  C_18 
REMARK   12  A    between atoms: CA_17  and  CB_20 
REMARK       I    between atoms: C_18  and  N_24 
REMARK   13  A    between atoms: CB_20  and  CG_21 
REMARK   14  A    between atoms: CG_21  and  CD1_22 
REMARK   15  A    between atoms: CG_21  and  CD2_23 
REMARK   16  A    between atoms: N_24  and  CA_25 
REMARK   17  A    between atoms: CA_25  and  C_26 
REMARK   18  A    between atoms: CA_25  and  CB_28 
REMARK       I    between atoms: C_26  and  N_32 
REMARK   19  A    between atoms: CB_28  and  CG_29 
REMARK   20  A    between atoms: N_32  and  CA_33 
REMARK   21  A    between atoms: CA_33  and  C_34 
REMARK   22  A    between atoms: CA_33  and  CB_36 
REMARK       I    between atoms: C_34  and  N_43 
REMARK   23  A    between atoms: CB_36  and  CG_37 
REMARK   24  A    between atoms: CG_37  and  CD_38 
REMARK   25  A    between atoms: CD_38  and  NE_39 
REMARK       I    between atoms: NE_39  and  CZ_40 
REMARK       I    between atoms: CZ_40  and  NH1_41 
REMARK   26  A    between atoms: N_43  and  CA_44 
REMARK   27  A    between atoms: CA_44  and  C_45 
REMARK   28  A    between atoms: CA_44  and  CB_47 
REMARK       I    between atoms: C_45  and  N_51 
REMARK   29  A    between atoms: CB_47  and  CG_48 
REMARK   30  A    between atoms: CG_48  and  CD1_49 
REMARK   31  A    between atoms: CG_48  and  CD2_50 
REMARK   32  A    between atoms: N_51  and  CA_52 
REMARK   33  A    between atoms: CA_52  and  C_53 
REMARK   34  A    between atoms: CA_52  and  CB_55 
REMARK       I    between atoms: C_53  and  N_59 
REMARK   35  A    between atoms: CB_55  and  CG_56 
REMARK   36  A    between atoms: CG_56  and  CD1_57 
REMARK   37  A    between atoms: CG_56  and  CD2_58 
REMARK   38  A    between atoms: N_59  and  CA_60 
REMARK   39  A    between atoms: CA_60  and  C_61 
REMARK   40  A    between atoms: CA_60  and  CB_63 
REMARK       I    between atoms: C_61  and  N_67 
REMARK   41  A    between atoms: CB_63  and  CG_64 
REMARK   42  A    between atoms: CG_64  and  CD1_65 
REMARK   43  A    between atoms: CG_64  and  CD2_66 
REMARK   44  A    between atoms: N_67  and  CA_68 
REMARK   45  A    between atoms: CA_68  and  C_69 
REMARK   46  A    between atoms: CA_68  and  CB_71 
REMARK       I    between atoms: C_69  and  N_76 
REMARK   47  A    between atoms: CB_71  and  CG_72 
REMARK   48  A    between atoms: CG_72  and  CD_73 
REMARK   49  A    between atoms: N_76  and  CA_77 
REMARK   50  A    between atoms: CA_77  and  C_78 
REMARK   51  A    between atoms: CA_77  and  CB_80 
REMARK       I    between atoms: C_78  and  N_84 
REMARK   52  A    between atoms: CB_80  and  CG_81 
REMARK   53  A    between atoms: CG_81  and  CD1_82 
REMARK   54  A    between atoms: CG_81  and  CD2_83 
REMARK   55  A    between atoms: N_84  and  CA_85 
REMARK   56  A    between atoms: CA_85  and  C_86 
REMARK   57  A    between atoms: CA_85  and  CB_88 
REMARK   58  A    between atoms: CB_88  and  CG_89 
REMARK       I    between atoms: CG_89  and  ND2_91 
ROOT
ATOM      1  CA  LEU d   1     -23.747 -16.243   4.342  0.00  0.00     0.089 C 
ATOM      2  H   LEU d   1     -24.493 -15.667   3.795  0.00  0.00     0.087 H 
ENDROOT
BRANCH   1   3
ATOM      3  N   LEU d   1     -23.885 -17.632   3.914  0.00  0.00    -0.346 N 
ATOM      4  C   ARG d   1     -23.967 -17.981   2.632  0.00  0.00     0.241 C 
ATOM      5  O   ARG d   1     -23.993 -17.166   1.708  0.00  0.00    -0.271 OA
ATOM      6  H   LEU d   1     -23.920 -18.363   4.625  0.00  0.00     0.163 HD
BRANCH   4   7
ATOM      7  CA  ARG d   1     -24.035 -19.479   2.345  0.00  0.00     0.089 C 
ATOM      8  H   ARG d   1     -23.535 -19.649   1.391  0.00  0.00     0.087 H 
BRANCH   7   9
ATOM      9  N   ARG d   1     -23.312 -20.286   3.336  0.00  0.00    -0.346 N 
ATOM     10  C   ASP d   1     -22.005 -20.152   3.559  0.00  0.00     0.241 C 
ATOM     11  O   ASP d   1     -21.302 -19.323   2.977  0.00  0.00    -0.271 OA
ATOM     12  H   ARG d   1     -23.832 -20.978   3.876  0.00  0.00     0.163 HD
BRANCH  10  13
ATOM     13  CA  ASP d   1     -21.389 -21.092   4.594  0.00  0.00     0.098 C 
ATOM     14  H   ASP d   1     -20.586 -20.547   5.091  0.00  0.00     0.088 H 
BRANCH  13  15
ATOM     15  N   ASP d   1     -22.336 -21.482   5.641  0.00  0.00    -0.346 N 
ATOM     16  C   LEU d   1     -22.640 -20.694   6.673  0.00  0.00     0.241 C 
ATOM     17  O   LEU d   1     -22.146 -19.575   6.839  0.00  0.00    -0.271 OA
ATOM     18  H   ASP d   1     -22.783 -22.397   5.578  0.00  0.00     0.163 HD
BRANCH  16  19
ATOM     19  CA  LEU d   1     -23.663 -21.249   7.668  0.00  0.00     0.089 C 
ATOM     20  H   LEU d   1     -24.082 -20.410   8.223  0.00  0.00     0.087 H 
BRANCH  19  21
ATOM     21  N   LEU d   1     -24.755 -21.928   6.977  0.00  0.00    -0.346 N 
ATOM     22  C   GLU d   1     -25.638 -21.287   6.215  0.00  0.00     0.241 C 
ATOM     23  O   GLU d   1     -25.653 -20.061   6.078  0.00  0.00    -0.271 OA
ATOM     24  H   LEU d   1     -24.845 -22.939   7.083  0.00  0.00     0.163 HD
BRANCH  22  25
ATOM     25  CA  GLU d   1     -26.668 -22.163   5.502  0.00  0.00     0.090 C 
ATOM     26  H   GLU d   1     -26.786 -21.758   4.497  0.00  0.00     0.087 H 
BRANCH  25  27
ATOM     27  N   GLU d   1     -26.234 -23.556   5.332  0.00  0.00    -0.346 N 
ATOM     28  C   SER d   1     -25.169 -23.909   4.609  0.00  0.00     0.251 C 
ATOM     29  O   SER d   1     -24.443 -23.098   4.029  0.00  0.00    -0.271 OA
ATOM     30  H   GLU d   1     -26.774 -24.291   5.790  0.00  0.00     0.163 HD
BRANCH  28  31
ATOM     31  CA  SER d   1     -24.870 -25.409   4.534  0.00  0.00     0.195 C 
ATOM     32  H   SER d   1     -23.815 -25.515   4.280  0.00  0.00     0.102 H 
BRANCH  31  33
ATOM     33  N   SER d   1     -25.076 -26.095   5.845  0.00  0.00    -0.064 N 
ATOM     34  H   SER d   1     -24.505 -25.641   6.558  0.00  0.00     0.275 HD
ATOM     35  H   SER d   1     -26.060 -26.036   6.107  0.00  0.00     0.275 HD
ATOM     36  H   SER d   1     -24.803 -27.074   5.761  0.00  0.00     0.275 HD
ENDBRANCH  31  33
BRANCH  31  37
ATOM     37  CB  SER d   1     -25.717 -26.070   3.441  0.00  0.00     0.051 C 
ATOM     38  H   SER d   1     -25.449 -27.125   3.386  0.00  0.00     0.077 H 
ATOM     39  H   SER d   1     -25.523 -25.561   2.497  0.00  0.00     0.077 H 
BRANCH  37  40
ATOM     40  OG  SER d   1     -27.102 -25.971   3.730  0.00  0.00    -0.398 OA
ATOM     41  H   SER d   1     -27.605 -26.393   3.029  0.00  0.00     0.209 HD
ENDBRANCH  37  40
ENDBRANCH  31  37
ENDBRANCH  28  31
ENDBRANCH  25  27
BRANCH  25  42
ATOM     42  CB  GLU d   1     -28.002 -22.108   6.253  0.00  0.00    -0.029 C 
ATOM     43  H   GLU d   1     -28.095 -21.104   6.667  0.00  0.00     0.037 H 
ATOM     44  H   GLU d   1     -27.982 -22.903   6.998  0.00  0.00     0.037 H 
BRANCH  42  45
ATOM     45  CG  GLU d   1     -29.229 -22.346   5.379  0.00  0.00     0.018 C 
ATOM     46  H   GLU d   1     -30.056 -22.610   6.038  0.00  0.00     0.049 H 
ATOM     47  H   GLU d   1     -28.977 -23.131   4.666  0.00  0.00     0.049 H 
BRANCH  45  48
ATOM     48  CD  GLU d   1     -29.651 -21.116   4.580  0.00  0.00     0.172 C 
ATOM     49  OE1 GLU d   1     -29.215 -19.991   4.912  0.00  0.00    -0.648 OA
ATOM     50  OE2 GLU d   1     -30.431 -21.280   3.618  0.00  0.00    -0.648 OA
ENDBRANCH  45  48
ENDBRANCH  42  45
ENDBRANCH  25  42
ENDBRANCH  22  25
ENDBRANCH  19  21
BRANCH  19  51
ATOM     51  CB  LEU d   1     -22.982 -22.209   8.653  0.00  0.00    -0.035 C 
ATOM     52  H   LEU d   1     -22.324 -21.583   9.255  0.00  0.00     0.037 H 
ATOM     53  H   LEU d   1     -22.532 -22.984   8.033  0.00  0.00     0.037 H 
BRANCH  51  54
ATOM     54  CG  LEU d   1     -23.862 -22.959   9.663  0.00  0.00    -0.059 C 
ATOM     55  H   LEU d   1     -24.790 -23.222   9.156  0.00  0.00     0.038 H 
BRANCH  54  56
ATOM     56  CD1 LEU d   1     -23.184 -24.244  10.122  0.00  0.00    -0.073 C 
ATOM     57  H   LEU d   1     -23.009 -24.889   9.261  0.00  0.00     0.028 H 
ATOM     58  H   LEU d   1     -22.233 -24.002  10.596  0.00  0.00     0.028 H 
ATOM     59  H   LEU d   1     -23.827 -24.757  10.837  0.00  0.00     0.028 H 
ENDBRANCH  54  56
BRANCH  54  60
ATOM     60  CD2 LEU d   1     -24.227 -22.081  10.855  0.00  0.00    -0.073 C 
ATOM     61  H   LEU d   1     -23.316 -21.763  11.363  0.00  0.00     0.028 H 
ATOM     62  H   LEU d   1     -24.775 -21.206  10.506  0.00  0.00     0.028 H 
ATOM     63  H   LEU d   1     -24.850 -22.649  11.546  0.00  0.00     0.028 H 
ENDBRANCH  54  60
ENDBRANCH  51  54
ENDBRANCH  19  51
ENDBRANCH  16  19
ENDBRANCH  13  15
BRANCH  13  64
ATOM     64  CB  ASP d   1     -20.816 -22.330   3.895  0.00  0.00     0.043 C 
ATOM     65  H   ASP d   1     -20.357 -22.004   2.962  0.00  0.00     0.052 H 
ATOM     66  H   ASP d   1     -21.633 -23.034   3.740  0.00  0.00     0.052 H 
BRANCH  64  67
ATOM     67  CG  ASP d   1     -19.749 -23.030   4.719  0.00  0.00     0.175 C 
ATOM     68  OD1 ASP d   1     -18.750 -22.377   5.093  0.00  0.00    -0.648 OA
ATOM     69  OD2 ASP d   1     -19.901 -24.243   4.979  0.00  0.00    -0.648 OA
ENDBRANCH  64  67
ENDBRANCH  13  64
ENDBRANCH  10  13
ENDBRANCH   7   9
BRANCH   7  70
ATOM     70  CB  ARG d   1     -25.496 -19.922   2.246  0.00  0.00    -0.036 C 
ATOM     71  H   ARG d   1     -26.008 -19.199   1.610  0.00  0.00     0.036 H 
ATOM     72  H   ARG d   1     -25.884 -19.979   3.263  0.00  0.00     0.036 H 
BRANCH  70  73
ATOM     73  CG  ARG d   1     -25.693 -21.290   1.616  0.00  0.00    -0.048 C 
ATOM     74  H   ARG d   1     -25.184 -22.032   2.232  0.00  0.00     0.035 H 
ATOM     75  H   ARG d   1     -25.286 -21.268   0.605  0.00  0.00     0.035 H 
BRANCH  73  76
ATOM     76  CD  ARG d   1     -27.164 -21.654   1.537  0.00  0.00     0.009 C 
ATOM     77  H   ARG d   1     -27.619 -21.074   0.734  0.00  0.00     0.064 H 
ATOM     78  H   ARG d   1     -27.624 -21.437   2.501  0.00  0.00     0.064 H 
BRANCH  76  79
ATOM     79  NE  ARG d   1     -27.355 -23.073   1.245  0.00  0.00    -0.227 N 
ATOM     80  CZ  ARG d   1     -28.536 -23.687   1.205  0.00  0.00     0.665 C 
ATOM     81  NH1 ARG d   1     -29.656 -23.012   1.437  0.00  0.00    -0.235 N 
ATOM     82  NH2 ARG d   1     -28.595 -24.984   0.933  0.00  0.00    -0.235 N 
ATOM     83  H   ARG d   1     -29.616 -22.015   1.648  0.00  0.00     0.174 HD
ATOM     84  H   ARG d   1     -30.556 -23.491   1.404  0.00  0.00     0.174 HD
ATOM     85  H   ARG d   1     -27.738 -25.507   0.755  0.00  0.00     0.174 HD
ATOM     86  H   ARG d   1     -29.498 -25.458   0.901  0.00  0.00     0.174 HD
ATOM     87  H   ARG d   1     -26.524 -23.634   1.058  0.00  0.00     0.177 HD
ENDBRANCH  76  79
ENDBRANCH  73  76
ENDBRANCH  70  73
ENDBRANCH   7  70
ENDBRANCH   4   7
ENDBRANCH   1   3
BRANCH   1  88
ATOM     88  C   LEU d   1     -22.376 -15.667   4.000  0.00  0.00     0.241 C 
ATOM     89  O   LEU d   1     -22.284 -14.585   3.418  0.00  0.00    -0.271 OA
ATOM     90  N   LEU d   1     -21.321 -16.398   4.359  0.00  0.00    -0.346 N 
ATOM     91  H   LEU d   1     -21.480 -17.307   4.793  0.00  0.00     0.163 HD
BRANCH  90  92
ATOM     92  CA  LEU d   1     -19.942 -15.947   4.155  0.00  0.00     0.089 C 
ATOM     93  H   LEU d   1     -19.870 -14.973   4.639  0.00  0.00     0.087 H 
BRANCH  92  94
ATOM     94  C   LEU d   1     -19.585 -15.744   2.683  0.00  0.00     0.241 C 
ATOM     95  O   LEU d   1     -18.816 -14.840   2.349  0.00  0.00    -0.271 OA
ATOM     96  N   LEU d   1     -20.146 -16.585   1.815  0.00  0.00    -0.346 N 
ATOM     97  H   LEU d   1     -20.773 -17.309   2.166  0.00  0.00     0.163 HD
BRANCH  96  98
ATOM     98  CA  LEU d   1     -19.894 -16.507   0.375  0.00  0.00     0.089 C 
ATOM     99  H   LEU d   1     -18.813 -16.483   0.240  0.00  0.00     0.087 H 
BRANCH  98 100
ATOM    100  C   LEU d   1     -20.460 -15.228  -0.238  0.00  0.00     0.241 C 
ATOM    101  O   LEU d   1     -19.780 -14.553  -1.014  0.00  0.00    -0.271 OA
ATOM    102  N   GLU d   1     -21.699 -14.898   0.123  0.00  0.00    -0.346 N 
ATOM    103  H   GLU d   1     -22.202 -15.505   0.771  0.00  0.00     0.163 HD
BRANCH 102 104
ATOM    104  CA  GLU d   1     -22.363 -13.694  -0.379  0.00  0.00     0.090 C 
ATOM    105  H   GLU d   1     -22.133 -13.630  -1.443  0.00  0.00     0.087 H 
BRANCH 104 106
ATOM    106  C   GLU d   1     -21.830 -12.414   0.267  0.00  0.00     0.241 C 
ATOM    107  O   GLU d   1     -21.953 -11.329  -0.304  0.00  0.00    -0.271 OA
ATOM    108  N   LEU d   1     -21.239 -12.547   1.454  0.00  0.00    -0.346 N 
ATOM    109  H   LEU d   1     -21.226 -13.464   1.900  0.00  0.00     0.163 HD
BRANCH 108 110
ATOM    110  CA  LEU d   1     -20.609 -11.418   2.137  0.00  0.00     0.089 C 
ATOM    111  H   LEU d   1     -21.239 -10.546   1.960  0.00  0.00     0.087 H 
BRANCH 110 112
ATOM    112  C   LEU d   1     -19.223 -11.108   1.571  0.00  0.00     0.241 C 
ATOM    113  O   LEU d   1     -18.789  -9.954   1.577  0.00  0.00    -0.271 OA
ATOM    114  N   ASN d   1     -18.536 -12.142   1.087  0.00  0.00    -0.344 N 
ATOM    115  H   ASN d   1     -18.933 -13.078   1.168  0.00  0.00     0.163 HD
BRANCH 114 116
ATOM    116  CA  ASN d   1     -17.232 -11.982   0.443  0.00  0.00     0.104 C 
ATOM    117  H   ASN d   1     -16.767 -11.098   0.880  0.00  0.00     0.090 H 
BRANCH 116 118
ATOM    118  C   ASN d   1     -17.358 -11.742  -1.057  0.00  0.00     0.197 C 
ATOM    119  O   ASN d   1     -17.952 -10.722  -1.499  0.00  0.00    -0.646 OA
ATOM    120  O   ASN d   1     -16.863 -12.573  -1.864  0.00  0.00    -0.646 OA
ENDBRANCH 116 118
BRANCH 116 121
ATOM    121  CB  ASN d   1     -16.342 -13.199   0.711  0.00  0.00     0.037 C 
ATOM    122  H   ASN d   1     -15.587 -13.241  -0.074  0.00  0.00     0.051 H 
ATOM    123  H   ASN d   1     -16.980 -14.083   0.729  0.00  0.00     0.051 H 
BRANCH 121 124
ATOM    124  CG  ASN d   1     -15.621 -13.116   2.047  0.00  0.00     0.217 C 
ATOM    125  OD1 ASN d   1     -14.984 -12.110   2.363  0.00  0.00    -0.274 OA
ATOM    126  ND2 ASN d   1     -15.706 -14.184   2.833  0.00  0.00    -0.370 N 
ATOM    127  H   ASN d   1     -15.233 -14.191   3.737  0.00  0.00     0.159 HD
ATOM    128  H   ASN d   1     -16.244 -14.997   2.533  0.00  0.00     0.159 HD
ENDBRANCH 121 124
ENDBRANCH 116 121
ENDBRANCH 114 116
ENDBRANCH 110 112
BRANCH 110 129
ATOM    129  CB  LEU d   1     -20.528 -11.666   3.647  0.00  0.00    -0.035 C 
ATOM    130  H   LEU d   1     -19.855 -10.899   4.032  0.00  0.00     0.037 H 
ATOM    131  H   LEU d   1     -20.226 -12.708   3.755  0.00  0.00     0.037 H 
BRANCH 129 132
ATOM    132  CG  LEU d   1     -21.817 -11.527   4.464  0.00  0.00    -0.059 C 
ATOM    133  H   LEU d   1     -22.609 -12.043   3.921  0.00  0.00     0.038 H 
BRANCH 132 134
ATOM    134  CD1 LEU d   1     -21.648 -12.174   5.827  0.00  0.00    -0.073 C 
ATOM    135  H   LEU d   1     -21.419 -13.232   5.700  0.00  0.00     0.028 H 
ATOM    136  H   LEU d   1     -20.833 -11.686   6.361  0.00  0.00     0.028 H 
ATOM    137  H   LEU d   1     -22.572 -12.067   6.396  0.00  0.00     0.028 H 
ENDBRANCH 132 134
BRANCH 132 138
ATOM    138  CD2 LEU d   1     -22.245 -10.071   4.610  0.00  0.00    -0.073 C 
ATOM    139  H   LEU d   1     -21.458  -9.511   5.116  0.00  0.00     0.028 H 
ATOM    140  H   LEU d   1     -22.419  -9.644   3.622  0.00  0.00     0.028 H 
ATOM    141  H   LEU d   1     -23.163 -10.020   5.196  0.00  0.00     0.028 H 
ENDBRANCH 132 138
ENDBRANCH 129 132
ENDBRANCH 110 129
ENDBRANCH 108 110
ENDBRANCH 104 106
BRANCH 104 142
ATOM    142  CB  GLU d   1     -23.883 -13.797  -0.208  0.00  0.00    -0.029 C 
ATOM    143  H   GLU d   1     -24.297 -12.806  -0.391  0.00  0.00     0.037 H 
ATOM    144  H   GLU d   1     -24.071 -14.177   0.796  0.00  0.00     0.037 H 
BRANCH 142 145
ATOM    145  CG  GLU d   1     -24.554 -14.758  -1.190  0.00  0.00     0.018 C 
ATOM    146  H   GLU d   1     -24.154 -15.754  -1.001  0.00  0.00     0.049 H 
ATOM    147  H   GLU d   1     -24.350 -14.396  -2.197  0.00  0.00     0.049 H 
BRANCH 145 148
ATOM    148  CD  GLU d   1     -26.065 -14.829  -1.024  0.00  0.00     0.172 C 
ATOM    149  OE1 GLU d   1     -26.548 -14.860   0.129  0.00  0.00    -0.648 OA
ATOM    150  OE2 GLU d   1     -26.773 -14.866  -2.054  0.00  0.00    -0.648 OA
ENDBRANCH 145 148
ENDBRANCH 142 145
ENDBRANCH 104 142
ENDBRANCH 102 104
ENDBRANCH  98 100
BRANCH  98 151
ATOM    151  CB  LEU d   1     -20.453 -17.741  -0.345  0.00  0.00    -0.035 C 
ATOM    152  H   LEU d   1     -20.319 -17.544  -1.409  0.00  0.00     0.037 H 
ATOM    153  H   LEU d   1     -21.472 -17.857   0.024  0.00  0.00     0.037 H 
BRANCH 151 154
ATOM    154  CG  LEU d   1     -19.767 -19.089  -0.088  0.00  0.00    -0.059 C 
ATOM    155  H   LEU d   1     -19.639 -19.192   0.990  0.00  0.00     0.038 H 
BRANCH 154 156
ATOM    156  CD1 LEU d   1     -20.634 -20.241  -0.578  0.00  0.00    -0.073 C 
ATOM    157  H   LEU d   1     -21.588 -20.226  -0.051  0.00  0.00     0.028 H 
ATOM    158  H   LEU d   1     -20.808 -20.134  -1.649  0.00  0.00     0.028 H 
ATOM    159  H   LEU d   1     -20.125 -21.185  -0.384  0.00  0.00     0.028 H 
ENDBRANCH 154 156
BRANCH 154 160
ATOM    160  CD2 LEU d   1     -18.378 -19.144  -0.724  0.00  0.00    -0.073 C 
ATOM    161  H   LEU d   1     -18.467 -19.003  -1.801  0.00  0.00     0.028 H 
ATOM    162  H   LEU d   1     -17.755 -18.355  -0.303  0.00  0.00     0.028 H 
ATOM    163  H   LEU d   1     -17.924 -20.114  -0.520  0.00  0.00     0.028 H 
ENDBRANCH 154 160
ENDBRANCH 151 154
ENDBRANCH  98 151
ENDBRANCH  96  98
ENDBRANCH  92  94
BRANCH  92 164
ATOM    164  CB  LEU d   1     -18.948 -16.919   4.803  0.00  0.00    -0.035 C 
ATOM    165  H   LEU d   1     -17.968 -16.534   4.521  0.00  0.00     0.037 H 
ATOM    166  H   LEU d   1     -19.268 -17.903   4.460  0.00  0.00     0.037 H 
BRANCH 164 167
ATOM    167  CG  LEU d   1     -18.883 -17.048   6.329  0.00  0.00    -0.059 C 
ATOM    168  H   LEU d   1     -19.878 -17.313   6.686  0.00  0.00     0.038 H 
BRANCH 167 169
ATOM    169  CD1 LEU d   1     -17.894 -18.140   6.704  0.00  0.00    -0.073 C 
ATOM    170  H   LEU d   1     -18.219 -19.087   6.272  0.00  0.00     0.028 H 
ATOM    171  H   LEU d   1     -16.907 -17.883   6.318  0.00  0.00     0.028 H 
ATOM    172  H   LEU d   1     -17.849 -18.230   7.789  0.00  0.00     0.028 H 
ENDBRANCH 167 169
BRANCH 167 173
ATOM    173  CD2 LEU d   1     -18.504 -15.730   7.005  0.00  0.00    -0.073 C 
ATOM    174  H   LEU d   1     -17.525 -15.409   6.650  0.00  0.00     0.028 H 
ATOM    175  H   LEU d   1     -19.247 -14.971   6.760  0.00  0.00     0.028 H 
ATOM    176  H   LEU d   1     -18.471 -15.873   8.085  0.00  0.00     0.028 H 
ENDBRANCH 167 173
ENDBRANCH 164 167
ENDBRANCH  92 164
ENDBRANCH  90  92
ENDBRANCH   1  88
BRANCH   1 177
ATOM    177  CB  LEU d   1     -24.008 -16.113   5.845  0.00  0.00    -0.035 C 
ATOM    178  H   LEU d   1     -23.420 -15.255   6.170  0.00  0.00     0.037 H 
ATOM    179  H   LEU d   1     -23.761 -17.086   6.269  0.00  0.00     0.037 H 
BRANCH 177 180
ATOM    180  CG  LEU d   1     -25.441 -15.822   6.295  0.00  0.00    -0.059 C 
ATOM    181  H   LEU d   1     -26.119 -16.390   5.658  0.00  0.00     0.038 H 
BRANCH 180 182
ATOM    182  CD1 LEU d   1     -25.652 -16.269   7.733  0.00  0.00    -0.073 C 
ATOM    183  H   LEU d   1     -25.468 -17.341   7.810  0.00  0.00     0.028 H 
ATOM    184  H   LEU d   1     -24.961 -15.733   8.384  0.00  0.00     0.028 H 
ATOM    185  H   LEU d   1     -26.677 -16.053   8.033  0.00  0.00     0.028 H 
ENDBRANCH 180 182
BRANCH 180 186
ATOM    186  CD2 LEU d   1     -25.775 -14.342   6.131  0.00  0.00    -0.073 C 
ATOM    187  H   LEU d   1     -25.090 -13.747   6.736  0.00  0.00     0.028 H 
ATOM    188  H   LEU d   1     -25.673 -14.062   5.082  0.00  0.00     0.028 H 
ATOM    189  H   LEU d   1     -26.799 -14.164   6.458  0.00  0.00     0.028 H 
ENDBRANCH 180 186
ENDBRANCH 177 180
ENDBRANCH   1 177
TORSDOF 58
