REMARK WARNING: 32 MAX_TORS EXCEEDED!!!
REMARK  59 active torsions:
REMARK  status: ('A' for Active; 'I' for Inactive)
REMARK    1  A    between atoms: N_1  and  CA_2 
REMARK    2  A    between atoms: CA_2  and  C_3 
REMARK    3  A    between atoms: CA_2  and  CB_5 
REMARK       I    between atoms: C_3  and  N_6 
REMARK    4  A    between atoms: N_6  and  CA_7 
REMARK    5  A    between atoms: CA_7  and  C_8 
REMARK    6  A    between atoms: CA_7  and  CB_10 
REMARK       I    between atoms: C_8  and  N_13 
REMARK    7  A    between atoms: CB_10  and  OG1_11 
REMARK    8  A    between atoms: CB_10  and  CG2_12 
REMARK    9  A    between atoms: N_13  and  CA_14 
REMARK   10  A    between atoms: CA_14  and  C_15 
REMARK   11  A    between atoms: CA_14  and  CB_17 
REMARK       I    between atoms: C_15  and  N_24 
REMARK   12  A    between atoms: CB_17  and  CG_18 
REMARK   13  A    between atoms: CG_18  and  CD_19 
REMARK   14  A    between atoms: CD_19  and  NE_20 
REMARK       I    between atoms: NE_20  and  CZ_21 
REMARK       I    between atoms: CZ_21  and  NH1_22 
REMARK   15  A    between atoms: N_24  and  CA_25 
REMARK   16  A    between atoms: CA_25  and  C_26 
REMARK   17  A    between atoms: CA_25  and  CB_28 
REMARK       I    between atoms: C_26  and  N_33 
REMARK   18  A    between atoms: CB_28  and  CG_29 
REMARK   19  A    between atoms: CG_29  and  CD_30 
REMARK   20  A    between atoms: N_33  and  CA_34 
REMARK   21  A    between atoms: CA_34  and  C_35 
REMARK   22  A    between atoms: CA_34  and  CB_37 
REMARK       I    between atoms: C_35  and  N_41 
REMARK   23  A    between atoms: CB_37  and  CG_38 
REMARK   24  A    between atoms: CG_38  and  CD1_39 
REMARK   25  A    between atoms: CG_38  and  CD2_40 
REMARK   26  A    between atoms: N_41  and  CA_42 
REMARK   27  A    between atoms: CA_42  and  C_43 
REMARK   28  A    between atoms: CA_42  and  CB_45 
REMARK       I    between atoms: C_43  and  N_49 
REMARK   29  A    between atoms: CB_45  and  CG_46 
REMARK   30  A    between atoms: N_49  and  CA_50 
REMARK   31  A    between atoms: CA_50  and  C_51 
REMARK   32  A    between atoms: CA_50  and  CB_53 
REMARK       I    between atoms: C_51  and  N_58 
REMARK   33  A    between atoms: CB_53  and  CG_54 
REMARK   34  A    between atoms: CG_54  and  CD_55 
REMARK   35  A    between atoms: N_58  and  CA_59 
REMARK   36  A    between atoms: CA_59  and  C_60 
REMARK   37  A    between atoms: CA_59  and  CB_62 
REMARK       I    between atoms: C_60  and  N_66 
REMARK   38  A    between atoms: CB_62  and  CG_63 
REMARK   39  A    between atoms: CG_63  and  CD1_64 
REMARK   40  A    between atoms: CG_63  and  CD2_65 
REMARK   41  A    between atoms: N_66  and  CA_67 
REMARK   42  A    between atoms: CA_67  and  C_68 
REMARK   43  A    between atoms: CA_67  and  CB_70 
REMARK       I    between atoms: C_68  and  N_74 
REMARK   44  A    between atoms: CB_70  and  CG_71 
REMARK   45  A    between atoms: CG_71  and  SD_72 
REMARK   46  A    between atoms: SD_72  and  CE_73 
REMARK   47  A    between atoms: N_74  and  CA_75 
REMARK   48  A    between atoms: CA_75  and  C_76 
REMARK   49  A    between atoms: CA_75  and  CB_78 
REMARK       I    between atoms: C_76  and  N_79 
REMARK   50  A    between atoms: N_79  and  CA_80 
REMARK   51  A    between atoms: CA_80  and  C_81 
REMARK   52  A    between atoms: CA_80  and  CB_83 
REMARK       I    between atoms: C_81  and  N_85 
REMARK   53  A    between atoms: CB_83  and  OG_84 
REMARK   54  A    between atoms: N_85  and  CA_86 
REMARK   55  A    between atoms: CA_86  and  C_87 
REMARK   56  A    between atoms: CA_86  and  CB_89 
REMARK   57  A    between atoms: CB_89  and  CG_90 
REMARK   58  A    between atoms: CG_90  and  CD1_91 
REMARK   59  A    between atoms: CG_90  and  CD2_92 
ROOT
ATOM      1  CA  ASP d   1      19.570  -3.412  67.632  0.00  0.00     0.098 C 
ATOM      2  H   ASP d   1      18.865  -3.177  66.834  0.00  0.00     0.088 H 
ENDROOT
BRANCH   1   3
ATOM      3  N   ASP d   1      20.918  -3.347  67.071  0.00  0.00    -0.346 N 
ATOM      4  C   LEU d   1      21.325  -2.348  66.290  0.00  0.00     0.241 C 
ATOM      5  O   LEU d   1      20.596  -1.423  65.940  0.00  0.00    -0.271 OA
ATOM      6  H   ASP d   1      21.574  -4.098  67.287  0.00  0.00     0.163 HD
BRANCH   4   7
ATOM      7  CA  LEU d   1      22.781  -2.400  65.841  0.00  0.00     0.089 C 
ATOM      8  H   LEU d   1      23.105  -1.393  65.579  0.00  0.00     0.087 H 
BRANCH   7   9
ATOM      9  N   LEU d   1      23.612  -2.895  66.932  0.00  0.00    -0.346 N 
ATOM     10  C   GLU d   1      23.893  -2.146  67.995  0.00  0.00     0.241 C 
ATOM     11  O   GLU d   1      23.581  -0.953  68.081  0.00  0.00    -0.271 OA
ATOM     12  H   LEU d   1      23.988  -3.842  66.879  0.00  0.00     0.163 HD
BRANCH  10  13
ATOM     13  CA  GLU d   1      24.641  -2.838  69.138  0.00  0.00     0.090 C 
ATOM     14  H   GLU d   1      24.186  -2.474  70.059  0.00  0.00     0.087 H 
BRANCH  13  15
ATOM     15  N   GLU d   1      24.462  -4.299  69.184  0.00  0.00    -0.346 N 
ATOM     16  C   ARG d   1      23.286  -4.870  69.444  0.00  0.00     0.241 C 
ATOM     17  O   ARG d   1      22.242  -4.231  69.574  0.00  0.00    -0.271 OA
ATOM     18  H   GLU d   1      25.270  -4.897  69.010  0.00  0.00     0.163 HD
BRANCH  16  19
ATOM     19  CA  ARG d   1      23.272  -6.393  69.572  0.00  0.00     0.089 C 
ATOM     20  H   ARG d   1      22.223  -6.690  69.591  0.00  0.00     0.087 H 
BRANCH  19  21
ATOM     21  N   ARG d   1      23.860  -7.094  68.428  0.00  0.00    -0.346 N 
ATOM     22  C   THR d   1      23.478  -6.905  67.164  0.00  0.00     0.243 C 
ATOM     23  O   THR d   1      22.648  -6.064  66.819  0.00  0.00    -0.271 OA
ATOM     24  H   ARG d   1      24.605  -7.766  68.609  0.00  0.00     0.163 HD
BRANCH  22  25
ATOM     25  CA  THR d   1      24.151  -7.800  66.128  0.00  0.00     0.113 C 
ATOM     26  H   THR d   1      24.314  -7.244  65.205  0.00  0.00     0.091 H 
BRANCH  25  27
ATOM     27  N   THR d   1      25.471  -8.230  66.593  0.00  0.00    -0.344 N 
ATOM     28  C   ALA d   1      26.525  -7.414  66.591  0.00  0.00     0.248 C 
ATOM     29  O   ALA d   1      26.499  -6.280  66.107  0.00  0.00    -0.271 OA
ATOM     30  H   THR d   1      25.588  -9.186  66.930  0.00  0.00     0.163 HD
BRANCH  28  31
ATOM     31  CA  ALA d   1      27.804  -7.954  67.231  0.00  0.00     0.172 C 
ATOM     32  H   ALA d   1      28.489  -7.113  67.339  0.00  0.00     0.098 H 
BRANCH  31  33
ATOM     33  N   ALA d   1      27.550  -8.510  68.592  0.00  0.00    -0.067 N 
ATOM     34  H   ALA d   1      27.111  -7.796  69.173  0.00  0.00     0.275 HD
ATOM     35  H   ALA d   1      26.931  -9.317  68.518  0.00  0.00     0.275 HD
ATOM     36  H   ALA d   1      28.435  -8.796  69.012  0.00  0.00     0.275 HD
ENDBRANCH  31  33
BRANCH  31  37
ATOM     37  CB  ALA d   1      28.458  -8.999  66.343  0.00  0.00    -0.042 C 
ATOM     38  H   ALA d   1      27.767  -9.828  66.189  0.00  0.00     0.030 H 
ATOM     39  H   ALA d   1      28.710  -8.551  65.382  0.00  0.00     0.030 H 
ATOM     40  H   ALA d   1      29.365  -9.366  66.823  0.00  0.00     0.030 H 
ENDBRANCH  31  37
ENDBRANCH  28  31
ENDBRANCH  25  27
BRANCH  25  41
ATOM     41  CB  THR d   1      23.221  -8.998  65.823  0.00  0.00     0.060 C 
ATOM     42  H   THR d   1      22.199  -8.627  65.746  0.00  0.00     0.086 H 
BRANCH  41  43
ATOM     43  OG1 THR d   1      23.309  -9.962  66.880  0.00  0.00    -0.393 OA
ATOM     44  H   THR d   1      22.730 -10.703  66.685  0.00  0.00     0.210 HD
ENDBRANCH  41  43
BRANCH  41  45
ATOM     45  CG2 THR d   1      23.602  -9.657  64.507  0.00  0.00    -0.050 C 
ATOM     46  H   THR d   1      24.623 -10.034  64.573  0.00  0.00     0.031 H 
ATOM     47  H   THR d   1      22.920 -10.483  64.305  0.00  0.00     0.031 H 
ATOM     48  H   THR d   1      23.535  -8.925  63.703  0.00  0.00     0.031 H 
ENDBRANCH  41  45
ENDBRANCH  25  41
ENDBRANCH  22  25
ENDBRANCH  19  21
BRANCH  19  49
ATOM     49  CB  ARG d   1      23.966  -6.813  70.874  0.00  0.00    -0.036 C 
ATOM     50  H   ARG d   1      23.573  -6.172  71.663  0.00  0.00     0.036 H 
ATOM     51  H   ARG d   1      25.039  -6.723  70.704  0.00  0.00     0.036 H 
BRANCH  49  52
ATOM     52  CG  ARG d   1      23.705  -8.250  71.301  0.00  0.00    -0.048 C 
ATOM     53  H   ARG d   1      24.158  -8.919  70.570  0.00  0.00     0.035 H 
ATOM     54  H   ARG d   1      22.628  -8.406  71.361  0.00  0.00     0.035 H 
BRANCH  52  55
ATOM     55  CD  ARG d   1      24.315  -8.536  72.666  0.00  0.00     0.009 C 
ATOM     56  H   ARG d   1      23.932  -7.796  73.369  0.00  0.00     0.064 H 
ATOM     57  H   ARG d   1      25.400  -8.491  72.568  0.00  0.00     0.064 H 
BRANCH  55  58
ATOM     58  NE  ARG d   1      23.960  -9.864  73.166  0.00  0.00    -0.227 N 
ATOM     59  CZ  ARG d   1      24.764 -10.925  73.141  0.00  0.00     0.665 C 
ATOM     60  NH1 ARG d   1      25.990 -10.833  72.642  0.00  0.00    -0.235 N 
ATOM     61  NH2 ARG d   1      24.338 -12.084  73.623  0.00  0.00    -0.235 N 
ATOM     62  H   ARG d   1      26.325  -9.943  72.273  0.00  0.00     0.174 HD
ATOM     63  H   ARG d   1      26.598 -11.652  72.628  0.00  0.00     0.174 HD
ATOM     64  H   ARG d   1      23.398 -12.160  74.011  0.00  0.00     0.174 HD
ATOM     65  H   ARG d   1      24.950 -12.899  73.606  0.00  0.00     0.174 HD
ATOM     66  H   ARG d   1      23.028  -9.986  73.563  0.00  0.00     0.177 HD
ENDBRANCH  55  58
ENDBRANCH  52  55
ENDBRANCH  49  52
ENDBRANCH  19  49
ENDBRANCH  16  19
ENDBRANCH  13  15
BRANCH  13  67
ATOM     67  CB  GLU d   1      26.128  -2.446  69.126  0.00  0.00    -0.029 C 
ATOM     68  H   GLU d   1      26.451  -2.430  70.167  0.00  0.00     0.037 H 
ATOM     69  H   GLU d   1      26.192  -1.496  68.596  0.00  0.00     0.037 H 
BRANCH  67  70
ATOM     70  CG  GLU d   1      27.061  -3.409  68.400  0.00  0.00     0.018 C 
ATOM     71  H   GLU d   1      27.886  -2.828  67.988  0.00  0.00     0.049 H 
ATOM     72  H   GLU d   1      26.481  -3.921  67.632  0.00  0.00     0.049 H 
BRANCH  70  73
ATOM     73  CD  GLU d   1      27.649  -4.466  69.322  0.00  0.00     0.172 C 
ATOM     74  OE1 GLU d   1      28.884  -4.473  69.503  0.00  0.00    -0.648 OA
ATOM     75  OE2 GLU d   1      26.881  -5.284  69.872  0.00  0.00    -0.648 OA
ENDBRANCH  70  73
ENDBRANCH  67  70
ENDBRANCH  13  67
ENDBRANCH  10  13
ENDBRANCH   7   9
BRANCH   7  76
ATOM     76  CB  LEU d   1      22.940  -3.277  64.590  0.00  0.00    -0.035 C 
ATOM     77  H   LEU d   1      22.383  -4.182  64.832  0.00  0.00     0.037 H 
ATOM     78  H   LEU d   1      24.017  -3.303  64.423  0.00  0.00     0.037 H 
BRANCH  76  79
ATOM     79  CG  LEU d   1      22.365  -2.841  63.229  0.00  0.00    -0.059 C 
ATOM     80  H   LEU d   1      22.959  -3.365  62.480  0.00  0.00     0.038 H 
BRANCH  79  81
ATOM     81  CD1 LEU d   1      20.910  -3.270  63.055  0.00  0.00    -0.073 C 
ATOM     82  H   LEU d   1      20.843  -4.356  63.120  0.00  0.00     0.028 H 
ATOM     83  H   LEU d   1      20.303  -2.819  63.840  0.00  0.00     0.028 H 
ATOM     84  H   LEU d   1      20.549  -2.940  62.081  0.00  0.00     0.028 H 
ENDBRANCH  79  81
BRANCH  79  85
ATOM     85  CD2 LEU d   1      22.533  -1.347  62.957  0.00  0.00    -0.073 C 
ATOM     86  H   LEU d   1      22.018  -0.778  63.731  0.00  0.00     0.028 H 
ATOM     87  H   LEU d   1      23.593  -1.095  62.964  0.00  0.00     0.028 H 
ATOM     88  H   LEU d   1      22.107  -1.106  61.983  0.00  0.00     0.028 H 
ENDBRANCH  79  85
ENDBRANCH  76  79
ENDBRANCH   7  76
ENDBRANCH   4   7
ENDBRANCH   1   3
BRANCH   1  89
ATOM     89  C   ASP d   1      19.394  -2.388  68.753  0.00  0.00     0.241 C 
ATOM     90  O   ASP d   1      18.296  -1.869  68.962  0.00  0.00    -0.271 OA
ATOM     91  N   GLU d   1      20.484  -2.111  69.467  0.00  0.00    -0.346 N 
ATOM     92  H   GLU d   1      21.350  -2.602  69.245  0.00  0.00     0.163 HD
BRANCH  91  93
ATOM     93  CA  GLU d   1      20.495  -1.134  70.556  0.00  0.00     0.090 C 
ATOM     94  H   GLU d   1      19.600  -1.304  71.154  0.00  0.00     0.087 H 
BRANCH  93  95
ATOM     95  C   GLU d   1      20.442   0.299  70.032  0.00  0.00     0.241 C 
ATOM     96  O   GLU d   1      19.926   1.194  70.705  0.00  0.00    -0.271 OA
ATOM     97  N   LEU d   1      20.978   0.507  68.832  0.00  0.00    -0.346 N 
ATOM     98  H   LEU d   1      21.405  -0.278  68.340  0.00  0.00     0.163 HD
BRANCH  97  99
ATOM     99  CA  LEU d   1      20.976   1.820  68.196  0.00  0.00     0.089 C 
ATOM    100  H   LEU d   1      21.275   2.558  68.940  0.00  0.00     0.087 H 
BRANCH  99 101
ATOM    101  C   LEU d   1      19.579   2.168  67.690  0.00  0.00     0.241 C 
ATOM    102  O   LEU d   1      19.092   3.274  67.922  0.00  0.00    -0.271 OA
ATOM    103  N   MET d   1      18.941   1.219  67.006  0.00  0.00    -0.346 N 
ATOM    104  H   MET d   1      19.395   0.317  66.867  0.00  0.00     0.163 HD
BRANCH 103 105
ATOM    105  CA  MET d   1      17.605   1.437  66.448  0.00  0.00     0.090 C 
ATOM    106  H   MET d   1      17.634   2.400  65.938  0.00  0.00     0.087 H 
BRANCH 105 107
ATOM    107  C   MET d   1      16.532   1.520  67.539  0.00  0.00     0.241 C 
ATOM    108  O   MET d   1      15.431   2.019  67.295  0.00  0.00    -0.271 OA
ATOM    109  N   ALA d   1      16.866   1.029  68.733  0.00  0.00    -0.346 N 
ATOM    110  H   ALA d   1      17.768   0.564  68.835  0.00  0.00     0.163 HD
BRANCH 109 111
ATOM    111  CA  ALA d   1      15.992   1.129  69.902  0.00  0.00     0.086 C 
ATOM    112  H   ALA d   1      14.977   0.895  69.581  0.00  0.00     0.086 H 
BRANCH 111 113
ATOM    113  C   ALA d   1      15.986   2.548  70.473  0.00  0.00     0.240 C 
ATOM    114  O   ALA d   1      14.953   3.027  70.944  0.00  0.00    -0.271 OA
ATOM    115  N   SER d   1      17.143   3.209  70.422  0.00  0.00    -0.344 N 
ATOM    116  H   SER d   1      17.964   2.729  70.054  0.00  0.00     0.163 HD
BRANCH 115 117
ATOM    117  CA  SER d   1      17.284   4.596  70.872  0.00  0.00     0.109 C 
ATOM    118  H   SER d   1      16.859   4.653  71.874  0.00  0.00     0.090 H 
BRANCH 117 119
ATOM    119  C   SER d   1      16.520   5.566  69.974  0.00  0.00     0.243 C 
ATOM    120  O   SER d   1      16.072   6.620  70.427  0.00  0.00    -0.271 OA
ATOM    121  N   LEU d   1      16.374   5.193  68.705  0.00  0.00    -0.345 N 
ATOM    122  H   LEU d   1      16.726   4.277  68.425  0.00  0.00     0.163 HD
BRANCH 121 123
ATOM    123  CA  LEU d   1      15.734   6.032  67.693  0.00  0.00     0.096 C 
ATOM    124  H   LEU d   1      15.862   7.072  67.994  0.00  0.00     0.089 H 
BRANCH 123 125
ATOM    125  C   LEU d   1      14.233   5.765  67.597  0.00  0.00     0.196 C 
ATOM    126  O   LEU d   1      13.788   4.593  67.472  0.00  0.00    -0.646 OA
ATOM    127  O   LEU d   1      13.427   6.732  67.643  0.00  0.00    -0.646 OA
ENDBRANCH 123 125
BRANCH 123 128
ATOM    128  CB  LEU d   1      16.401   5.807  66.329  0.00  0.00    -0.034 C 
ATOM    129  H   LEU d   1      15.682   6.212  65.617  0.00  0.00     0.037 H 
ATOM    130  H   LEU d   1      16.658   4.748  66.335  0.00  0.00     0.037 H 
BRANCH 128 131
ATOM    131  CG  LEU d   1      17.721   6.505  65.958  0.00  0.00    -0.059 C 
ATOM    132  H   LEU d   1      17.472   7.548  65.764  0.00  0.00     0.038 H 
BRANCH 131 133
ATOM    133  CD1 LEU d   1      18.757   6.531  67.086  0.00  0.00    -0.073 C 
ATOM    134  H   LEU d   1      18.345   7.061  67.944  0.00  0.00     0.028 H 
ATOM    135  H   LEU d   1      19.005   5.509  67.374  0.00  0.00     0.028 H 
ATOM    136  H   LEU d   1      19.656   7.041  66.740  0.00  0.00     0.028 H 
ENDBRANCH 131 133
BRANCH 131 137
ATOM    137  CD2 LEU d   1      18.311   5.856  64.714  0.00  0.00    -0.073 C 
ATOM    138  H   LEU d   1      18.502   4.801  64.912  0.00  0.00     0.028 H 
ATOM    139  H   LEU d   1      17.607   5.950  63.888  0.00  0.00     0.028 H 
ATOM    140  H   LEU d   1      19.246   6.353  64.455  0.00  0.00     0.028 H 
ENDBRANCH 131 137
ENDBRANCH 128 131
ENDBRANCH 123 128
ENDBRANCH 121 123
ENDBRANCH 117 119
BRANCH 117 141
ATOM    141  CB  SER d   1      18.760   4.997  70.916  0.00  0.00     0.044 C 
ATOM    142  H   SER d   1      18.830   6.025  71.272  0.00  0.00     0.077 H 
ATOM    143  H   SER d   1      19.177   4.896  69.914  0.00  0.00     0.077 H 
BRANCH 141 144
ATOM    144  OG  SER d   1      19.492   4.164  71.796  0.00  0.00    -0.398 OA
ATOM    145  H   SER d   1      19.431   3.253  71.498  0.00  0.00     0.209 HD
ENDBRANCH 141 144
ENDBRANCH 117 141
ENDBRANCH 115 117
ENDBRANCH 111 113
BRANCH 111 146
ATOM    146  CB  ALA d   1      16.408   0.123  70.969  0.00  0.00    -0.049 C 
ATOM    147  H   ALA d   1      16.340  -0.886  70.561  0.00  0.00     0.030 H 
ATOM    148  H   ALA d   1      17.434   0.324  71.276  0.00  0.00     0.030 H 
ATOM    149  H   ALA d   1      15.746   0.214  71.830  0.00  0.00     0.030 H 
ENDBRANCH 111 146
ENDBRANCH 109 111
ENDBRANCH 105 107
BRANCH 105 150
ATOM    150  CB  MET d   1      17.242   0.357  65.419  0.00  0.00    -0.030 C 
ATOM    151  H   MET d   1      16.355   0.718  64.898  0.00  0.00     0.037 H 
ATOM    152  H   MET d   1      17.125  -0.571  65.979  0.00  0.00     0.037 H 
BRANCH 150 153
ATOM    153  CG  MET d   1      18.294   0.075  64.334  0.00  0.00    -0.021 C 
ATOM    154  H   MET d   1      17.731  -0.247  63.458  0.00  0.00     0.049 H 
ATOM    155  H   MET d   1      18.989  -0.637  64.779  0.00  0.00     0.049 H 
BRANCH 153 156
ATOM    156  SD  MET d   1      19.315   1.463  63.771  0.00  0.00    -0.173 SA
BRANCH 156 157
ATOM    157  CE  MET d   1      18.137   2.466  62.873  0.00  0.00    -0.035 C 
ATOM    158  H   MET d   1      17.720   1.885  62.051  0.00  0.00     0.041 H 
ATOM    159  H   MET d   1      17.336   2.773  63.546  0.00  0.00     0.041 H 
ATOM    160  H   MET d   1      18.640   3.349  62.478  0.00  0.00     0.041 H 
ENDBRANCH 156 157
ENDBRANCH 153 156
ENDBRANCH 150 153
ENDBRANCH 105 150
ENDBRANCH 103 105
ENDBRANCH  99 101
BRANCH  99 161
ATOM    161  CB  LEU d   1      21.974   1.856  67.035  0.00  0.00    -0.035 C 
ATOM    162  H   LEU d   1      21.359   1.652  66.159  0.00  0.00     0.037 H 
ATOM    163  H   LEU d   1      22.764   1.175  67.352  0.00  0.00     0.037 H 
BRANCH 161 164
ATOM    164  CG  LEU d   1      22.729   3.139  66.659  0.00  0.00    -0.059 C 
ATOM    165  H   LEU d   1      23.485   3.295  67.428  0.00  0.00     0.038 H 
BRANCH 164 166
ATOM    166  CD1 LEU d   1      23.341   2.946  65.288  0.00  0.00    -0.073 C 
ATOM    167  H   LEU d   1      24.029   2.101  65.314  0.00  0.00     0.028 H 
ATOM    168  H   LEU d   1      22.551   2.751  64.563  0.00  0.00     0.028 H 
ATOM    169  H   LEU d   1      23.882   3.848  65.003  0.00  0.00     0.028 H 
ENDBRANCH 164 166
BRANCH 164 170
ATOM    170  CD2 LEU d   1      21.879   4.405  66.666  0.00  0.00    -0.073 C 
ATOM    171  H   LEU d   1      21.064   4.298  65.951  0.00  0.00     0.028 H 
ATOM    172  H   LEU d   1      21.470   4.561  67.664  0.00  0.00     0.028 H 
ATOM    173  H   LEU d   1      22.498   5.258  66.388  0.00  0.00     0.028 H 
ENDBRANCH 164 170
ENDBRANCH 161 164
ENDBRANCH  99 161
ENDBRANCH  97  99
ENDBRANCH  93  95
BRANCH  93 174
ATOM    174  CB  GLU d   1      21.733  -1.326  71.438  0.00  0.00    -0.029 C 
ATOM    175  H   GLU d   1      21.798  -0.457  72.092  0.00  0.00     0.037 H 
ATOM    176  H   GLU d   1      22.585  -1.451  70.770  0.00  0.00     0.037 H 
BRANCH 174 177
ATOM    177  CG  GLU d   1      21.682  -2.561  72.337  0.00  0.00     0.018 C 
ATOM    178  H   GLU d   1      21.345  -3.401  71.729  0.00  0.00     0.049 H 
ATOM    179  H   GLU d   1      21.011  -2.340  73.167  0.00  0.00     0.049 H 
BRANCH 177 180
ATOM    180  CD  GLU d   1      23.037  -2.926  72.921  0.00  0.00     0.172 C 
ATOM    181  OE1 GLU d   1      23.689  -2.049  73.529  0.00  0.00    -0.648 OA
ATOM    182  OE2 GLU d   1      23.447  -4.097  72.781  0.00  0.00    -0.648 OA
ENDBRANCH 177 180
ENDBRANCH 174 177
ENDBRANCH  93 174
ENDBRANCH  91  93
ENDBRANCH   1  89
BRANCH   1 183
ATOM    183  CB  ASP d   1      19.272  -4.820  68.159  0.00  0.00     0.043 C 
ATOM    184  H   ASP d   1      18.197  -4.894  68.320  0.00  0.00     0.052 H 
ATOM    185  H   ASP d   1      19.849  -4.962  69.073  0.00  0.00     0.052 H 
BRANCH 183 186
ATOM    186  CG  ASP d   1      19.673  -5.917  67.181  0.00  0.00     0.175 C 
ATOM    187  OD1 ASP d   1      19.767  -5.650  65.962  0.00  0.00    -0.648 OA
ATOM    188  OD2 ASP d   1      19.901  -7.055  67.641  0.00  0.00    -0.648 OA
ENDBRANCH 183 186
ENDBRANCH   1 183
TORSDOF 59
