REMARK  8 active torsions:
REMARK  status: ('A' for Active; 'I' for Inactive)
REMARK    1  A    between atoms: N1_1  and  C2_2 
REMARK    2  A    between atoms: N1_1  and  C8_8 
REMARK    3  A    between atoms: N1_1  and  C9_9 
REMARK    4  A    between atoms: N1_1  and  C10_10 
REMARK    5  A    between atoms: C2_2  and  C3_3 
REMARK    6  A    between atoms: C3_3  and  O4_4 
REMARK    7  A    between atoms: O4_4  and  C5_5 
REMARK    8  A    between atoms: C5_5  and  C6_7 
ROOT
ATOM      1  N1  ACH d   1    -112.568 -70.407 -61.342  0.00  0.00    -0.077 N 
ENDROOT
BRANCH   1   2
ATOM      2  C2  ACH d   1    -113.055 -69.214 -62.051  0.00  0.00     0.104 C 
ATOM      3  H   ACH d   1    -112.487 -69.130 -62.977  0.00  0.00     0.079 H 
ATOM      4  H   ACH d   1    -112.928 -68.362 -61.383  0.00  0.00     0.079 H 
BRANCH   2   5
ATOM      5  C3  ACH d   1    -114.530 -69.287 -62.424  0.00  0.00     0.051 C 
ATOM      6  H   ACH d   1    -114.688 -70.095 -63.139  0.00  0.00     0.077 H 
ATOM      7  H   ACH d   1    -114.841 -68.345 -62.876  0.00  0.00     0.077 H 
BRANCH   5   8
ATOM      8  O4  ACH d   1    -115.295 -69.530 -61.250  0.00  0.00    -0.320 OA
BRANCH   8   9
ATOM      9  C5  ACH d   1    -116.633 -68.975 -61.205  0.00  0.00     0.254 C 
ATOM     10  O7  ACH d   1    -116.950 -68.206 -62.111  0.00  0.00    -0.266 OA
BRANCH   9  11
ATOM     11  C6  ACH d   1    -117.486 -69.245 -59.995  0.00  0.00     0.004 C 
ATOM     12  H   ACH d   1    -117.649 -68.314 -59.452  0.00  0.00     0.041 H 
ATOM     13  H   ACH d   1    -118.445 -69.655 -60.312  0.00  0.00     0.041 H 
ATOM     14  H   ACH d   1    -116.980 -69.961 -59.347  0.00  0.00     0.041 H 
ENDBRANCH   9  11
ENDBRANCH   8   9
ENDBRANCH   5   8
ENDBRANCH   2   5
ENDBRANCH   1   2
BRANCH   1  15
ATOM     15  C8  ACH d   1    -111.104 -70.425 -61.479  0.00  0.00     0.067 C 
ATOM     16  H   ACH d   1    -110.703 -71.296 -60.961  0.00  0.00     0.068 H 
ATOM     17  H   ACH d   1    -110.840 -70.475 -62.535  0.00  0.00     0.068 H 
ATOM     18  H   ACH d   1    -110.688 -69.517 -61.042  0.00  0.00     0.068 H 
ENDBRANCH   1  15
BRANCH   1  19
ATOM     19  C9  ACH d   1    -113.086 -71.654 -61.947  0.00  0.00     0.067 C 
ATOM     20  H   ACH d   1    -112.802 -71.692 -62.998  0.00  0.00     0.068 H 
ATOM     21  H   ACH d   1    -112.664 -72.512 -61.424  0.00  0.00     0.068 H 
ATOM     22  H   ACH d   1    -114.172 -71.673 -61.862  0.00  0.00     0.068 H 
ENDBRANCH   1  19
BRANCH   1  23
ATOM     23  C10 ACH d   1    -112.914 -70.314 -59.907  0.00  0.00     0.067 C 
ATOM     24  H   ACH d   1    -112.505 -71.175 -59.379  0.00  0.00     0.068 H 
ATOM     25  H   ACH d   1    -112.493 -69.398 -59.492  0.00  0.00     0.068 H 
ATOM     26  H   ACH d   1    -113.998 -70.300 -59.796  0.00  0.00     0.068 H 
ENDBRANCH   1  23
TORSDOF 8
