REMARK  10 active torsions:
REMARK  status: ('A' for Active; 'I' for Inactive)
REMARK    1  A    between atoms: PG_1  and  O3B_5 
REMARK    2  A    between atoms: O3B_5  and  PB_6 
REMARK    3  A    between atoms: PB_6  and  O3A_9 
REMARK    4  A    between atoms: O3A_9  and  PA_10 
REMARK    5  A    between atoms: PA_10  and  O5'_13 
REMARK    6  A    between atoms: O5'_13  and  C5'_14 
REMARK    7  A    between atoms: C5'_14  and  C4'_15 
REMARK    8  A    between atoms: C3'_17  and  O3'_18 
REMARK    9  A    between atoms: C2'_19  and  O2'_20 
REMARK   10  A    between atoms: C1'_21  and  N9_22 
ROOT
ATOM      1  C4' GTP d   1       5.779  13.746  29.951  0.00  0.00     0.089 A 
ATOM      2  O4' GTP d   1       5.598  14.099  31.310  0.00  0.00    -0.353 OA
ATOM      3  C3' GTP d   1       4.473  14.012  29.220  0.00  0.00     0.091 A 
ATOM      4  C2' GTP d   1       3.498  14.493  30.273  0.00  0.00     0.105 A 
ATOM      5  C1' GTP d   1       4.265  14.486  31.585  0.00  0.00     0.139 A 
ATOM      6  H   GTP d   1       6.040  12.692  29.855  0.00  0.00     0.090 H 
ATOM      7  H   GTP d   1       4.602  14.746  28.425  0.00  0.00     0.091 H 
ATOM      8  H   GTP d   1       3.112  15.485  30.039  0.00  0.00     0.093 H 
ATOM      9  H   GTP d   1       3.809  13.792  32.291  0.00  0.00     0.122 H 
ENDROOT
BRANCH   1  10
ATOM     10  C5' GTP d   1       6.921  14.559  29.354  0.00  0.00     0.058 C 
ATOM     11  H   GTP d   1       7.788  14.507  30.013  0.00  0.00     0.079 H 
ATOM     12  H   GTP d   1       7.183  14.154  28.377  0.00  0.00     0.079 H 
BRANCH  10  13
ATOM     13  O5' GTP d   1       6.517  15.903  29.214  0.00  0.00    -0.287 OA
BRANCH  13  14
ATOM     14  PA  GTP d   1       6.092  16.485  27.774  0.00  0.00     0.417 P 
ATOM     15  O1A GTP d   1       6.775  17.812  27.541  0.00  0.00    -0.624 OA
ATOM     16  O2A GTP d   1       6.421  15.504  26.675  0.00  0.00    -0.624 OA
BRANCH  14  17
ATOM     17  O3A GTP d   1       4.502  16.707  27.895  0.00  0.00    -0.180 OA
BRANCH  17  18
ATOM     18  PB  GTP d   1       3.851  18.150  27.602  0.00  0.00     0.428 P 
ATOM     19  O1B GTP d   1       2.347  18.029  27.548  0.00  0.00    -0.624 OA
ATOM     20  O2B GTP d   1       4.279  19.159  28.641  0.00  0.00    -0.624 OA
BRANCH  18  21
ATOM     21  O3B GTP d   1       4.417  18.544  26.147  0.00  0.00    -0.173 OA
BRANCH  21  22
ATOM     22  PG  GTP d   1       4.264  20.046  25.587  0.00  0.00     0.431 P 
ATOM     23  O1G GTP d   1       5.594  20.477  25.015  0.00  0.00    -0.616 OA
ATOM     24  O2G GTP d   1       3.871  20.972  26.713  0.00  0.00    -0.616 OA
ATOM     25  O3G GTP d   1       3.209  20.083  24.507  0.00  0.00    -0.616 OA
ENDBRANCH  21  22
ENDBRANCH  18  21
ENDBRANCH  17  18
ENDBRANCH  14  17
ENDBRANCH  13  14
ENDBRANCH  10  13
ENDBRANCH   1  10
BRANCH   3  26
ATOM     26  O3' GTP d   1       3.997  12.824  28.632  0.00  0.00    -0.390 OA
ATOM     27  H   GTP d   1       3.848  12.167  29.316  0.00  0.00     0.210 HD
ENDBRANCH   3  26
BRANCH   5  28
ATOM     28  N9  GTP d   1       4.248  15.838  32.173  0.00  0.00    -0.295 N 
ATOM     29  C8  GTP d   1       5.127  16.854  31.898  0.00  0.00     0.071 A 
ATOM     30  N7  GTP d   1       4.780  17.933  32.635  0.00  0.00    -0.234 NA
ATOM     31  H   GTP d   1       5.964  16.801  31.202  0.00  0.00     0.144 H 
ATOM     32  C5  GTP d   1       3.693  17.623  33.375  0.00  0.00     0.171 A 
ATOM     33  C6  GTP d   1       2.942  18.353  34.288  0.00  0.00     0.292 A 
ATOM     34  C4  GTP d   1       3.347  16.308  33.096  0.00  0.00     0.161 A 
ATOM     35  O6  GTP d   1       3.240  19.519  34.543  0.00  0.00    -0.265 OA
ATOM     36  N1  GTP d   1       1.859  17.763  34.907  0.00  0.00    -0.154 N 
ATOM     37  C2  GTP d   1       1.530  16.454  34.616  0.00  0.00     0.680 A 
ATOM     38  H   GTP d   1       1.303  18.293  35.578  0.00  0.00     0.187 HD
ATOM     39  N2  GTP d   1       0.487  15.884  35.212  0.00  0.00    -0.234 N 
ATOM     40  N3  GTP d   1       2.282  15.735  33.708  0.00  0.00    -0.174 N 
ATOM     41  H   GTP d   1      -0.069  16.414  35.883  0.00  0.00     0.174 HD
ATOM     42  H   GTP d   1       0.243  14.917  34.998  0.00  0.00     0.174 HD
ATOM     43  H   GTP d   1       2.035  14.768  33.497  0.00  0.00     0.186 HD
ENDBRANCH   5  28
BRANCH   4  44
ATOM     44  O2' GTP d   1       2.398  13.618  30.350  0.00  0.00    -0.388 OA
ATOM     45  H   GTP d   1       2.705  12.739  30.583  0.00  0.00     0.210 HD
ENDBRANCH   4  44
TORSDOF 10
