REMARK  14 active torsions:
REMARK  status: ('A' for Active; 'I' for Inactive)
REMARK    1  A    between atoms: N_1  and  CA_2 
REMARK    2  A    between atoms: CA_2  and  C_3 
REMARK    3  A    between atoms: CA_2  and  CB_5 
REMARK       I    between atoms: C_3  and  N_10 
REMARK    4  A    between atoms: CB_5  and  CG_6 
REMARK    5  A    between atoms: CG_6  and  CD_7 
REMARK    6  A    between atoms: N_10  and  CA_11 
REMARK    7  A    between atoms: CA_11  and  C_12 
REMARK    8  A    between atoms: CA_11  and  CB_14 
REMARK       I    between atoms: C_12  and  N_24 
REMARK    9  A    between atoms: CB_14  and  CG_15 
REMARK   10  A    between atoms: N_24  and  CA_25 
REMARK   11  A    between atoms: CA_25  and  C_26 
REMARK   12  A    between atoms: CA_25  and  CB_28 
REMARK   13  A    between atoms: CB_28  and  CG_29 
REMARK   14  A    between atoms: CG_29  and  CD_30 
ROOT
ATOM      1  CA  TRP d   1      31.595  15.747  15.148  0.00  0.00     0.093 C 
ATOM      2  H   TRP d   1      31.598  14.817  15.717  0.00  0.00     0.088 H 
ENDROOT
BRANCH   1   3
ATOM      3  N   TRP d   1      32.856  15.865  14.423  0.00  0.00    -0.346 N 
ATOM      4  C   GLU d   1      33.444  14.758  13.967  0.00  0.00     0.249 C 
ATOM      5  O   GLU d   1      33.002  13.638  14.219  0.00  0.00    -0.271 OA
ATOM      6  H   TRP d   1      33.281  16.779  14.268  0.00  0.00     0.163 HD
BRANCH   4   7
ATOM      7  CA  GLU d   1      34.723  14.913  13.106  0.00  0.00     0.176 C 
ATOM      8  H   GLU d   1      34.706  14.101  12.379  0.00  0.00     0.099 H 
BRANCH   7   9
ATOM      9  N   GLU d   1      34.755  16.155  12.243  0.00  0.00    -0.066 N 
ATOM     10  H   GLU d   1      33.899  16.206  11.691  0.00  0.00     0.275 HD
ATOM     11  H   GLU d   1      34.827  16.980  12.839  0.00  0.00     0.275 HD
ATOM     12  H   GLU d   1      35.561  16.114  11.619  0.00  0.00     0.275 HD
ENDBRANCH   7   9
BRANCH   7  13
ATOM     13  CB  GLU d   1      35.991  14.751  13.985  0.00  0.00    -0.021 C 
ATOM     14  H   GLU d   1      36.092  15.656  14.584  0.00  0.00     0.037 H 
ATOM     15  H   GLU d   1      36.833  14.575  13.316  0.00  0.00     0.037 H 
BRANCH  13  16
ATOM     16  CG  GLU d   1      35.915  13.526  14.985  0.00  0.00     0.018 C 
ATOM     17  H   GLU d   1      35.442  12.713  14.434  0.00  0.00     0.049 H 
ATOM     18  H   GLU d   1      35.383  13.885  15.866  0.00  0.00     0.049 H 
BRANCH  16  19
ATOM     19  CD  GLU d   1      37.287  12.965  15.501  0.00  0.00     0.172 C 
ATOM     20  OE1 GLU d   1      37.286  11.994  16.311  0.00  0.00    -0.648 OA
ATOM     21  OE2 GLU d   1      38.365  13.479  15.103  0.00  0.00    -0.648 OA
ENDBRANCH  16  19
ENDBRANCH  13  16
ENDBRANCH   7  13
ENDBRANCH   4   7
ENDBRANCH   1   3
BRANCH   1  22
ATOM     22  C   TRP d   1      30.473  15.670  14.143  0.00  0.00     0.241 C 
ATOM     23  O   TRP d   1      30.181  14.572  13.648  0.00  0.00    -0.271 OA
ATOM     24  N   GLU d   1      29.847  16.789  13.811  0.00  0.00    -0.345 N 
ATOM     25  H   GLU d   1      30.035  17.663  14.303  0.00  0.00     0.163 HD
BRANCH  24  26
ATOM     26  CA  GLU d   1      28.880  16.733  12.721  0.00  0.00     0.097 C 
ATOM     27  H   GLU d   1      28.646  15.683  12.544  0.00  0.00     0.089 H 
BRANCH  26  28
ATOM     28  C   GLU d   1      29.485  17.276  11.422  0.00  0.00     0.196 C 
ATOM     29  O   GLU d   1      28.925  18.220  10.821  0.00  0.00    -0.646 OA
ATOM     30  OXT GLU d   1      30.522  16.737  11.032  0.00  0.00    -0.646 OA
ENDBRANCH  26  28
BRANCH  26  31
ATOM     31  CB  GLU d   1      27.530  17.376  13.086  0.00  0.00    -0.028 C 
ATOM     32  H   GLU d   1      27.687  18.454  13.100  0.00  0.00     0.037 H 
ATOM     33  H   GLU d   1      27.222  16.945  14.039  0.00  0.00     0.037 H 
BRANCH  31  34
ATOM     34  CG  GLU d   1      26.372  17.099  12.067  0.00  0.00     0.018 C 
ATOM     35  H   GLU d   1      26.645  17.593  11.135  0.00  0.00     0.049 H 
ATOM     36  H   GLU d   1      25.453  17.465  12.525  0.00  0.00     0.049 H 
BRANCH  34  37
ATOM     37  CD  GLU d   1      26.144  15.594  11.732  0.00  0.00     0.172 C 
ATOM     38  OE1 GLU d   1      27.125  14.914  11.311  0.00  0.00    -0.648 OA
ATOM     39  OE2 GLU d   1      24.980  15.106  11.859  0.00  0.00    -0.648 OA
ENDBRANCH  34  37
ENDBRANCH  31  34
ENDBRANCH  26  31
ENDBRANCH  24  26
ENDBRANCH   1  22
BRANCH   1  40
ATOM     40  CB  TRP d   1      31.405  16.775  16.301  0.00  0.00    -0.012 C 
ATOM     41  H   TRP d   1      30.348  17.023  16.395  0.00  0.00     0.044 H 
ATOM     42  H   TRP d   1      31.974  17.677  16.078  0.00  0.00     0.044 H 
BRANCH  40  43
ATOM     43  CG  TRP d   1      31.912  16.161  17.638  0.00  0.00    -0.028 A 
ATOM     44  CD1 TRP d   1      33.197  16.199  18.123  0.00  0.00    -0.015 A 
ATOM     45  NE1 TRP d   1      33.280  15.505  19.301  0.00  0.00    -0.365 N 
ATOM     46  H   TRP d   1      34.031  16.708  17.640  0.00  0.00     0.112 H 
ATOM     47  CE2 TRP d   1      32.054  14.972  19.597  0.00  0.00     0.042 A 
ATOM     48  H   TRP d   1      34.122  15.402  19.868  0.00  0.00     0.165 HD
ATOM     49  CD2 TRP d   1      31.165  15.360  18.575  0.00  0.00    -0.002 A 
ATOM     50  CZ2 TRP d   1      31.656  14.186  20.681  0.00  0.00    -0.056 A 
ATOM     51  CE3 TRP d   1      29.837  14.951  18.655  0.00  0.00    -0.070 A 
ATOM     52  CZ3 TRP d   1      29.443  14.176  19.741  0.00  0.00    -0.082 A 
ATOM     53  H   TRP d   1      29.121  15.232  17.883  0.00  0.00     0.084 H 
ATOM     54  CH2 TRP d   1      30.347  13.807  20.735  0.00  0.00    -0.081 A 
ATOM     55  H   TRP d   1      28.405  13.851  19.816  0.00  0.00     0.083 H 
ATOM     56  H   TRP d   1      30.001  13.203  21.573  0.00  0.00     0.083 H 
ATOM     57  H   TRP d   1      32.364  13.887  21.454  0.00  0.00     0.086 H 
ENDBRANCH  40  43
ENDBRANCH   1  40
TORSDOF 14
