REMARK  10 active torsions:
REMARK  status: ('A' for Active; 'I' for Inactive)
REMARK    1  A    between atoms: C27_2  and  C31_3 
REMARK    2  A    between atoms: C27_2  and  C32_4 
REMARK    3  A    between atoms: C25_8  and  N15_9 
REMARK       I    between atoms: N15_9  and  C14_10 
REMARK    4  A    between atoms: C14_10  and  C13_12 
REMARK    5  A    between atoms: C13_12  and  C17_13 
REMARK    6  A    between atoms: C13_12  and  C12_14 
REMARK    7  A    between atoms: C12_14  and  C9_15 
REMARK    8  A    between atoms: C8_16  and  N11_18 
REMARK    9  A    between atoms: C1_25  and  C18_26 
REMARK   10  A    between atoms: C23_31  and  C24_32 
ROOT
ATOM      1  C12 3RS d   1      14.178 -43.235   8.138  0.00  0.00    -0.026 C 
ATOM      2  H19 3RS d   1      14.350 -43.582   7.108  0.00  0.00     0.041 H 
ATOM      3  H20 3RS d   1      14.479 -44.022   8.845  0.00  0.00     0.041 H 
ENDROOT
BRANCH   1   4
ATOM      4  C13 3RS d   1      12.663 -42.900   8.335  0.00  0.00     0.024 C 
ATOM      5  H15 3RS d   1      12.399 -42.125   7.600  0.00  0.00     0.054 H 
BRANCH   4   6
ATOM      6  C14 3RS d   1      12.411 -42.339   9.741  0.00  0.00     0.222 C 
ATOM      7  N15 3RS d   1      12.162 -41.032   9.801  0.00  0.00    -0.356 N 
ATOM      8  H14 3RS d   1      12.117 -40.515   8.946  0.00  0.00     0.162 HD
ATOM      9  O16 3RS d   1      12.458 -43.073  10.723  0.00  0.00    -0.273 OA
BRANCH   7  10
ATOM     10  C25 3RS d   1      11.950 -40.316  11.067  0.00  0.00     0.017 C 
ATOM     11  C26 3RS d   1      13.344 -40.009  11.628  0.00  0.00    -0.018 C 
ATOM     12  C27 3RS d   1      13.321 -39.062  12.828  0.00  0.00     0.055 C 
ATOM     13  H1  3RS d   1      13.810 -40.955  11.940  0.00  0.00     0.040 H 
ATOM     14  H2  3RS d   1      13.947 -39.548  10.832  0.00  0.00     0.040 H 
ATOM     15  O28 3RS d   1      12.532 -37.872  12.501  0.00  0.00    -0.381 OA
ATOM     16  C29 3RS d   1      11.165 -38.124  12.034  0.00  0.00     0.022 C 
ATOM     17  C30 3RS d   1      11.187 -39.021  10.791  0.00  0.00    -0.026 C 
ATOM     18  H9  3RS d   1      10.685 -37.167  11.783  0.00  0.00     0.074 H 
ATOM     19  H10 3RS d   1      10.595 -38.622  12.832  0.00  0.00     0.074 H 
ATOM     20  H11 3RS d   1      11.678 -38.483   9.967  0.00  0.00     0.039 H 
ATOM     21  H12 3RS d   1      10.153 -39.266  10.505  0.00  0.00     0.039 H 
ATOM     22  H13 3RS d   1      11.382 -40.939  11.774  0.00  0.00     0.072 H 
BRANCH  12  23
ATOM     23  C31 3RS d   1      12.768 -39.766  14.087  0.00  0.00    -0.048 C 
ATOM     24  H3  3RS d   1      12.764 -39.060  14.930  0.00  0.00     0.031 H 
ATOM     25  H4  3RS d   1      13.404 -40.629  14.334  0.00  0.00     0.031 H 
ATOM     26  H5  3RS d   1      11.742 -40.111  13.893  0.00  0.00     0.031 H 
ENDBRANCH  12  23
BRANCH  12  27
ATOM     27  C32 3RS d   1      14.745 -38.581  13.074  0.00  0.00    -0.048 C 
ATOM     28  H6  3RS d   1      15.125 -38.083  12.170  0.00  0.00     0.031 H 
ATOM     29  H7  3RS d   1      15.386 -39.442  13.315  0.00  0.00     0.031 H 
ATOM     30  H8  3RS d   1      14.752 -37.871  13.915  0.00  0.00     0.031 H 
ENDBRANCH  12  27
ENDBRANCH   7  10
ENDBRANCH   4   6
BRANCH   4  31
ATOM     31  C17 3RS d   1      11.734 -44.098   8.105  0.00  0.00    -0.064 C 
ATOM     32  H16 3RS d   1      11.907 -44.508   7.099  0.00  0.00     0.028 H 
ATOM     33  H17 3RS d   1      10.687 -43.772   8.193  0.00  0.00     0.028 H 
ATOM     34  H18 3RS d   1      11.942 -44.873   8.857  0.00  0.00     0.028 H 
ENDBRANCH   4  31
ENDBRANCH   1   4
BRANCH   1  35
ATOM     35  C9  3RS d   1      15.005 -41.954   8.402  0.00  0.00    -0.011 A 
ATOM     36  C8  3RS d   1      14.976 -40.811   7.582  0.00  0.00     0.128 A 
ATOM     37  N7  3RS d   1      15.695 -39.715   7.881  0.00  0.00    -0.231 NA
ATOM     38  C4  3RS d   1      16.476 -39.654   8.968  0.00  0.00     0.069 A 
ATOM     39  C5  3RS d   1      16.566 -40.751   9.834  0.00  0.00    -0.006 A 
ATOM     40  C3  3RS d   1      17.200 -38.488   9.219  0.00  0.00    -0.053 A 
ATOM     41  C10 3RS d   1      15.816 -41.903   9.545  0.00  0.00    -0.061 A 
ATOM     42  C6  3RS d   1      17.391 -40.669  10.970  0.00  0.00    -0.060 A 
ATOM     43  H23 3RS d   1      15.864 -42.758  10.210  0.00  0.00     0.085 H 
ATOM     44  C1  3RS d   1      18.127 -39.500  11.219  0.00  0.00    -0.025 A 
ATOM     45  H24 3RS d   1      17.459 -41.508  11.653  0.00  0.00     0.086 H 
ATOM     46  C2  3RS d   1      18.020 -38.413  10.342  0.00  0.00    -0.070 A 
ATOM     47  H26 3RS d   1      18.580 -37.506  10.539  0.00  0.00     0.084 H 
ATOM     48  H25 3RS d   1      17.125 -37.644   8.543  0.00  0.00     0.087 H 
BRANCH  36  49
ATOM     49  N11 3RS d   1      14.247 -40.775   6.478  0.00  0.00    -0.384 N 
ATOM     50  H21 3RS d   1      14.241 -39.928   5.893  0.00  0.00     0.157 HD
ATOM     51  H22 3RS d   1      13.686 -41.594   6.204  0.00  0.00     0.157 HD
ENDBRANCH  36  49
BRANCH  44  52
ATOM     52  C18 3RS d   1      18.971 -39.365  12.328  0.00  0.00    -0.020 A 
ATOM     53  C19 3RS d   1      18.633 -38.441  13.321  0.00  0.00    -0.072 A 
ATOM     54  C20 3RS d   1      19.454 -38.269  14.429  0.00  0.00    -0.082 A 
ATOM     55  H27 3RS d   1      17.726 -37.855  13.226  0.00  0.00     0.084 H 
ATOM     56  C21 3RS d   1      20.625 -39.017  14.550  0.00  0.00    -0.082 A 
ATOM     57  H28 3RS d   1      19.185 -37.554  15.198  0.00  0.00     0.083 H 
ATOM     58  C22 3RS d   1      20.983 -39.938  13.570  0.00  0.00    -0.076 A 
ATOM     59  H29 3RS d   1      21.262 -38.880  15.416  0.00  0.00     0.083 H 
ATOM     60  C23 3RS d   1      20.163 -40.109  12.454  0.00  0.00    -0.051 A 
ATOM     61  H30 3RS d   1      21.893 -40.519  13.673  0.00  0.00     0.084 H 
BRANCH  60  62
ATOM     62  C24 3RS d   1      20.620 -41.147  11.413  0.00  0.00    -0.050 C 
ATOM     63  H31 3RS d   1      19.892 -41.185  10.589  0.00  0.00     0.033 H 
ATOM     64  H32 3RS d   1      20.688 -42.137  11.888  0.00  0.00     0.033 H 
ATOM     65  H33 3RS d   1      21.606 -40.861  11.018  0.00  0.00     0.033 H 
ENDBRANCH  60  62
ENDBRANCH  44  52
ENDBRANCH   1  35
TORSDOF 10
