REMARK WARNING: 32 MAX_TORS EXCEEDED!!!
REMARK  36 active torsions:
REMARK  status: ('A' for Active; 'I' for Inactive)
REMARK    1  A    between atoms: P45_2  and  O1_5 
REMARK    2  A    between atoms: O1_5  and  C1_6 
REMARK    3  A    between atoms: C2_7  and  N2_8 
REMARK       I    between atoms: N2_8  and  C7_9 
REMARK    4  A    between atoms: C7_9  and  C8_10 
REMARK    5  A    between atoms: C8_10  and  C16_11 
REMARK    6  A    between atoms: C16_11  and  O44_12 
REMARK    7  A    between atoms: C16_11  and  C17_13 
REMARK    8  A    between atoms: C17_13  and  C18_14 
REMARK    9  A    between atoms: C18_14  and  C19_15 
REMARK   10  A    between atoms: C19_15  and  C20_16 
REMARK   11  A    between atoms: C20_16  and  C21_17 
REMARK   12  A    between atoms: C21_17  and  C22_18 
REMARK   13  A    between atoms: C22_18  and  C23_19 
REMARK   14  A    between atoms: C23_19  and  C24_20 
REMARK   15  A    between atoms: C24_20  and  C25_21 
REMARK   16  A    between atoms: C25_21  and  C26_22 
REMARK   17  A    between atoms: C26_22  and  C27_23 
REMARK   18  A    between atoms: C3_25  and  O3_32 
REMARK   19  A    between atoms: C4_26  and  O4_31 
REMARK   20  A    between atoms: C5_27  and  C6_29 
REMARK   21  A    between atoms: C6_29  and  O6_30 
REMARK   22  A    between atoms: O3_32  and  C28_33 
REMARK   23  A    between atoms: C28_33  and  C29_35 
REMARK   24  A    between atoms: C29_35  and  C30_36 
REMARK   25  A    between atoms: C30_36  and  O43_37 
REMARK   26  A    between atoms: C30_36  and  C31_38 
REMARK   27  A    between atoms: C31_38  and  C32_39 
REMARK   28  A    between atoms: C32_39  and  C33_40 
REMARK   29  A    between atoms: C33_40  and  C34_41 
REMARK   30  A    between atoms: C34_41  and  C35_42 
REMARK   31  A    between atoms: C35_42  and  C36_43 
REMARK   32  A    between atoms: C36_43  and  C37_44 
REMARK   33  A    between atoms: C37_44  and  C38_45 
REMARK   34  A    between atoms: C38_45  and  C39_46 
REMARK   35  A    between atoms: C39_46  and  C40_47 
REMARK   36  A    between atoms: C40_47  and  C41_48 
ROOT
ATOM      1  C1  LP5 d   1     -23.794 -29.552 -20.705  0.00  0.00     0.166 C 
ATOM      2  C2  LP5 d   1     -25.084 -28.721 -20.430  0.00  0.00     0.088 C 
ATOM      3  C3  LP5 d   1     -26.361 -29.449 -20.916  0.00  0.00     0.099 C 
ATOM      4  C4  LP5 d   1     -26.184 -30.557 -21.977  0.00  0.00     0.090 C 
ATOM      5  C5  LP5 d   1     -24.825 -31.253 -22.011  0.00  0.00     0.089 C 
ATOM      6  O5  LP5 d   1     -24.096 -30.940 -20.816  0.00  0.00    -0.348 OA
ATOM      7  H1  LP5 d   1     -23.493 -29.230 -21.713  0.00  0.00     0.133 H 
ATOM      8  H2  LP5 d   1     -24.962 -27.797 -21.014  0.00  0.00     0.084 H 
ATOM      9  H31 LP5 d   1     -26.775 -29.956 -20.032  0.00  0.00     0.091 H 
ATOM     10  H32 LP5 d   1     -26.338 -30.091 -22.962  0.00  0.00     0.091 H 
ATOM     11  H33 LP5 d   1     -25.012 -32.337 -22.001  0.00  0.00     0.090 H 
ENDROOT
BRANCH   2  12
ATOM     12  N2  LP5 d   1     -25.434 -28.315 -19.050  0.00  0.00    -0.349 N 
ATOM     13  C7  LP5 d   1     -25.813 -29.043 -17.994  0.00  0.00     0.220 C 
ATOM     14  O7  LP5 d   1     -25.862 -30.256 -17.997  0.00  0.00    -0.274 OA
ATOM     15  H3  LP5 d   1     -25.378 -27.331 -18.879  0.00  0.00     0.163 HD
BRANCH  13  16
ATOM     16  C8  LP5 d   1     -26.158 -28.273 -16.732  0.00  0.00     0.033 C 
ATOM     17  H4  LP5 d   1     -26.219 -27.203 -16.982  0.00  0.00     0.051 H 
ATOM     18  H5  LP5 d   1     -25.356 -28.433 -15.996  0.00  0.00     0.051 H 
BRANCH  16  19
ATOM     19  C16 LP5 d   1     -27.488 -28.701 -16.102  0.00  0.00     0.043 C 
ATOM     20  H6  LP5 d   1     -27.321 -29.568 -15.446  0.00  0.00     0.083 H 
BRANCH  19  21
ATOM     21  O44 LP5 d   1     -28.433 -29.052 -17.121  0.00  0.00    -0.395 OA
ATOM     22  H7  LP5 d   1     -28.088 -29.772 -17.637  0.00  0.00     0.210 HD
ENDBRANCH  19  21
BRANCH  19  23
ATOM     23  C17 LP5 d   1     -28.036 -27.533 -15.283  0.00  0.00    -0.041 C 
ATOM     24  H8  LP5 d   1     -28.239 -26.695 -15.966  0.00  0.00     0.036 H 
ATOM     25  H9  LP5 d   1     -27.272 -27.233 -14.551  0.00  0.00     0.036 H 
BRANCH  23  26
ATOM     26  C18 LP5 d   1     -29.323 -27.863 -14.529  0.00  0.00    -0.063 C 
ATOM     27  H10 LP5 d   1     -29.111 -27.910 -13.451  0.00  0.00     0.033 H 
ATOM     28  H11 LP5 d   1     -29.705 -28.837 -14.870  0.00  0.00     0.033 H 
BRANCH  26  29
ATOM     29  C19 LP5 d   1     -30.376 -26.788 -14.790  0.00  0.00    -0.065 C 
ATOM     30  H12 LP5 d   1     -31.291 -27.277 -15.155  0.00  0.00     0.033 H 
ATOM     31  H13 LP5 d   1     -29.992 -26.104 -15.562  0.00  0.00     0.033 H 
BRANCH  29  32
ATOM     32  C20 LP5 d   1     -30.729 -25.966 -13.544  0.00  0.00    -0.065 C 
ATOM     33  H14 LP5 d   1     -31.103 -26.649 -12.768  0.00  0.00     0.033 H 
ATOM     34  H15 LP5 d   1     -31.518 -25.247 -13.810  0.00  0.00     0.033 H 
BRANCH  32  35
ATOM     35  C21 LP5 d   1     -29.532 -25.191 -12.978  0.00  0.00    -0.065 C 
ATOM     36  H16 LP5 d   1     -28.607 -25.720 -13.251  0.00  0.00     0.033 H 
ATOM     37  H17 LP5 d   1     -29.622 -25.151 -11.882  0.00  0.00     0.033 H 
BRANCH  35  38
ATOM     38  C22 LP5 d   1     -29.461 -23.761 -13.520  0.00  0.00    -0.065 C 
ATOM     39  H18 LP5 d   1     -29.094 -23.091 -12.729  0.00  0.00     0.033 H 
ATOM     40  H19 LP5 d   1     -30.466 -23.442 -13.833  0.00  0.00     0.033 H 
BRANCH  38  41
ATOM     41  C23 LP5 d   1     -28.511 -23.691 -14.722  0.00  0.00    -0.065 C 
ATOM     42  H20 LP5 d   1     -28.953 -24.252 -15.559  0.00  0.00     0.033 H 
ATOM     43  H21 LP5 d   1     -27.549 -24.145 -14.443  0.00  0.00     0.033 H 
BRANCH  41  44
ATOM     44  C24 LP5 d   1     -28.268 -22.251 -15.165  0.00  0.00    -0.065 C 
ATOM     45  H22 LP5 d   1     -27.527 -21.791 -14.495  0.00  0.00     0.033 H 
ATOM     46  H23 LP5 d   1     -29.214 -21.693 -15.103  0.00  0.00     0.033 H 
BRANCH  44  47
ATOM     47  C25 LP5 d   1     -27.748 -22.188 -16.598  0.00  0.00    -0.065 C 
ATOM     48  H24 LP5 d   1     -28.407 -21.535 -17.190  0.00  0.00     0.033 H 
ATOM     49  H25 LP5 d   1     -27.755 -23.201 -17.026  0.00  0.00     0.033 H 
BRANCH  47  50
ATOM     50  C26 LP5 d   1     -26.328 -21.637 -16.649  0.00  0.00    -0.069 C 
ATOM     51  H26 LP5 d   1     -25.678 -22.266 -16.024  0.00  0.00     0.032 H 
ATOM     52  H27 LP5 d   1     -26.329 -20.609 -16.258  0.00  0.00     0.032 H 
BRANCH  50  53
ATOM     53  C27 LP5 d   1     -25.789 -21.625 -18.062  0.00  0.00    -0.077 C 
ATOM     54  H28 LP5 d   1     -24.765 -21.222 -18.061  0.00  0.00     0.027 H 
ATOM     55  H29 LP5 d   1     -26.430 -20.993 -18.694  0.00  0.00     0.027 H 
ATOM     56  H30 LP5 d   1     -25.779 -22.651 -18.459  0.00  0.00     0.027 H 
ENDBRANCH  50  53
ENDBRANCH  47  50
ENDBRANCH  44  47
ENDBRANCH  41  44
ENDBRANCH  38  41
ENDBRANCH  35  38
ENDBRANCH  32  35
ENDBRANCH  29  32
ENDBRANCH  26  29
ENDBRANCH  23  26
ENDBRANCH  19  23
ENDBRANCH  16  19
ENDBRANCH  13  16
ENDBRANCH   2  12
BRANCH   1  57
ATOM     57  O1  LP5 d   1     -22.603 -29.373 -19.924  0.00  0.00    -0.249 OA
BRANCH  57  58
ATOM     58  P45 LP5 d   1     -21.171 -29.589 -20.673  0.00  0.00     0.424 P 
ATOM     59  O48 LP5 d   1     -21.246 -30.919 -21.398  0.00  0.00    -0.617 OA
ATOM     60  O46 LP5 d   1     -20.131 -29.576 -19.571  0.00  0.00    -0.617 OA
ATOM     61  O47 LP5 d   1     -21.064 -28.415 -21.627  0.00  0.00    -0.617 OA
ENDBRANCH  57  58
ENDBRANCH   1  57
BRANCH   3  62
ATOM     62  O3  LP5 d   1     -27.327 -28.463 -21.329  0.00  0.00    -0.311 OA
BRANCH  62  63
ATOM     63  C28 LP5 d   1     -27.664 -28.425 -22.753  0.00  0.00     0.261 C 
ATOM     64  O42 LP5 d   1     -26.912 -27.843 -23.524  0.00  0.00    -0.265 OA
BRANCH  63  65
ATOM     65  C29 LP5 d   1     -28.924 -29.096 -23.266  0.00  0.00     0.040 C 
ATOM     66  H38 LP5 d   1     -29.175 -29.936 -22.601  0.00  0.00     0.051 H 
ATOM     67  H39 LP5 d   1     -28.736 -29.475 -24.281  0.00  0.00     0.051 H 
BRANCH  65  68
ATOM     68  C30 LP5 d   1     -30.106 -28.134 -23.311  0.00  0.00     0.044 C 
ATOM     69  H40 LP5 d   1     -29.910 -27.352 -24.059  0.00  0.00     0.083 H 
BRANCH  68  70
ATOM     70  O43 LP5 d   1     -30.296 -27.524 -22.031  0.00  0.00    -0.395 OA
ATOM     71  H41 LP5 d   1     -31.034 -26.928 -22.072  0.00  0.00     0.210 HD
ENDBRANCH  68  70
BRANCH  68  72
ATOM     72  C31 LP5 d   1     -31.360 -28.907 -23.702  0.00  0.00    -0.041 C 
ATOM     73  H42 LP5 d   1     -32.241 -28.403 -23.277  0.00  0.00     0.036 H 
ATOM     74  H43 LP5 d   1     -31.293 -29.929 -23.301  0.00  0.00     0.036 H 
BRANCH  72  75
ATOM     75  C32 LP5 d   1     -31.507 -28.975 -25.222  0.00  0.00    -0.063 C 
ATOM     76  H44 LP5 d   1     -30.789 -29.714 -25.607  0.00  0.00     0.033 H 
ATOM     77  H45 LP5 d   1     -31.271 -27.984 -25.638  0.00  0.00     0.033 H 
BRANCH  75  78
ATOM     78  C33 LP5 d   1     -32.905 -29.373 -25.690  0.00  0.00    -0.065 C 
ATOM     79  H46 LP5 d   1     -32.980 -30.470 -25.666  0.00  0.00     0.033 H 
ATOM     80  H47 LP5 d   1     -33.040 -29.018 -26.723  0.00  0.00     0.033 H 
BRANCH  78  81
ATOM     81  C34 LP5 d   1     -34.025 -28.794 -24.831  0.00  0.00    -0.065 C 
ATOM     82  H48 LP5 d   1     -34.068 -27.705 -24.982  0.00  0.00     0.033 H 
ATOM     83  H49 LP5 d   1     -33.816 -29.010 -23.773  0.00  0.00     0.033 H 
BRANCH  81  84
ATOM     84  C35 LP5 d   1     -35.368 -29.402 -25.207  0.00  0.00    -0.065 C 
ATOM     85  H50 LP5 d   1     -35.785 -29.929 -24.337  0.00  0.00     0.033 H 
ATOM     86  H51 LP5 d   1     -35.227 -30.114 -26.034  0.00  0.00     0.033 H 
BRANCH  84  87
ATOM     87  C36 LP5 d   1     -36.332 -28.309 -25.643  0.00  0.00    -0.065 C 
ATOM     88  H52 LP5 d   1     -35.758 -27.461 -26.044  0.00  0.00     0.033 H 
ATOM     89  H53 LP5 d   1     -36.918 -27.977 -24.773  0.00  0.00     0.033 H 
BRANCH  87  90
ATOM     90  C37 LP5 d   1     -37.279 -28.823 -26.716  0.00  0.00    -0.065 C 
ATOM     91  H54 LP5 d   1     -38.141 -29.311 -26.238  0.00  0.00     0.033 H 
ATOM     92  H55 LP5 d   1     -36.751 -29.551 -27.349  0.00  0.00     0.033 H 
BRANCH  90  93
ATOM     93  C38 LP5 d   1     -37.768 -27.668 -27.577  0.00  0.00    -0.065 C 
ATOM     94  H56 LP5 d   1     -37.260 -26.745 -27.261  0.00  0.00     0.033 H 
ATOM     95  H57 LP5 d   1     -38.854 -27.554 -27.442  0.00  0.00     0.033 H 
BRANCH  93  96
ATOM     96  C39 LP5 d   1     -37.475 -27.916 -29.050  0.00  0.00    -0.065 C 
ATOM     97  H58 LP5 d   1     -38.418 -27.885 -29.616  0.00  0.00     0.033 H 
ATOM     98  H59 LP5 d   1     -37.011 -28.907 -29.164  0.00  0.00     0.033 H 
BRANCH  96  99
ATOM     99  C40 LP5 d   1     -36.529 -26.855 -29.595  0.00  0.00    -0.069 C 
ATOM    100  H60 LP5 d   1     -35.514 -27.051 -29.219  0.00  0.00     0.032 H 
ATOM    101  H61 LP5 d   1     -36.862 -25.865 -29.251  0.00  0.00     0.032 H 
BRANCH  99 102
ATOM    102  C41 LP5 d   1     -36.508 -26.871 -31.107  0.00  0.00    -0.077 C 
ATOM    103  H62 LP5 d   1     -35.818 -26.096 -31.472  0.00  0.00     0.027 H 
ATOM    104  H63 LP5 d   1     -37.520 -26.671 -31.490  0.00  0.00     0.027 H 
ATOM    105  H64 LP5 d   1     -36.171 -27.857 -31.459  0.00  0.00     0.027 H 
ENDBRANCH  99 102
ENDBRANCH  96  99
ENDBRANCH  93  96
ENDBRANCH  90  93
ENDBRANCH  87  90
ENDBRANCH  84  87
ENDBRANCH  81  84
ENDBRANCH  78  81
ENDBRANCH  75  78
ENDBRANCH  72  75
ENDBRANCH  68  72
ENDBRANCH  65  68
ENDBRANCH  63  65
ENDBRANCH  62  63
ENDBRANCH   3  62
BRANCH   4 106
ATOM    106  O4  LP5 d   1     -27.190 -31.555 -21.776  0.00  0.00    -0.390 OA
ATOM    107  H37 LP5 d   1     -27.160 -32.181 -22.490  0.00  0.00     0.210 HD
ENDBRANCH   4 106
BRANCH   5 108
ATOM    108  C6  LP5 d   1     -24.047 -30.955 -23.305  0.00  0.00     0.043 C 
ATOM    109  H34 LP5 d   1     -24.479 -31.654 -24.037  0.00  0.00     0.078 H 
ATOM    110  H35 LP5 d   1     -23.018 -31.262 -23.068  0.00  0.00     0.078 H 
BRANCH 108 111
ATOM    111  O6  LP5 d   1     -23.877 -29.738 -24.053  0.00  0.00    -0.398 OA
ATOM    112  H36 LP5 d   1     -23.329 -29.907 -24.811  0.00  0.00     0.209 HD
ENDBRANCH 108 111
ENDBRANCH   5 108
TORSDOF 36
