REMARK  4 active torsions:
REMARK  status: ('A' for Active; 'I' for Inactive)
REMARK    1  A    between atoms: N1_1  and  C7_10 
REMARK    2  A    between atoms: C7_10  and  C8_11 
REMARK    3  A    between atoms: C8_11  and  N8_12 
REMARK    4  A    between atoms: C8_11  and  C9_13 
ROOT
ATOM      1  C7  FWD d   1      21.200  19.448  15.673  0.00  0.00     0.036 C 
ATOM      2  H3  FWD d   1      20.949  20.366  16.225  0.00  0.00     0.068 H 
ATOM      3  H4  FWD d   1      20.687  18.591  16.134  0.00  0.00     0.068 H 
ENDROOT
BRANCH   1   4
ATOM      4  N1  FWD d   1      22.625  19.234  15.732  0.00  0.00    -0.304 N 
ATOM      5  C2  FWD d   1      23.102  17.999  15.523  0.00  0.00     0.328 A 
ATOM      6  O2  FWD d   1      22.368  17.088  15.368  0.00  0.00    -0.246 OA
ATOM      7  N3  FWD d   1      24.457  17.782  15.514  0.00  0.00    -0.284 N 
ATOM      8  C4  FWD d   1      25.310  18.835  15.722  0.00  0.00     0.223 A 
ATOM      9  H1  FWD d   1      24.819  16.863  15.357  0.00  0.00     0.172 HD
ATOM     10  O4  FWD d   1      26.691  18.603  15.686  0.00  0.00    -0.169 OA
ATOM     11  C5  FWD d   1      24.824  20.114  15.941  0.00  0.00     0.185 A 
ATOM     12  F5  FWD d   1      25.696  21.142  16.153  0.00  0.00    -0.200 F 
ATOM     13  C6  FWD d   1      23.500  20.327  15.939  0.00  0.00     0.026 A 
ATOM     14  H2  FWD d   1      23.103  21.329  16.095  0.00  0.00     0.116 H 
ENDBRANCH   1   4
BRANCH   1  15
ATOM     15  C8  FWD d   1      20.740  19.590  14.237  0.00  0.00     0.180 C 
ATOM     16  H5  FWD d   1      21.493  19.017  13.677  0.00  0.00     0.095 H 
BRANCH  15  17
ATOM     17  N8  FWD d   1      20.881  20.923  13.709  0.00  0.00    -0.068 N 
ATOM     18  H6  FWD d   1      20.557  20.942  12.755  0.00  0.00     0.275 HD
ATOM     19  H7  FWD d   1      21.851  21.196  13.740  0.00  0.00     0.275 HD
ATOM     20  H8  FWD d   1      20.334  21.563  14.263  0.00  0.00     0.275 HD
ENDBRANCH  15  17
BRANCH  15  21
ATOM     21  C9  FWD d   1      19.446  18.886  13.876  0.00  0.00     0.321 C 
ATOM     22  O91 FWD d   1      18.433  19.776  13.517  0.00  0.00    -0.186 OA
ATOM     23  O92 FWD d   1      19.034  17.986  14.855  0.00  0.00    -0.186 OA
ENDBRANCH  15  21
ENDBRANCH   1  15
TORSDOF 4
