REMARK  6 active torsions:
REMARK  status: ('A' for Active; 'I' for Inactive)
REMARK    1  A    between atoms: N3_2  and  C13_9 
REMARK    2  A    between atoms: N3_2  and  C14_15 
REMARK       I    between atoms: C12_16  and  N3_2 
REMARK    3  A    between atoms: C7_6  and  N2_23 
REMARK    4  A    between atoms: C10_8  and  C8_7 
REMARK    5  A    between atoms: C11_18  and  C10_8 
REMARK    6  A    between atoms: C12_16  and  C11_18 
ROOT
ATOM      1  N3  RTM d   1      70.256  46.541   8.213  0.00  0.00    -0.352 N 
ATOM      2  C12 RTM d   1      69.263  46.275   7.367  0.00  0.00     0.220 C 
ATOM      3  O1  RTM d   1      69.100  46.913   6.320  0.00  0.00    -0.273 OA
ENDROOT
BRANCH   2   4
ATOM      4  C11 RTM d   1      68.197  45.301   7.786  0.00  0.00     0.013 C 
ATOM      5  H   RTM d   1      68.109  44.457   7.102  0.00  0.00     0.047 H 
ATOM      6  H   RTM d   1      68.415  44.829   8.744  0.00  0.00     0.047 H 
BRANCH   4   7
ATOM      7  C10 RTM d   1      66.908  46.172   7.828  0.00  0.00    -0.029 C 
ATOM      8  H   RTM d   1      66.430  46.069   6.854  0.00  0.00     0.041 H 
ATOM      9  H   RTM d   1      66.320  45.819   8.675  0.00  0.00     0.041 H 
BRANCH   7  10
ATOM     10  C8  RTM d   1      67.143  47.710   8.053  0.00  0.00    -0.011 A 
ATOM     11  C7  RTM d   1      67.003  48.750   7.091  0.00  0.00     0.128 A 
ATOM     12  N1  RTM d   1      67.229  50.038   7.413  0.00  0.00    -0.231 NA
ATOM     13  C6  RTM d   1      67.585  50.405   8.649  0.00  0.00     0.069 A 
ATOM     14  C5  RTM d   1      67.743  49.442   9.650  0.00  0.00    -0.007 A 
ATOM     15  C3  RTM d   1      67.807  51.745   8.940  0.00  0.00    -0.054 A 
ATOM     16  C4  RTM d   1      68.113  49.832  10.944  0.00  0.00    -0.071 A 
ATOM     17  C9  RTM d   1      67.521  48.100   9.347  0.00  0.00    -0.061 A 
ATOM     18  C1  RTM d   1      68.330  51.191  11.222  0.00  0.00    -0.082 A 
ATOM     19  H   RTM d   1      68.231  49.086  11.729  0.00  0.00     0.084 H 
ATOM     20  C2  RTM d   1      68.174  52.151  10.221  0.00  0.00    -0.081 A 
ATOM     21  H   RTM d   1      68.622  51.498  12.226  0.00  0.00     0.083 H 
ATOM     22  H   RTM d   1      68.338  53.206  10.439  0.00  0.00     0.083 H 
ATOM     23  H   RTM d   1      67.642  47.345  10.124  0.00  0.00     0.085 H 
ATOM     24  H   RTM d   1      67.692  52.491   8.153  0.00  0.00     0.087 H 
BRANCH  11  25
ATOM     25  N2  RTM d   1      66.651  48.516   5.825  0.00  0.00    -0.384 N 
ATOM     26  H   RTM d   1      66.471  47.562   5.514  0.00  0.00     0.157 HD
ATOM     27  H   RTM d   1      66.562  49.292   5.169  0.00  0.00     0.157 HD
ENDBRANCH  11  25
ENDBRANCH   7  10
ENDBRANCH   4   7
ENDBRANCH   2   4
BRANCH   1  28
ATOM     28  C13 RTM d   1      70.364  45.782   9.485  0.00  0.00    -0.016 C 
ATOM     29  H   RTM d   1      71.362  45.350   9.565  0.00  0.00     0.056 H 
ATOM     30  H   RTM d   1      70.190  46.455  10.324  0.00  0.00     0.056 H 
ATOM     31  H   RTM d   1      69.620  44.986   9.496  0.00  0.00     0.056 H 
ENDBRANCH   1  28
BRANCH   1  32
ATOM     32  C14 RTM d   1      71.066  47.692   7.787  0.00  0.00     0.014 C 
ATOM     33  C15 RTM d   1      71.130  48.791   8.852  0.00  0.00    -0.046 C 
ATOM     34  C16 RTM d   1      71.355  50.114   8.103  0.00  0.00    -0.063 C 
ATOM     35  H   RTM d   1      70.209  48.824   9.434  0.00  0.00     0.036 H 
ATOM     36  H   RTM d   1      71.937  48.602   9.559  0.00  0.00     0.036 H 
ATOM     37  C17 RTM d   1      72.484  50.012   7.039  0.00  0.00    -0.065 C 
ATOM     38  H   RTM d   1      71.649  50.868   8.833  0.00  0.00     0.033 H 
ATOM     39  H   RTM d   1      70.429  50.370   7.587  0.00  0.00     0.033 H 
ATOM     40  C18 RTM d   1      72.627  48.658   6.285  0.00  0.00    -0.063 C 
ATOM     41  H   RTM d   1      73.418  50.149   7.583  0.00  0.00     0.033 H 
ATOM     42  H   RTM d   1      72.241  50.752   6.277  0.00  0.00     0.033 H 
ATOM     43  C19 RTM d   1      72.429  47.435   7.192  0.00  0.00    -0.046 C 
ATOM     44  H   RTM d   1      73.639  48.610   5.883  0.00  0.00     0.033 H 
ATOM     45  H   RTM d   1      71.856  48.626   5.515  0.00  0.00     0.033 H 
ATOM     46  H   RTM d   1      73.211  47.328   7.943  0.00  0.00     0.036 H 
ATOM     47  H   RTM d   1      72.490  46.489   6.655  0.00  0.00     0.036 H 
ATOM     48  H   RTM d   1      70.492  48.035   6.926  0.00  0.00     0.072 H 
ENDBRANCH   1  32
TORSDOF 6
