REMARK  7 active torsions:
REMARK  status: ('A' for Active; 'I' for Inactive)
REMARK    1  A    between atoms: C8_4  and  N28_22 
REMARK    2  A    between atoms: C16_29  and  C17_8 
REMARK       I    between atoms: C20_9  and  N21_16 
REMARK    3  A    between atoms: C19_18  and  C20_9 
REMARK    4  A    between atoms: N21_16  and  C22_10 
REMARK    5  A    between atoms: C18_19  and  C19_18 
REMARK    6  A    between atoms: C9_20  and  C18_19 
REMARK    7  A    between atoms: C11_26  and  C1_25 
ROOT
ATOM      1  C4  RTN d   1      68.266  49.458   8.970  0.00  0.00     0.069 A 
ATOM      2  C5  RTN d   1      68.357  48.338   9.816  0.00  0.00    -0.006 A 
ATOM      3  C6  RTN d   1      69.184  48.399  10.957  0.00  0.00    -0.060 A 
ATOM      4  C8  RTN d   1      66.780  48.355   7.536  0.00  0.00     0.128 A 
ATOM      5  C10 RTN d   1      67.632  47.181   9.481  0.00  0.00    -0.061 A 
ATOM      6  C9  RTN d   1      66.827  47.183   8.322  0.00  0.00    -0.011 A 
ATOM      7  N7  RTN d   1      67.495  49.431   7.878  0.00  0.00    -0.231 NA
ATOM      8  C3  RTN d   1      68.967  50.622   9.255  0.00  0.00    -0.053 A 
ATOM      9  C2  RTN d   1      69.777  50.669  10.383  0.00  0.00    -0.070 A 
ATOM     10  C1  RTN d   1      69.909  49.566  11.230  0.00  0.00    -0.025 A 
ATOM     11  H   RTN d   1      69.259  47.541  11.624  0.00  0.00     0.086 H 
ATOM     12  H   RTN d   1      67.691  46.292  10.110  0.00  0.00     0.085 H 
ATOM     13  H   RTN d   1      68.883  51.490   8.601  0.00  0.00     0.087 H 
ATOM     14  H   RTN d   1      70.321  51.586  10.612  0.00  0.00     0.084 H 
ENDROOT
BRANCH   6  15
ATOM     15  C18 RTN d   1      66.027  45.909   7.998  0.00  0.00    -0.029 C 
ATOM     16  H   RTN d   1      66.049  45.748   6.920  0.00  0.00     0.041 H 
ATOM     17  H   RTN d   1      66.477  45.070   8.529  0.00  0.00     0.041 H 
BRANCH  15  18
ATOM     18  C19 RTN d   1      64.566  46.046   8.445  0.00  0.00     0.013 C 
ATOM     19  H   RTN d   1      64.034  46.599   7.671  0.00  0.00     0.047 H 
ATOM     20  H   RTN d   1      64.173  45.041   8.602  0.00  0.00     0.047 H 
BRANCH  18  21
ATOM     21  C20 RTN d   1      64.406  46.817   9.758  0.00  0.00     0.218 C 
ATOM     22  N21 RTN d   1      64.356  48.140   9.623  0.00  0.00    -0.356 N 
ATOM     23  H   RTN d   1      64.350  48.479   8.661  0.00  0.00     0.162 HD
ATOM     24  O29 RTN d   1      64.306  46.217  10.817  0.00  0.00    -0.274 OA
BRANCH  22  25
ATOM     25  C22 RTN d   1      64.308  49.200  10.672  0.00  0.00     0.012 C 
ATOM     26  C23 RTN d   1      62.931  49.669  11.070  0.00  0.00    -0.046 C 
ATOM     27  C24 RTN d   1      63.143  51.090  11.594  0.00  0.00    -0.063 C 
ATOM     28  H   RTN d   1      62.481  49.020  11.822  0.00  0.00     0.035 H 
ATOM     29  H   RTN d   1      62.234  49.644  10.232  0.00  0.00     0.035 H 
ATOM     30  C25 RTN d   1      64.064  51.121  12.840  0.00  0.00    -0.065 C 
ATOM     31  H   RTN d   1      62.172  51.495  11.879  0.00  0.00     0.033 H 
ATOM     32  H   RTN d   1      63.617  51.675  10.806  0.00  0.00     0.033 H 
ATOM     33  C26 RTN d   1      65.317  50.260  12.707  0.00  0.00    -0.063 C 
ATOM     34  H   RTN d   1      63.488  50.727  13.678  0.00  0.00     0.033 H 
ATOM     35  H   RTN d   1      64.392  52.152  12.974  0.00  0.00     0.033 H 
ATOM     36  C27 RTN d   1      65.062  48.912  11.970  0.00  0.00    -0.046 C 
ATOM     37  H   RTN d   1      65.664  50.025  13.713  0.00  0.00     0.033 H 
ATOM     38  H   RTN d   1      66.043  50.824  12.122  0.00  0.00     0.033 H 
ATOM     39  H   RTN d   1      66.012  48.426  11.747  0.00  0.00     0.035 H 
ATOM     40  H   RTN d   1      64.472  48.249  12.603  0.00  0.00     0.035 H 
ATOM     41  H   RTN d   1      64.826  49.986  10.123  0.00  0.00     0.072 H 
ENDBRANCH  22  25
ENDBRANCH  18  21
ENDBRANCH  15  18
ENDBRANCH   6  15
BRANCH   4  42
ATOM     42  N28 RTN d   1      66.045  48.442   6.424  0.00  0.00    -0.384 N 
ATOM     43  H   RTN d   1      65.491  47.643   6.115  0.00  0.00     0.157 HD
ATOM     44  H   RTN d   1      66.038  49.307   5.884  0.00  0.00     0.157 HD
ENDBRANCH   4  42
BRANCH  10  45
ATOM     45  C11 RTN d   1      70.722  49.694  12.356  0.00  0.00    -0.020 A 
ATOM     46  C12 RTN d   1      70.315  50.640  13.297  0.00  0.00    -0.072 A 
ATOM     47  C13 RTN d   1      71.053  50.832  14.459  0.00  0.00    -0.082 A 
ATOM     48  H   RTN d   1      69.416  51.230  13.120  0.00  0.00     0.084 H 
ATOM     49  C14 RTN d   1      72.207  50.090  14.682  0.00  0.00    -0.082 A 
ATOM     50  H   RTN d   1      70.726  51.565  15.196  0.00  0.00     0.083 H 
ATOM     51  C15 RTN d   1      72.627  49.145  13.763  0.00  0.00    -0.076 A 
ATOM     52  H   RTN d   1      72.787  50.254  15.590  0.00  0.00     0.083 H 
ATOM     53  C16 RTN d   1      71.894  48.950  12.595  0.00  0.00    -0.051 A 
ATOM     54  H   RTN d   1      73.525  48.557  13.952  0.00  0.00     0.084 H 
BRANCH  53  55
ATOM     55  C17 RTN d   1      72.443  47.885  11.628  0.00  0.00    -0.050 C 
ATOM     56  H   RTN d   1      73.448  48.165  11.314  0.00  0.00     0.033 H 
ATOM     57  H   RTN d   1      72.475  46.919  12.133  0.00  0.00     0.033 H 
ATOM     58  H   RTN d   1      71.793  47.819  10.755  0.00  0.00     0.033 H 
ENDBRANCH  53  55
ENDBRANCH  10  45
TORSDOF 7
