REMARK  4 active torsions:
REMARK  status: ('A' for Active; 'I' for Inactive)
REMARK    1  A    between atoms: N10_10  and  C11_11 
REMARK    2  A    between atoms: C11_11  and  C12_12 
REMARK       I    between atoms: C12_12  and  N14_14 
REMARK    3  A    between atoms: N14_14  and  C15_15 
REMARK    4  A    between atoms: C19_19  and  C20_20 
ROOT
ATOM      1  C15 34I d   1      19.815   8.444  32.618  0.00  0.00     0.092 A 
ATOM      2  S16 34I d   1      18.364   8.064  33.284  0.00  0.00    -0.082 SA
ATOM      3  C17 34I d   1      17.966   9.483  34.032  0.00  0.00    -0.022 A 
ATOM      4  C18 34I d   1      19.031  10.344  33.763  0.00  0.00     0.068 A 
ATOM      5  C19 34I d   1      20.121   9.754  32.930  0.00  0.00     0.066 A 
ATOM      6  C25 34I d   1      19.042  11.598  34.223  0.00  0.00     0.101 C 
ATOM      7  N27 34I d   1      19.006  12.704  34.571  0.00  0.00    -0.191 NA
ATOM      8  H12 34I d   1      17.068   9.699  34.609  0.00  0.00     0.097 H 
ENDROOT
BRANCH   5   9
ATOM      9  C20 34I d   1      21.365  10.464  32.510  0.00  0.00     0.159 A 
ATOM     10  N21 34I d   1      21.447  11.797  32.413  0.00  0.00    -0.259 N 
ATOM     11  N22 34I d   1      22.775  12.001  32.005  0.00  0.00    -0.166 NA
ATOM     12  H13 34I d   1      20.716  12.500  32.593  0.00  0.00     0.191 HD
ATOM     13  C23 34I d   1      23.378  10.787  31.895  0.00  0.00     0.108 A 
ATOM     14  N24 34I d   1      22.498   9.811  32.216  0.00  0.00    -0.220 NA
ATOM     15  H14 34I d   1      24.412  10.625  31.594  0.00  0.00     0.149 H 
ENDBRANCH   5   9
BRANCH   1  16
ATOM     16  N14 34I d   1      20.604   7.609  31.868  0.00  0.00    -0.319 N 
ATOM     17  C12 34I d   1      20.309   6.408  31.592  0.00  0.00     0.240 C 
ATOM     18  O13 34I d   1      19.283   5.864  31.955  0.00  0.00    -0.271 OA
ATOM     19  H11 34I d   1      21.467   7.971  31.517  0.00  0.00     0.169 HD
BRANCH  17  20
ATOM     20  C11 34I d   1      21.269   5.606  30.741  0.00  0.00     0.077 C 
ATOM     21  H9  34I d   1      21.253   4.566  31.099  0.00  0.00     0.079 H 
ATOM     22  H10 34I d   1      20.912   5.641  29.701  0.00  0.00     0.079 H 
BRANCH  20  23
ATOM     23  N10 34I d   1      22.656   6.069  30.758  0.00  0.00    -0.309 N 
ATOM     24  C2  34I d   1      23.534   5.222  31.381  0.00  0.00     0.044 A 
ATOM     25  C1  34I d   1      23.082   4.335  32.363  0.00  0.00    -0.056 A 
ATOM     26  C3  34I d   1      24.879   5.214  31.023  0.00  0.00    -0.031 A 
ATOM     27  C6  34I d   1      23.968   3.462  32.990  0.00  0.00    -0.081 A 
ATOM     28  H1  34I d   1      22.034   4.327  32.639  0.00  0.00     0.086 H 
ATOM     29  C5  34I d   1      25.316   3.467  32.633  0.00  0.00    -0.082 A 
ATOM     30  H4  34I d   1      23.611   2.780  33.754  0.00  0.00     0.083 H 
ATOM     31  C4  34I d   1      25.772   4.344  31.650  0.00  0.00    -0.075 A 
ATOM     32  H3  34I d   1      26.009   2.790  33.119  0.00  0.00     0.083 H 
ATOM     33  H2  34I d   1      26.820   4.350  31.373  0.00  0.00     0.084 H 
ATOM     34  C7  34I d   1      25.370   6.167  29.959  0.00  0.00    -0.031 C 
ATOM     35  C8  34I d   1      24.595   7.471  30.119  0.00  0.00     0.013 C 
ATOM     36  H5  34I d   1      25.188   5.742  28.961  0.00  0.00     0.040 H 
ATOM     37  H6  34I d   1      26.447   6.352  30.088  0.00  0.00     0.040 H 
ATOM     38  C9  34I d   1      23.102   7.206  30.172  0.00  0.00     0.225 C 
ATOM     39  H7  34I d   1      24.815   8.129  29.265  0.00  0.00     0.047 H 
ATOM     40  H8  34I d   1      24.907   7.964  31.051  0.00  0.00     0.047 H 
ATOM     41  O26 34I d   1      22.360   8.040  29.663  0.00  0.00    -0.273 OA
ENDBRANCH  20  23
ENDBRANCH  17  20
ENDBRANCH   1  16
TORSDOF 4
