REMARK WARNING: 32 MAX_TORS EXCEEDED!!!
REMARK  47 active torsions:
REMARK  status: ('A' for Active; 'I' for Inactive)
REMARK    1  A    between atoms: N_1  and  CA_2 
REMARK    2  A    between atoms: CA_2  and  CB_3 
REMARK    3  A    between atoms: CA_2  and  C_5 
REMARK    4  A    between atoms: CB_3  and  OG_4 
REMARK    5  A    between atoms: OG_4  and  P_7 
REMARK       I    between atoms: C_5  and  N_11 
REMARK    6  A    between atoms: CA_12  and  C_13 
REMARK       I    between atoms: C_13  and  N_18 
REMARK    7  A    between atoms: N_18  and  CA_19 
REMARK    8  A    between atoms: CA_19  and  C_20 
REMARK    9  A    between atoms: CA_19  and  CB_22 
REMARK       I    between atoms: C_20  and  N_24 
REMARK   10  A    between atoms: CB_22  and  OG_23 
REMARK   11  A    between atoms: N_24  and  CA_25 
REMARK   12  A    between atoms: CA_25  and  C_26 
REMARK   13  A    between atoms: CA_25  and  CB_28 
REMARK       I    between atoms: C_26  and  N_36 
REMARK   14  A    between atoms: CB_28  and  CG_29 
REMARK   15  A    between atoms: CZ_34  and  OH_35 
REMARK   16  A    between atoms: N_36  and  CA_37 
REMARK   17  A    between atoms: CA_37  and  CB_38 
REMARK   18  A    between atoms: CA_37  and  C_40 
REMARK   19  A    between atoms: CB_38  and  OG_39 
REMARK   20  A    between atoms: OG_39  and  P_42 
REMARK       I    between atoms: C_40  and  N_46 
REMARK   21  A    between atoms: CA_47  and  C_48 
REMARK       I    between atoms: C_48  and  N_53 
REMARK   22  A    between atoms: N_53  and  CA_54 
REMARK   23  A    between atoms: CA_54  and  C_55 
REMARK   24  A    between atoms: CA_54  and  CB_57 
REMARK       I    between atoms: C_55  and  N_60 
REMARK   25  A    between atoms: CB_57  and  OG1_58 
REMARK   26  A    between atoms: CB_57  and  CG2_59 
REMARK   27  A    between atoms: N_60  and  CA_61 
REMARK   28  A    between atoms: CA_61  and  CB_62 
REMARK   29  A    between atoms: CA_61  and  C_64 
REMARK   30  A    between atoms: CB_62  and  OG_63 
REMARK   31  A    between atoms: OG_63  and  P_66 
REMARK       I    between atoms: C_64  and  N_70 
REMARK   32  A    between atoms: CA_71  and  C_72 
REMARK       I    between atoms: C_72  and  N_77 
REMARK   33  A    between atoms: N_77  and  CA_78 
REMARK   34  A    between atoms: CA_78  and  C_79 
REMARK   35  A    between atoms: CA_78  and  CB_81 
REMARK       I    between atoms: C_79  and  N_83 
REMARK   36  A    between atoms: CB_81  and  OG_82 
REMARK   37  A    between atoms: N_83  and  CA_84 
REMARK   38  A    between atoms: CA_84  and  C_85 
REMARK   39  A    between atoms: CA_84  and  CB_87 
REMARK       I    between atoms: C_85  and  N_95 
REMARK   40  A    between atoms: CB_87  and  CG_88 
REMARK   41  A    between atoms: CZ_93  and  OH_94 
REMARK   42  A    between atoms: N_95  and  CA_96 
REMARK   43  A    between atoms: CA_96  and  CB_97 
REMARK   44  A    between atoms: CA_96  and  C_99 
REMARK   45  A    between atoms: CB_97  and  OG_98 
REMARK   46  A    between atoms: OG_98  and  P_101 
REMARK       I    between atoms: C_99  and  N_105 
REMARK   47  A    between atoms: CA_106  and  C_107 
ROOT
ATOM      1  CA  NON d   1       5.199  40.171 -39.268  0.00  0.00     0.113 C 
ATOM      2  H   NON d   1       6.254  40.322 -39.040  0.00  0.00     0.091 H 
ENDROOT
BRANCH   1   3
ATOM      3  N   NON d   1       5.181  39.367 -40.491  0.00  0.00    -0.344 N 
ATOM      4  C   NON d   1       5.965  38.301 -40.623  0.00  0.00     0.241 C 
ATOM      5  O   NON d   1       6.728  37.925 -39.732  0.00  0.00    -0.271 OA
ATOM      6  H   NON d   1       4.557  39.629 -41.254  0.00  0.00     0.163 HD
BRANCH   4   7
ATOM      7  CA  NON d   1       5.886  37.531 -41.943  0.00  0.00     0.091 C 
ATOM      8  N   NON d   1       4.926  38.034 -42.931  0.00  0.00    -0.337 N 
ATOM      9  C   NON d   1       3.603  38.048 -42.710  0.00  0.00     0.245 C 
ATOM     10  CD  NON d   1       5.624  38.534 -44.128  0.00  0.00    -0.001 C 
ATOM     11  O   NON d   1       3.119  37.649 -41.650  0.00  0.00    -0.271 OA
ATOM     12  CG  NON d   1       7.030  38.737 -43.614  0.00  0.00    -0.048 C 
ATOM     13  H   NON d   1       5.180  39.441 -44.538  0.00  0.00     0.064 H 
ATOM     14  H   NON d   1       5.570  37.850 -44.975  0.00  0.00     0.064 H 
ATOM     15  CB  NON d   1       7.206  37.561 -42.707  0.00  0.00    -0.036 C 
ATOM     16  H   NON d   1       7.776  38.784 -44.407  0.00  0.00     0.035 H 
ATOM     17  H   NON d   1       7.170  39.694 -43.111  0.00  0.00     0.035 H 
ATOM     18  H   NON d   1       7.409  36.635 -43.244  0.00  0.00     0.036 H 
ATOM     19  H   NON d   1       8.075  37.652 -42.055  0.00  0.00     0.036 H 
ATOM     20  H   NON d   1       5.587  36.545 -41.588  0.00  0.00     0.087 H 
BRANCH   9  21
ATOM     21  CA  NON d   1       2.707  38.594 -43.826  0.00  0.00     0.110 C 
ATOM     22  H   NON d   1       3.252  38.574 -44.770  0.00  0.00     0.090 H 
BRANCH  21  23
ATOM     23  N   NON d   1       1.513  37.765 -43.933  0.00  0.00    -0.344 N 
ATOM     24  C   NON d   1       1.154  37.134 -45.048  0.00  0.00     0.241 C 
ATOM     25  O   NON d   1       1.788  37.192 -46.099  0.00  0.00    -0.271 OA
ATOM     26  H   NON d   1       0.921  37.663 -43.109  0.00  0.00     0.163 HD
BRANCH  24  27
ATOM     27  CA  NON d   1      -0.126  36.320 -44.934  0.00  0.00     0.093 C 
ATOM     28  H   NON d   1      -0.116  35.857 -43.947  0.00  0.00     0.088 H 
BRANCH  27  29
ATOM     29  N   NON d   1      -1.302  37.162 -45.038  0.00  0.00    -0.346 N 
ATOM     30  C   NON d   1      -2.017  37.466 -43.960  0.00  0.00     0.243 C 
ATOM     31  O   NON d   1      -1.731  37.060 -42.829  0.00  0.00    -0.271 OA
ATOM     32  H   NON d   1      -1.583  37.525 -45.949  0.00  0.00     0.163 HD
BRANCH  30  33
ATOM     33  CA  NON d   1      -3.233  38.358 -44.186  0.00  0.00     0.109 C 
ATOM     34  H   NON d   1      -3.857  37.925 -44.968  0.00  0.00     0.090 H 
BRANCH  33  35
ATOM     35  N   NON d   1      -4.030  38.448 -42.966  0.00  0.00    -0.344 N 
ATOM     36  C   NON d   1      -4.614  37.375 -42.440  0.00  0.00     0.241 C 
ATOM     37  O   NON d   1      -4.521  36.254 -42.938  0.00  0.00    -0.271 OA
ATOM     38  H   NON d   1      -4.141  39.352 -42.508  0.00  0.00     0.163 HD
BRANCH  36  39
ATOM     39  CA  NON d   1      -5.423  37.590 -41.162  0.00  0.00     0.091 C 
ATOM     40  N   NON d   1      -6.772  37.023 -41.264  0.00  0.00    -0.337 N 
ATOM     41  C   NON d   1      -7.786  37.665 -41.867  0.00  0.00     0.253 C 
ATOM     42  CD  NON d   1      -6.875  35.776 -40.482  0.00  0.00    -0.001 C 
ATOM     43  O   NON d   1      -7.644  38.783 -42.366  0.00  0.00    -0.271 OA
ATOM     44  CG  NON d   1      -5.424  35.471 -40.154  0.00  0.00    -0.048 C 
ATOM     45  H   NON d   1      -7.367  34.971 -41.027  0.00  0.00     0.064 H 
ATOM     46  H   NON d   1      -7.500  35.879 -39.595  0.00  0.00     0.064 H 
ATOM     47  CB  NON d   1      -4.834  36.837 -39.977  0.00  0.00    -0.036 C 
ATOM     48  H   NON d   1      -5.310  34.840 -39.272  0.00  0.00     0.035 H 
ATOM     49  H   NON d   1      -4.926  34.889 -40.929  0.00  0.00     0.035 H 
ATOM     50  H   NON d   1      -5.073  37.290 -39.015  0.00  0.00     0.036 H 
ATOM     51  H   NON d   1      -3.744  36.839 -39.962  0.00  0.00     0.036 H 
ATOM     52  H   NON d   1      -5.420  38.672 -41.027  0.00  0.00     0.087 H 
BRANCH  41  53
ATOM     53  CA  NON d   1      -9.139  36.955 -41.901  0.00  0.00     0.196 C 
ATOM     54  H   NON d   1      -9.004  35.968 -41.458  0.00  0.00     0.102 H 
BRANCH  53  55
ATOM     55  N   NON d   1     -10.164  37.667 -41.087  0.00  0.00    -0.064 N 
ATOM     56  H   NON d   1     -11.048  37.161 -41.138  0.00  0.00     0.275 HD
ATOM     57  H   NON d   1      -9.853  37.715 -40.117  0.00  0.00     0.275 HD
ATOM     58  H   NON d   1     -10.290  38.611 -41.452  0.00  0.00     0.275 HD
ENDBRANCH  53  55
BRANCH  53  59
ATOM     59  CB  NON d   1      -9.616  36.792 -43.346  0.00  0.00     0.067 C 
ATOM     60  H   NON d   1     -10.217  35.883 -43.321  0.00  0.00     0.079 H 
ATOM     61  H   NON d   1      -8.699  36.852 -43.932  0.00  0.00     0.079 H 
BRANCH  59  62
ATOM     62  OG  NON d   1     -10.355  37.618 -43.873  0.00  0.00    -0.280 OA
BRANCH  62  63
ATOM     63  P   NON d   1      -9.889  38.520 -45.155  0.00  0.00     0.422 P 
ATOM     64  O1P NON d   1      -9.028  39.634 -44.631  0.00  0.00    -0.617 OA
ATOM     65  O2P NON d   1      -8.980  37.779 -46.067  0.00  0.00    -0.617 OA
ATOM     66  O3P NON d   1     -11.121  38.808 -45.927  0.00  0.00    -0.617 OA
ENDBRANCH  62  63
ENDBRANCH  59  62
ENDBRANCH  53  59
ENDBRANCH  41  53
ENDBRANCH  36  39
ENDBRANCH  33  35
BRANCH  33  67
ATOM     67  CB  NON d   1      -2.768  39.749 -44.629  0.00  0.00     0.044 C 
ATOM     68  H   NON d   1      -3.637  40.404 -44.686  0.00  0.00     0.077 H 
ATOM     69  H   NON d   1      -2.277  39.659 -45.598  0.00  0.00     0.077 H 
BRANCH  67  70
ATOM     70  OG  NON d   1      -1.845  40.301 -43.704  0.00  0.00    -0.398 OA
ATOM     71  H   NON d   1      -1.572  41.170 -44.006  0.00  0.00     0.209 HD
ENDBRANCH  67  70
ENDBRANCH  33  67
ENDBRANCH  30  33
ENDBRANCH  27  29
BRANCH  27  72
ATOM     72  CB  NON d   1      -0.185  35.214 -45.989  0.00  0.00    -0.014 C 
ATOM     73  H   NON d   1       0.700  34.587 -45.881  0.00  0.00     0.043 H 
ATOM     74  H   NON d   1      -0.230  35.679 -46.974  0.00  0.00     0.043 H 
BRANCH  72  75
ATOM     75  CG  NON d   1      -1.410  34.344 -45.816  0.00  0.00    -0.056 A 
ATOM     76  CD1 NON d   1      -2.545  34.540 -46.601  0.00  0.00    -0.074 A 
ATOM     77  CE1 NON d   1      -3.717  33.824 -46.366  0.00  0.00    -0.051 A 
ATOM     78  H   NON d   1      -2.515  35.266 -47.413  0.00  0.00     0.084 H 
ATOM     79  CZ  NON d   1      -3.758  32.898 -45.333  0.00  0.00     0.065 A 
ATOM     80  H   NON d   1      -4.596  33.990 -46.989  0.00  0.00     0.087 H 
ATOM     81  CE2 NON d   1      -2.638  32.679 -44.544  0.00  0.00    -0.051 A 
ATOM     82  CD2 NON d   1      -1.475  33.398 -44.791  0.00  0.00    -0.074 A 
ATOM     83  H   NON d   1      -2.670  31.948 -43.736  0.00  0.00     0.087 H 
ATOM     84  H   NON d   1      -0.596  33.220 -44.172  0.00  0.00     0.084 H 
BRANCH  79  85
ATOM     85  OH  NON d   1      -4.927  32.210 -45.078  0.00  0.00    -0.361 OA
ATOM     86  H   NON d   1      -5.598  32.477 -45.710  0.00  0.00     0.217 HD
ENDBRANCH  79  85
ENDBRANCH  72  75
ENDBRANCH  27  72
ENDBRANCH  24  27
ENDBRANCH  21  23
BRANCH  21  87
ATOM     87  CB  NON d   1       2.307  40.037 -43.514  0.00  0.00     0.059 C 
ATOM     88  H   NON d   1       1.743  39.957 -42.585  0.00  0.00     0.079 H 
ATOM     89  H   NON d   1       1.837  40.383 -44.435  0.00  0.00     0.079 H 
BRANCH  87  90
ATOM     90  OG  NON d   1       3.147  40.893 -43.274  0.00  0.00    -0.280 OA
BRANCH  90  91
ATOM     91  P   NON d   1       3.478  42.101 -44.319  0.00  0.00     0.422 P 
ATOM     92  O1P NON d   1       2.290  43.022 -44.321  0.00  0.00    -0.617 OA
ATOM     93  O2P NON d   1       4.593  42.961 -43.844  0.00  0.00    -0.617 OA
ATOM     94  O3P NON d   1       3.944  41.454 -45.569  0.00  0.00    -0.617 OA
ENDBRANCH  90  91
ENDBRANCH  87  90
ENDBRANCH  21  87
ENDBRANCH   9  21
ENDBRANCH   4   7
ENDBRANCH   1   3
BRANCH   1  95
ATOM     95  C   NON d   1       4.540  39.470 -38.082  0.00  0.00     0.243 C 
ATOM     96  O   NON d   1       3.579  38.722 -38.248  0.00  0.00    -0.271 OA
ATOM     97  N   NON d   1       5.065  39.726 -36.887  0.00  0.00    -0.344 N 
ATOM     98  H   NON d   1       5.862  40.360 -36.823  0.00  0.00     0.163 HD
BRANCH  97  99
ATOM     99  CA  NON d   1       4.537  39.129 -35.665  0.00  0.00     0.110 C 
ATOM    100  H   NON d   1       4.815  38.075 -35.663  0.00  0.00     0.090 H 
BRANCH  99 101
ATOM    101  CB  NON d   1       5.137  39.804 -34.435  0.00  0.00     0.059 C 
ATOM    102  H   NON d   1       4.271  40.047 -33.819  0.00  0.00     0.079 H 
ATOM    103  H   NON d   1       5.772  40.588 -34.848  0.00  0.00     0.079 H 
BRANCH 101 104
ATOM    104  OG  NON d   1       5.877  39.193 -33.677  0.00  0.00    -0.280 OA
BRANCH 104 105
ATOM    105  P   NON d   1       7.461  39.548 -33.537  0.00  0.00     0.422 P 
ATOM    106  O1P NON d   1       7.636  40.989 -33.918  0.00  0.00    -0.617 OA
ATOM    107  O2P NON d   1       7.919  39.506 -32.129  0.00  0.00    -0.617 OA
ATOM    108  O3P NON d   1       8.187  38.475 -34.253  0.00  0.00    -0.617 OA
ENDBRANCH 104 105
ENDBRANCH 101 104
ENDBRANCH  99 101
BRANCH  99 109
ATOM    109  C   NON d   1       3.018  39.229 -35.619  0.00  0.00     0.245 C 
ATOM    110  O   NON d   1       2.447  40.272 -35.933  0.00  0.00    -0.271 OA
ATOM    111  N   NON d   1       2.346  38.139 -35.215  0.00  0.00    -0.337 N 
ATOM    112  CA  NON d   1       0.884  38.077 -35.122  0.00  0.00     0.091 C 
ATOM    113  CD  NON d   1       2.951  36.883 -34.735  0.00  0.00    -0.001 C 
ATOM    114  CB  NON d   1       0.627  36.600 -34.863  0.00  0.00    -0.036 C 
ATOM    115  H   NON d   1       0.395  38.455 -36.020  0.00  0.00     0.087 H 
ATOM    116  CG  NON d   1       1.799  36.226 -34.003  0.00  0.00    -0.048 C 
ATOM    117  H   NON d   1       0.554  36.008 -35.775  0.00  0.00     0.036 H 
ATOM    118  H   NON d   1      -0.336  36.406 -34.390  0.00  0.00     0.036 H 
ATOM    119  H   NON d   1       1.921  35.149 -33.885  0.00  0.00     0.035 H 
ATOM    120  H   NON d   1       1.699  36.558 -32.970  0.00  0.00     0.035 H 
ATOM    121  H   NON d   1       3.824  37.043 -34.103  0.00  0.00     0.064 H 
ATOM    122  H   NON d   1       3.354  36.267 -35.539  0.00  0.00     0.064 H 
BRANCH 112 123
ATOM    123  C   NON d   1       0.310  38.961 -34.021  0.00  0.00     0.241 C 
ATOM    124  O   NON d   1       0.939  39.163 -32.981  0.00  0.00    -0.271 OA
ATOM    125  N   NON d   1      -0.888  39.484 -34.261  0.00  0.00    -0.344 N 
ATOM    126  H   NON d   1      -1.349  39.280 -35.148  0.00  0.00     0.163 HD
BRANCH 125 127
ATOM    127  CA  NON d   1      -1.561  40.341 -33.292  0.00  0.00     0.109 C 
ATOM    128  H   NON d   1      -0.815  40.755 -32.614  0.00  0.00     0.090 H 
BRANCH 127 129
ATOM    129  C   NON d   1      -2.572  39.522 -32.503  0.00  0.00     0.243 C 
ATOM    130  O   NON d   1      -3.604  39.106 -33.034  0.00  0.00    -0.271 OA
ATOM    131  N   NON d   1      -2.263  39.290 -31.232  0.00  0.00    -0.346 N 
ATOM    132  H   NON d   1      -1.391  39.663 -30.857  0.00  0.00     0.163 HD
BRANCH 131 133
ATOM    133  CA  NON d   1      -3.134  38.519 -30.364  0.00  0.00     0.093 C 
ATOM    134  H   NON d   1      -3.554  37.676 -30.913  0.00  0.00     0.088 H 
BRANCH 133 135
ATOM    135  C   NON d   1      -4.290  39.385 -29.886  0.00  0.00     0.241 C 
ATOM    136  O   NON d   1      -4.518  39.539 -28.688  0.00  0.00    -0.271 OA
ATOM    137  N   NON d   1      -5.014  39.951 -30.849  0.00  0.00    -0.344 N 
ATOM    138  H   NON d   1      -4.755  39.778 -31.820  0.00  0.00     0.163 HD
BRANCH 137 139
ATOM    139  CA  NON d   1      -6.162  40.809 -30.575  0.00  0.00     0.110 C 
ATOM    140  H   NON d   1      -6.765  40.344 -29.795  0.00  0.00     0.090 H 
BRANCH 139 141
ATOM    141  CB  NON d   1      -5.700  42.184 -30.081  0.00  0.00     0.059 C 
ATOM    142  H   NON d   1      -5.205  41.968 -29.134  0.00  0.00     0.079 H 
ATOM    143  H   NON d   1      -6.603  42.793 -30.125  0.00  0.00     0.079 H 
BRANCH 141 144
ATOM    144  OG  NON d   1      -4.869  42.844 -30.703  0.00  0.00    -0.280 OA
BRANCH 144 145
ATOM    145  P   NON d   1      -5.053  44.442 -31.010  0.00  0.00     0.422 P 
ATOM    146  O1P NON d   1      -5.738  44.564 -32.342  0.00  0.00    -0.617 OA
ATOM    147  O2P NON d   1      -6.002  45.095 -30.071  0.00  0.00    -0.617 OA
ATOM    148  O3P NON d   1      -3.727  45.064 -30.775  0.00  0.00    -0.617 OA
ENDBRANCH 144 145
ENDBRANCH 141 144
ENDBRANCH 139 141
BRANCH 139 149
ATOM    149  C   NON d   1      -7.008  40.967 -31.839  0.00  0.00     0.245 C 
ATOM    150  O   NON d   1      -6.480  41.246 -32.918  0.00  0.00    -0.271 OA
ATOM    151  N   NON d   1      -8.335  40.781 -31.723  0.00  0.00    -0.336 N 
ATOM    152  CA  NON d   1      -9.237  40.910 -32.871  0.00  0.00     0.098 C 
ATOM    153  CD  NON d   1      -9.065  40.280 -30.543  0.00  0.00    -0.001 C 
ATOM    154  CB  NON d   1     -10.439  40.077 -32.447  0.00  0.00    -0.035 C 
ATOM    155  H   NON d   1      -8.794  40.572 -33.808  0.00  0.00     0.089 H 
ATOM    156  CG  NON d   1     -10.519  40.375 -30.988  0.00  0.00    -0.048 C 
ATOM    157  H   NON d   1     -10.329  39.015 -32.667  0.00  0.00     0.036 H 
ATOM    158  H   NON d   1     -11.351  40.325 -32.990  0.00  0.00     0.036 H 
ATOM    159  H   NON d   1     -11.173  39.688 -30.450  0.00  0.00     0.035 H 
ATOM    160  H   NON d   1     -10.964  41.347 -30.778  0.00  0.00     0.035 H 
ATOM    161  H   NON d   1      -8.857  40.852 -29.639  0.00  0.00     0.064 H 
ATOM    162  H   NON d   1      -8.772  39.270 -30.257  0.00  0.00     0.064 H 
BRANCH 152 163
ATOM    163  C   NON d   1      -9.608  42.367 -33.148  0.00  0.00     0.196 C 
ATOM    164  O   NON d   1      -9.036  42.934 -34.104  0.00  0.00    -0.646 OA
ATOM    165  O   NON d   1     -10.457  42.972 -32.441  0.00  0.00    -0.646 OA
ENDBRANCH 152 163
ENDBRANCH 139 149
ENDBRANCH 137 139
ENDBRANCH 133 135
BRANCH 133 166
ATOM    166  CB  NON d   1      -2.322  37.975 -29.187  0.00  0.00    -0.014 C 
ATOM    167  H   NON d   1      -2.992  37.388 -28.558  0.00  0.00     0.043 H 
ATOM    168  H   NON d   1      -1.889  38.823 -28.656  0.00  0.00     0.043 H 
BRANCH 166 169
ATOM    169  CG  NON d   1      -1.190  37.074 -29.633  0.00  0.00    -0.056 A 
ATOM    170  CD1 NON d   1       0.122  37.304 -29.217  0.00  0.00    -0.074 A 
ATOM    171  CE1 NON d   1       1.172  36.499 -29.662  0.00  0.00    -0.051 A 
ATOM    172  H   NON d   1       0.331  38.127 -28.533  0.00  0.00     0.084 H 
ATOM    173  CZ  NON d   1       0.908  35.451 -30.531  0.00  0.00     0.065 A 
ATOM    174  H   NON d   1       2.192  36.693 -29.329  0.00  0.00     0.087 H 
ATOM    175  CE2 NON d   1      -0.388  35.202 -30.953  0.00  0.00    -0.051 A 
ATOM    176  CD2 NON d   1      -1.426  36.011 -30.504  0.00  0.00    -0.074 A 
ATOM    177  H   NON d   1      -0.593  34.376 -31.634  0.00  0.00     0.087 H 
ATOM    178  H   NON d   1      -2.444  35.810 -30.839  0.00  0.00     0.084 H 
BRANCH 173 179
ATOM    179  OH  NON d   1       1.935  34.655 -30.991  0.00  0.00    -0.361 OA
ATOM    180  H   NON d   1       2.764  34.953 -30.610  0.00  0.00     0.217 HD
ENDBRANCH 173 179
ENDBRANCH 166 169
ENDBRANCH 133 166
ENDBRANCH 131 133
ENDBRANCH 127 129
BRANCH 127 181
ATOM    181  CB  NON d   1      -2.274  41.497 -33.998  0.00  0.00     0.044 C 
ATOM    182  H   NON d   1      -3.025  41.087 -34.673  0.00  0.00     0.077 H 
ATOM    183  H   NON d   1      -1.536  42.081 -34.548  0.00  0.00     0.077 H 
BRANCH 181 184
ATOM    184  OG  NON d   1      -2.916  42.340 -33.059  0.00  0.00    -0.398 OA
ATOM    185  H   NON d   1      -3.563  41.832 -32.565  0.00  0.00     0.209 HD
ENDBRANCH 181 184
ENDBRANCH 127 181
ENDBRANCH 125 127
ENDBRANCH 112 123
ENDBRANCH  99 109
ENDBRANCH  97  99
ENDBRANCH   1  95
BRANCH   1 186
ATOM    186  CB  NON d   1       4.497  41.522 -39.476  0.00  0.00     0.060 C 
ATOM    187  H   NON d   1       4.497  42.069 -38.533  0.00  0.00     0.086 H 
BRANCH 186 188
ATOM    188  OG1 NON d   1       3.149  41.296 -39.907  0.00  0.00    -0.393 OA
ATOM    189  H   NON d   1       2.681  40.790 -39.239  0.00  0.00     0.210 HD
ENDBRANCH 186 188
BRANCH 186 190
ATOM    190  CG2 NON d   1       5.233  42.347 -40.519  0.00  0.00    -0.050 C 
ATOM    191  H   NON d   1       6.255  42.525 -40.184  0.00  0.00     0.031 H 
ATOM    192  H   NON d   1       5.248  41.805 -41.465  0.00  0.00     0.031 H 
ATOM    193  H   NON d   1       4.722  43.300 -40.653  0.00  0.00     0.031 H 
ENDBRANCH 186 190
ENDBRANCH   1 186
TORSDOF 47
