REMARK  15 active torsions:
REMARK  status: ('A' for Active; 'I' for Inactive)
REMARK    1  A    between atoms: CA_11  and  N_2 
REMARK    2  A    between atoms: N_2  and  CH3_12 
REMARK    3  A    between atoms: C4_7  and  O4_8 
REMARK    4  A    between atoms: C3_31  and  O3_32 
REMARK    5  A    between atoms: C4_45  and  O4_46 
REMARK    6  A    between atoms: C4_56  and  O4_57 
REMARK    7  A    between atoms: CB_69  and  ODE_73 
REMARK    8  A    between atoms: CA_84  and  C_74 
REMARK       I    between atoms: C_74  and  N1A_85 
REMARK    9  A    between atoms: C3_79  and  O3_80 
REMARK   10  A    between atoms: N1A_85  and  C2A_86 
REMARK   11  A    between atoms: C2A_86  and  C3A_87 
REMARK   12  A    between atoms: C3A_87  and  C4A_88 
REMARK   13  A    between atoms: C4A_88  and  N5A_89 
REMARK   14  A    between atoms: N5A_89  and  C6A_90 
REMARK   15  A    between atoms: N5A_89  and  C7A_91 
ROOT
ATOM      1  C   HGM d   1       4.544   2.234  34.401  0.00  0.00     0.253 C 
ATOM      2  O   HGM d   1       5.444   2.862  34.934  0.00  0.00    -0.271 OA
ATOM      3  C1  HGM d   1       4.684   2.308  31.890  0.00  0.00    -0.016 A 
ATOM      4  C2  HGM d   1       4.709   3.701  31.914  0.00  0.00    -0.039 A 
ATOM      5  C3  HGM d   1       4.543   4.441  30.731  0.00  0.00     0.109 A 
ATOM      6  C4  HGM d   1       4.358   3.803  29.518  0.00  0.00     0.099 A 
ATOM      7  C5  HGM d   1       4.486   1.680  30.666  0.00  0.00    -0.072 A 
ATOM      8  C6  HGM d   1       4.330   2.412  29.487  0.00  0.00    -0.048 A 
ATOM      9  CA  HGM d   1       4.858   1.479  33.120  0.00  0.00     0.202 C 
ATOM     10  H   HGM d   1       4.859   4.222  32.860  0.00  0.00     0.088 H 
ATOM     11  H   HGM d   1       4.452   0.591  30.625  0.00  0.00     0.084 H 
ATOM     12  H   HGM d   1       4.186   1.892  28.540  0.00  0.00     0.087 H 
ATOM     13  H   HGM d   1       4.173   0.638  33.009  0.00  0.00     0.107 H 
ATOM     14  N   DTY d   1       3.312   2.163  34.912  0.00  0.00    -0.345 N 
ATOM     15  CA  DTY d   1       2.959   2.866  36.163  0.00  0.00     0.093 C 
ATOM     16  C   DTY d   1       2.149   4.150  35.894  0.00  0.00     0.241 C 
ATOM     17  O   DTY d   1       1.880   4.918  36.817  0.00  0.00    -0.271 OA
ATOM     18  CB  DTY d   1       2.220   1.938  37.154  0.00  0.00    -0.014 C 
ATOM     19  CG  DTY d   1       0.857   1.565  36.644  0.00  0.00    -0.056 A 
ATOM     20  CD1 DTY d   1       0.720   0.623  35.634  0.00  0.00    -0.074 A 
ATOM     21  CD2 DTY d   1      -0.291   2.196  37.120  0.00  0.00    -0.074 A 
ATOM     22  CE1 DTY d   1      -0.506   0.302  35.123  0.00  0.00    -0.050 A 
ATOM     23  CE2 DTY d   1      -1.537   1.873  36.616  0.00  0.00    -0.050 A 
ATOM     24  CZ  DTY d   1      -1.633   0.919  35.619  0.00  0.00     0.076 A 
ATOM     25  OH  DTY d   1      -2.843   0.591  35.067  0.00  0.00    -0.308 OA
ATOM     26  H   DTY d   1       2.601   1.613  34.429  0.00  0.00     0.163 HD
ATOM     27  H   DTY d   1       3.898   3.165  36.630  0.00  0.00     0.088 H 
ATOM     28  H   DTY d   1       2.103   2.466  38.100  0.00  0.00     0.043 H 
ATOM     29  H   DTY d   1       2.805   1.026  37.276  0.00  0.00     0.043 H 
ATOM     30  H   DTY d   1       1.608   0.129  35.240  0.00  0.00     0.084 H 
ATOM     31  H   DTY d   1      -0.205   2.953  37.899  0.00  0.00     0.084 H 
ATOM     32  H   DTY d   1      -0.592  -0.438  34.327  0.00  0.00     0.087 H 
ATOM     33  H   DTY d   1      -2.432   2.364  36.999  0.00  0.00     0.087 H 
ATOM     34  C   HCL d   1      -0.226   5.770  33.620  0.00  0.00     0.246 C 
ATOM     35  N   HCL d   1       1.732   4.384  34.648  0.00  0.00    -0.342 N 
ATOM     36  O   HCL d   1      -0.879   6.843  33.729  0.00  0.00    -0.271 OA
ATOM     37 CL   HCL d   1       1.871   8.655  35.098  0.00  0.00    -0.081 Cl
ATOM     38  C1  HCL d   1       2.237   6.478  33.485  0.00  0.00     0.001 A 
ATOM     39  C2  HCL d   1       2.591   7.792  33.791  0.00  0.00     0.076 A 
ATOM     40  C3  HCL d   1       3.556   8.449  33.047  0.00  0.00     0.090 A 
ATOM     41  C4  HCL d   1       4.192   7.808  31.989  0.00  0.00    -0.017 A 
ATOM     42  O4  HCL d   1       4.566   5.806  30.727  0.00  0.00    -0.308 OA
ATOM     43  C5  HCL d   1       2.871   5.836  32.431  0.00  0.00    -0.040 A 
ATOM     44  C6  HCL d   1       3.852   6.494  31.691  0.00  0.00     0.079 A 
ATOM     45  CA  HCL d   1       1.178   5.721  34.312  0.00  0.00     0.117 C 
ATOM     46  H   HCL d   1       1.793   3.655  33.937  0.00  0.00     0.163 HD
ATOM     47  H   HCL d   1       4.947   8.330  31.401  0.00  0.00     0.092 H 
ATOM     48  H   HCL d   1       2.600   4.810  32.180  0.00  0.00     0.088 H 
ATOM     49  H   HCL d   1       0.971   6.201  35.268  0.00  0.00     0.095 H 
ATOM     50  N   GHP d   1      -0.664   4.711  32.934  0.00  0.00    -0.342 N 
ATOM     51  CA  GHP d   1      -2.028   4.680  32.327  0.00  0.00     0.115 C 
ATOM     52  C   GHP d   1      -2.026   5.035  30.832  0.00  0.00     0.246 C 
ATOM     53  O   GHP d   1      -1.192   4.543  30.072  0.00  0.00    -0.271 OA
ATOM     54  C1  GHP d   1      -2.733   3.303  32.545  0.00  0.00    -0.021 A 
ATOM     55  C2  GHP d   1      -2.431   2.526  33.669  0.00  0.00    -0.039 A 
ATOM     56  C3  GHP d   1      -3.077   1.298  33.891  0.00  0.00     0.112 A 
ATOM     57  C4  GHP d   1      -4.022   0.836  32.975  0.00  0.00     0.134 A 
ATOM     58  C5  GHP d   1      -4.334   1.593  31.841  0.00  0.00     0.112 A 
ATOM     59  C6  GHP d   1      -3.692   2.825  31.643  0.00  0.00    -0.039 A 
ATOM     60  N   GHP d   1      -2.952   5.901  30.422  0.00  0.00    -0.342 N 
ATOM     61  CA  GHP d   1      -3.302   6.047  28.983  0.00  0.00     0.115 C 
ATOM     62  C   GHP d   1      -4.825   6.333  28.844  0.00  0.00     0.245 C 
ATOM     63  O   GHP d   1      -5.431   6.864  29.777  0.00  0.00    -0.271 OA
ATOM     64  C1  GHP d   1      -2.603   7.185  28.215  0.00  0.00    -0.025 A 
ATOM     65  C2  GHP d   1      -1.790   6.895  27.128  0.00  0.00    -0.061 A 
ATOM     66  C3  GHP d   1      -1.215   7.931  26.395  0.00  0.00     0.008 A 
ATOM     67  C4  GHP d   1      -1.445   9.263  26.754  0.00  0.00     0.076 A 
ATOM     68  C5  GHP d   1      -2.269   9.550  27.837  0.00  0.00    -0.050 A 
ATOM     69  C6  GHP d   1      -2.854   8.513  28.551  0.00  0.00    -0.072 A 
ATOM     70  H   GHP d   1      -0.051   3.903  32.822  0.00  0.00     0.163 HD
ATOM     71  H   GHP d   1      -2.595   5.450  32.849  0.00  0.00     0.095 H 
ATOM     72  H   GHP d   1      -1.685   2.878  34.382  0.00  0.00     0.088 H 
ATOM     73  H   GHP d   1      -3.945   3.423  30.768  0.00  0.00     0.088 H 
ATOM     74  H   GHP d   1      -3.433   6.478  31.112  0.00  0.00     0.163 HD
ATOM     75  H   GHP d   1      -2.970   5.104  28.549  0.00  0.00     0.095 H 
ATOM     76  H   GHP d   1      -1.602   5.859  26.848  0.00  0.00     0.085 H 
ATOM     77  H   GHP d   1      -2.455  10.585  28.124  0.00  0.00     0.087 H 
ATOM     78  H   GHP d   1      -3.518   8.741  29.385  0.00  0.00     0.084 H 
ATOM     79  N   OMY d   1      -5.430   6.013  27.695  0.00  0.00    -0.343 N 
ATOM     80  CA  OMY d   1      -4.753   5.369  26.539  0.00  0.00     0.118 C 
ATOM     81  OCZ OMY d   1      -5.270   1.105  30.928  0.00  0.00    -0.306 OA
ATOM     82  CE2 OMY d   1      -6.380   2.761  29.587  0.00  0.00    -0.048 A 
ATOM     83  CE1 OMY d   1      -4.414   1.658  28.773  0.00  0.00     0.068 A 
ATOM     84  CZ  OMY d   1      -5.357   1.840  29.777  0.00  0.00     0.098 A 
ATOM     85  CG  OMY d   1      -5.504   3.303  27.394  0.00  0.00    -0.025 A 
ATOM     86  CD2 OMY d   1      -6.449   3.499  28.404  0.00  0.00    -0.072 A 
ATOM     87  CD1 OMY d   1      -4.473   2.388  27.587  0.00  0.00    -0.051 A 
ATOM     88  CB  OMY d   1      -5.550   4.140  26.117  0.00  0.00     0.089 C 
ATOM     89 CL   OMY d   1      -3.169   0.493  29.041  0.00  0.00    -0.081 Cl
ATOM     90  O   OMY d   1      -5.316   7.326  25.230  0.00  0.00    -0.271 OA
ATOM     91  C   OMY d   1      -4.532   6.397  25.418  0.00  0.00     0.244 C 
ATOM     92  H   OMY d   1      -6.424   6.225  27.606  0.00  0.00     0.163 HD
ATOM     93  H   OMY d   1      -3.758   5.016  26.811  0.00  0.00     0.092 H 
ATOM     94  H   OMY d   1      -7.131   2.908  30.364  0.00  0.00     0.087 H 
ATOM     95  H   OMY d   1      -7.244   4.232  28.268  0.00  0.00     0.084 H 
ATOM     96  H   OMY d   1      -3.717   2.243  26.816  0.00  0.00     0.087 H 
ATOM     97  H   OMY d   1      -5.172   3.606  25.245  0.00  0.00     0.094 H 
ATOM     98  N   HG7 d   1      -3.431   6.230  24.694  0.00  0.00    -0.342 N 
ATOM     99  C1  HG7 d   1      -1.310   7.218  24.052  0.00  0.00    -0.013 A 
ATOM    100  C2  HG7 d   1      -0.671   6.683  22.938  0.00  0.00    -0.042 A 
ATOM    101  C3  HG7 d   1       0.702   6.518  22.933  0.00  0.00     0.066 A 
ATOM    102  C4  HG7 d   1       1.437   6.882  24.046  0.00  0.00    -0.050 A 
ATOM    103  C5  HG7 d   1       0.795   7.399  25.158  0.00  0.00    -0.069 A 
ATOM    104  C6  HG7 d   1      -0.582   7.595  25.191  0.00  0.00    -0.014 A 
ATOM    105  CA  HG7 d   1      -2.828   7.365  23.985  0.00  0.00     0.116 C 
ATOM    106  H   HG7 d   1      -3.002   5.307  24.630  0.00  0.00     0.163 HD
ATOM    107  H   HG7 d   1      -1.255   6.393  22.065  0.00  0.00     0.088 H 
ATOM    108  H   HG7 d   1       2.520   6.762  24.048  0.00  0.00     0.087 H 
ATOM    109  H   HG7 d   1       1.387   7.661  26.035  0.00  0.00     0.085 H 
ATOM    110  H   HG7 d   1      -3.147   8.288  24.469  0.00  0.00     0.095 H 
ENDROOT
BRANCH 105 111
ATOM    111  C   HG7 d   1      -3.295   7.460  22.530  0.00  0.00     0.245 C 
ATOM    112  O   HG7 d   1      -3.732   6.469  21.945  0.00  0.00    -0.271 OA
ATOM    113  N1A HG7 d   1      -3.198   8.646  21.910  0.00  0.00    -0.359 N 
ATOM    114  H   HG7 d   1      -2.784   9.469  22.347  0.00  0.00     0.162 HD
BRANCH 113 115
ATOM    115  C2A HG7 d   1      -3.742   8.652  20.547  0.00  0.00    -0.003 C 
ATOM    116  H   HG7 d   1      -4.832   8.634  20.576  0.00  0.00     0.064 H 
ATOM    117  H   HG7 d   1      -3.406   7.769  20.003  0.00  0.00     0.064 H 
BRANCH 115 118
ATOM    118  C3A HG7 d   1      -3.250   9.926  19.848  0.00  0.00    -0.025 C 
ATOM    119  H   HG7 d   1      -3.682   9.962  18.848  0.00  0.00     0.037 H 
ATOM    120  H   HG7 d   1      -2.161   9.901  19.808  0.00  0.00     0.037 H 
BRANCH 118 121
ATOM    121  C4A HG7 d   1      -3.684  11.189  20.616  0.00  0.00     0.114 C 
ATOM    122  H   HG7 d   1      -3.324  12.057  20.064  0.00  0.00     0.079 H 
ATOM    123  H   HG7 d   1      -3.268  11.130  21.622  0.00  0.00     0.079 H 
BRANCH 121 124
ATOM    124  N5A HG7 d   1      -5.150  11.303  20.737  0.00  0.00     0.080 N 
BRANCH 124 125
ATOM    125  C6A HG7 d   1      -5.485  12.513  21.515  0.00  0.00     0.095 C 
ATOM    126  H   HG7 d   1      -5.042  12.439  22.508  0.00  0.00     0.071 H 
ATOM    127  H   HG7 d   1      -5.092  13.392  21.005  0.00  0.00     0.071 H 
ATOM    128  H   HG7 d   1      -6.568  12.598  21.605  0.00  0.00     0.071 H 
ENDBRANCH 124 125
BRANCH 124 129
ATOM    129  C7A HG7 d   1      -5.753  11.409  19.396  0.00  0.00     0.095 C 
ATOM    130  H   HG7 d   1      -5.362  12.293  18.892  0.00  0.00     0.071 H 
ATOM    131  H   HG7 d   1      -5.506  10.519  18.817  0.00  0.00     0.071 H 
ATOM    132  H   HG7 d   1      -6.836  11.493  19.491  0.00  0.00     0.071 H 
ENDBRANCH 124 129
ENDBRANCH 121 124
ENDBRANCH 118 121
ENDBRANCH 115 118
ENDBRANCH 113 115
ENDBRANCH 105 111
BRANCH 101 133
ATOM    133  O3  HG7 d   1       1.328   6.001  21.847  0.00  0.00    -0.361 OA
ATOM    134  H   HG7 d   1       2.272   5.957  22.014  0.00  0.00     0.217 HD
ENDBRANCH 101 133
BRANCH  88 135
ATOM    135  ODE OMY d   1      -6.895   4.538  25.768  0.00  0.00    -0.388 OA
ATOM    136  H   OMY d   1      -6.874   5.060  24.962  0.00  0.00     0.210 HD
ENDBRANCH  88 135
BRANCH  67 137
ATOM    137  O4  GHP d   1      -0.887  10.296  26.064  0.00  0.00    -0.360 OA
ATOM    138  H   GHP d   1      -1.160  11.127  26.459  0.00  0.00     0.217 HD
ENDBRANCH  67 137
BRANCH  57 139
ATOM    139  O4  GHP d   1      -4.629  -0.363  33.199  0.00  0.00    -0.356 OA
ATOM    140  H   GHP d   1      -5.249  -0.544  32.489  0.00  0.00     0.218 HD
ENDBRANCH  57 139
BRANCH  40 141
ATOM    141  O3  HCL d   1       3.854   9.732  33.378  0.00  0.00    -0.359 OA
ATOM    142  H   HCL d   1       4.533  10.064  32.787  0.00  0.00     0.217 HD
ENDBRANCH  40 141
BRANCH   9 143
ATOM    143  N   HGM d   1       6.284   1.074  33.245  0.00  0.00    -0.062 N 
ATOM    144  H   HGM d   1       6.405   0.648  34.164  0.00  0.00     0.278 HD
ATOM    145  H   HGM d   1       6.855   1.908  33.110  0.00  0.00     0.278 HD
BRANCH 143 146
ATOM    146  CH3 HGM d   1       6.697   0.082  32.235  0.00  0.00     0.066 C 
ATOM    147  H   HGM d   1       6.089  -0.816  32.340  0.00  0.00     0.067 H 
ATOM    148  H   HGM d   1       6.559   0.501  31.238  0.00  0.00     0.067 H 
ATOM    149  H   HGM d   1       7.747  -0.170  32.383  0.00  0.00     0.067 H 
ENDBRANCH 143 146
ENDBRANCH   9 143
BRANCH   6 150
ATOM    150  O4  HGM d   1       4.189   4.539  28.369  0.00  0.00    -0.358 OA
ATOM    151  H   HGM d   1       4.074   3.945  27.624  0.00  0.00     0.217 HD
ENDBRANCH   6 150
TORSDOF 15
