REMARK  17 active torsions:
REMARK  status: ('A' for Active; 'I' for Inactive)
REMARK    1  A    between atoms: N_1  and  CN_2 
REMARK    2  A    between atoms: CA_3  and  N_1 
REMARK    3  A    between atoms: C_4  and  CA_3 
REMARK    4  A    between atoms: CA_3  and  CB_6 
REMARK       I    between atoms: N_10  and  C_4 
REMARK    5  A    between atoms: CB_6  and  CG_7 
REMARK    6  A    between atoms: CG_7  and  CD1_8 
REMARK    7  A    between atoms: CG_7  and  CD2_9 
REMARK    8  A    between atoms: CA_11  and  N_10 
REMARK    9  A    between atoms: CB_14  and  OC_15 
REMARK   10  A    between atoms: CA_25  and  CB_28 
REMARK   11  A    between atoms: CB_28  and  CG_29 
REMARK       I    between atoms: CG_29  and  ND2_31 
REMARK   12  A    between atoms: C4_39  and  O4_40 
REMARK   13  A    between atoms: C4_50  and  O4_51 
REMARK   14  A    between atoms: CB_63  and  ODE_67 
REMARK   15  A    between atoms: CD1_70  and  OD1_69 
REMARK   16  A    between atoms: CD2_73  and  OD2_74 
REMARK   17  A    between atoms: CA_77  and  C_78 
ROOT
ATOM      1  CA  OMZ d   1      25.074 -41.770   2.133  0.00  0.00     0.118 C 
ATOM      2  C   OMZ d   1      26.379 -41.603   1.297  0.00  0.00     0.244 C 
ATOM      3  O   OMZ d   1      26.275 -41.206   0.122  0.00  0.00    -0.271 OA
ATOM      4  CB  OMZ d   1      24.185 -42.923   1.581  0.00  0.00     0.089 C 
ATOM      5  CG  OMZ d   1      24.956 -44.243   1.556  0.00  0.00    -0.025 A 
ATOM      6  CD1 OMZ d   1      25.562 -44.565   0.351  0.00  0.00    -0.051 A 
ATOM      7  CD2 OMZ d   1      25.096 -45.095   2.651  0.00  0.00    -0.072 A 
ATOM      8  CE1 OMZ d   1      26.306 -45.724   0.236  0.00  0.00     0.068 A 
ATOM      9 CL   OMZ d   1      27.046 -46.109  -1.277  0.00  0.00    -0.081 Cl
ATOM     10  CE2 OMZ d   1      25.839 -46.277   2.528  0.00  0.00    -0.048 A 
ATOM     11  CZ  OMZ d   1      26.473 -46.570   1.319  0.00  0.00     0.098 A 
ATOM     12  OH  OMZ d   1      27.239 -47.676   1.112  0.00  0.00    -0.306 OA
ATOM     13  H   OMZ d   1      24.442 -40.885   2.054  0.00  0.00     0.092 H 
ATOM     14  H   OMZ d   1      23.881 -42.705   0.557  0.00  0.00     0.094 H 
ATOM     15  H   OMZ d   1      25.451 -43.903  -0.507  0.00  0.00     0.087 H 
ATOM     16  H   OMZ d   1      24.628 -44.842   3.602  0.00  0.00     0.084 H 
ATOM     17  H   OMZ d   1      25.921 -46.963   3.371  0.00  0.00     0.087 H 
ATOM     18  N   ASN d   1      27.549 -41.896   1.873  0.00  0.00    -0.345 N 
ATOM     19  CA  ASN d   1      28.832 -41.502   1.266  0.00  0.00     0.097 C 
ATOM     20  C   ASN d   1      29.773 -42.625   0.797  0.00  0.00     0.241 C 
ATOM     21  O   ASN d   1      30.154 -42.665  -0.381  0.00  0.00    -0.271 OA
ATOM     22  H   ASN d   1      27.554 -42.406   2.756  0.00  0.00     0.163 HD
ATOM     23  H   ASN d   1      28.529 -41.004   0.345  0.00  0.00     0.088 H 
ATOM     24  N   GHP d   1      30.161 -43.511   1.718  0.00  0.00    -0.342 N 
ATOM     25  CA  GHP d   1      31.159 -44.567   1.435  0.00  0.00     0.115 C 
ATOM     26  C   GHP d   1      32.306 -44.506   2.478  0.00  0.00     0.246 C 
ATOM     27  O   GHP d   1      32.018 -44.464   3.699  0.00  0.00    -0.271 OA
ATOM     28  C1  GHP d   1      30.532 -45.980   1.520  0.00  0.00    -0.021 A 
ATOM     29  C2  GHP d   1      31.351 -47.091   1.783  0.00  0.00    -0.039 A 
ATOM     30  C3  GHP d   1      30.813 -48.381   1.868  0.00  0.00     0.112 A 
ATOM     31  C4  GHP d   1      29.434 -48.537   1.679  0.00  0.00     0.134 A 
ATOM     32  C5  GHP d   1      28.583 -47.453   1.435  0.00  0.00     0.112 A 
ATOM     33  C6  GHP d   1      29.154 -46.173   1.326  0.00  0.00    -0.039 A 
ATOM     34  N   GHP d   1      33.559 -44.500   2.030  0.00  0.00    -0.342 N 
ATOM     35  CA  GHP d   1      34.688 -44.867   2.923  0.00  0.00     0.115 C 
ATOM     36  C   GHP d   1      35.728 -45.638   2.070  0.00  0.00     0.245 C 
ATOM     37  O   GHP d   1      35.664 -45.512   0.830  0.00  0.00    -0.271 OA
ATOM     38  C1  GHP d   1      35.504 -43.762   3.590  0.00  0.00    -0.025 A 
ATOM     39  C2  GHP d   1      36.261 -42.837   2.853  0.00  0.00    -0.072 A 
ATOM     40  C3  GHP d   1      37.046 -41.908   3.535  0.00  0.00    -0.050 A 
ATOM     41  C4  GHP d   1      37.107 -41.927   4.942  0.00  0.00     0.076 A 
ATOM     42  C5  GHP d   1      36.346 -42.860   5.676  0.00  0.00     0.011 A 
ATOM     43  C6  GHP d   1      35.575 -43.775   4.980  0.00  0.00    -0.061 A 
ATOM     44  H   GHP d   1      29.754 -43.458   2.652  0.00  0.00     0.163 HD
ATOM     45  H   GHP d   1      31.532 -44.391   0.426  0.00  0.00     0.095 H 
ATOM     46  H   GHP d   1      32.422 -46.946   1.923  0.00  0.00     0.088 H 
ATOM     47  H   GHP d   1      28.520 -45.319   1.088  0.00  0.00     0.088 H 
ATOM     48  H   GHP d   1      33.746 -44.240   1.062  0.00  0.00     0.163 HD
ATOM     49  H   GHP d   1      34.186 -45.401   3.729  0.00  0.00     0.095 H 
ATOM     50  H   GHP d   1      36.235 -42.845   1.763  0.00  0.00     0.084 H 
ATOM     51  H   GHP d   1      37.615 -41.164   2.977  0.00  0.00     0.087 H 
ATOM     52  H   GHP d   1      35.010 -44.524   5.534  0.00  0.00     0.085 H 
ATOM     53  N   OMY d   1      36.636 -46.409   2.665  0.00  0.00    -0.343 N 
ATOM     54  CA  OMY d   1      36.667 -46.704   4.120  0.00  0.00     0.118 C 
ATOM     55  OCZ OMY d   1      31.621 -49.501   2.083  0.00  0.00    -0.306 OA
ATOM     56  CE2 OMY d   1      33.999 -49.432   1.901  0.00  0.00    -0.048 A 
ATOM     57  CE1 OMY d   1      32.935 -48.732   3.946  0.00  0.00     0.068 A 
ATOM     58  CZ  OMY d   1      32.835 -49.220   2.641  0.00  0.00     0.098 A 
ATOM     59  CG  OMY d   1      35.358 -48.661   3.734  0.00  0.00    -0.025 A 
ATOM     60  CD2 OMY d   1      35.261 -49.143   2.427  0.00  0.00    -0.072 A 
ATOM     61  CD1 OMY d   1      34.193 -48.451   4.473  0.00  0.00    -0.051 A 
ATOM     62  CB  OMY d   1      36.693 -48.241   4.370  0.00  0.00     0.089 C 
ATOM     63 CL   OMY d   1      31.529 -48.463   4.930  0.00  0.00    -0.081 Cl
ATOM     64  O   OMY d   1      38.779 -45.511   4.174  0.00  0.00    -0.271 OA
ATOM     65  C   OMY d   1      37.784 -45.916   4.817  0.00  0.00     0.244 C 
ATOM     66  H   OMY d   1      37.361 -46.826   2.081  0.00  0.00     0.163 HD
ATOM     67  H   OMY d   1      35.745 -46.354   4.585  0.00  0.00     0.092 H 
ATOM     68  H   OMY d   1      33.922 -49.832   0.890  0.00  0.00     0.087 H 
ATOM     69  H   OMY d   1      36.157 -49.292   1.825  0.00  0.00     0.084 H 
ATOM     70  H   OMY d   1      34.270 -48.058   5.487  0.00  0.00     0.087 H 
ATOM     71  H   OMY d   1      36.771 -48.581   5.402  0.00  0.00     0.094 H 
ATOM     72  N   3FG d   1      37.619 -45.690   6.113  0.00  0.00    -0.341 N 
ATOM     73  CD1 3FG d   1      36.473 -43.488   9.856  0.00  0.00     0.069 A 
ATOM     74  CG1 3FG d   1      37.352 -44.146   9.014  0.00  0.00    -0.041 A 
ATOM     75  CZ  3FG d   1      35.606 -42.535   9.334  0.00  0.00    -0.018 A 
ATOM     76  CD2 3FG d   1      35.636 -42.250   7.961  0.00  0.00     0.080 A 
ATOM     77  CG2 3FG d   1      36.499 -42.937   7.085  0.00  0.00     0.019 A 
ATOM     78  CB  3FG d   1      37.372 -43.863   7.655  0.00  0.00    -0.009 A 
ATOM     79  CA  3FG d   1      38.352 -44.602   6.761  0.00  0.00     0.123 C 
ATOM     80  H   3FG d   1      36.983 -46.273   6.657  0.00  0.00     0.163 HD
ATOM     81  H   3FG d   1      38.034 -44.892   9.421  0.00  0.00     0.088 H 
ATOM     82  H   3FG d   1      34.907 -42.013   9.988  0.00  0.00     0.092 H 
ATOM     83  H   3FG d   1      38.753 -43.957   5.979  0.00  0.00     0.097 H 
ENDROOT
BRANCH   1  84
ATOM     84  N   OMZ d   1      25.467 -41.935   3.547  0.00  0.00    -0.343 N 
ATOM     85  C   MLU d   1      25.297 -40.941   4.422  0.00  0.00     0.249 C 
ATOM     86  O   MLU d   1      24.700 -39.898   4.143  0.00  0.00    -0.271 OA
ATOM     87  H   OMZ d   1      25.873 -42.818   3.858  0.00  0.00     0.163 HD
BRANCH  85  88
ATOM     88  CA  MLU d   1      25.911 -41.135   5.819  0.00  0.00     0.177 C 
ATOM     89  H   MLU d   1      26.069 -42.195   6.016  0.00  0.00     0.099 H 
BRANCH  88  90
ATOM     90  N   MLU d   1      25.013 -40.651   6.887  0.00  0.00    -0.066 N 
ATOM     91  H   MLU d   1      24.140 -41.174   6.820  0.00  0.00     0.277 HD
ATOM     92  H   MLU d   1      25.490 -40.785   7.779  0.00  0.00     0.277 HD
BRANCH  90  93
ATOM     93  CN  MLU d   1      24.690 -39.220   6.762  0.00  0.00     0.066 C 
ATOM     94  H   MLU d   1      25.609 -38.636   6.811  0.00  0.00     0.067 H 
ATOM     95  H   MLU d   1      24.196 -39.042   5.807  0.00  0.00     0.067 H 
ATOM     96  H   MLU d   1      24.027 -38.926   7.576  0.00  0.00     0.067 H 
ENDBRANCH  90  93
ENDBRANCH  88  90
BRANCH  88  97
ATOM     97  CB  MLU d   1      27.237 -40.365   5.831  0.00  0.00    -0.027 C 
ATOM     98  H   MLU d   1      27.005 -39.310   5.686  0.00  0.00     0.037 H 
ATOM     99  H   MLU d   1      27.866 -40.784   5.045  0.00  0.00     0.037 H 
BRANCH  97 100
ATOM    100  CG  MLU d   1      28.004 -40.490   7.150  0.00  0.00    -0.059 C 
ATOM    101  H   MLU d   1      27.390 -40.068   7.946  0.00  0.00     0.038 H 
BRANCH 100 102
ATOM    102  CD1 MLU d   1      28.256 -41.948   7.544  0.00  0.00    -0.073 C 
ATOM    103  H   MLU d   1      28.886 -42.423   6.792  0.00  0.00     0.028 H 
ATOM    104  H   MLU d   1      28.756 -41.980   8.512  0.00  0.00     0.028 H 
ATOM    105  H   MLU d   1      27.304 -42.475   7.608  0.00  0.00     0.028 H 
ENDBRANCH 100 102
BRANCH 100 106
ATOM    106  CD2 MLU d   1      29.315 -39.701   7.046  0.00  0.00    -0.073 C 
ATOM    107  H   MLU d   1      29.824 -39.715   8.010  0.00  0.00     0.028 H 
ATOM    108  H   MLU d   1      29.953 -40.158   6.290  0.00  0.00     0.028 H 
ATOM    109  H   MLU d   1      29.096 -38.671   6.765  0.00  0.00     0.028 H 
ENDBRANCH 100 106
ENDBRANCH  97 100
ENDBRANCH  88  97
ENDBRANCH  85  88
ENDBRANCH   1  84
BRANCH   4 110
ATOM    110  OC  OMZ d   1      23.049 -43.032   2.434  0.00  0.00    -0.388 OA
ATOM    111  H   OMZ d   1      22.480 -43.737   2.118  0.00  0.00     0.210 HD
ENDBRANCH   4 110
BRANCH  19 112
ATOM    112  CB  ASN d   1      29.596 -40.578   2.218  0.00  0.00     0.036 C 
ATOM    113  H   ASN d   1      30.459 -40.185   1.681  0.00  0.00     0.051 H 
ATOM    114  H   ASN d   1      29.875 -41.160   3.096  0.00  0.00     0.051 H 
BRANCH 112 115
ATOM    115  CG  ASN d   1      28.762 -39.397   2.687  0.00  0.00     0.217 C 
ATOM    116  OD1 ASN d   1      27.596 -39.245   2.304  0.00  0.00    -0.274 OA
ATOM    117  ND2 ASN d   1      29.356 -38.556   3.516  0.00  0.00    -0.370 N 
ATOM    118  H   ASN d   1      28.850 -37.742   3.866  0.00  0.00     0.159 HD
ATOM    119  H   ASN d   1      30.320 -38.721   3.806  0.00  0.00     0.159 HD
ENDBRANCH 112 115
ENDBRANCH  19 112
BRANCH  31 120
ATOM    120  O4  GHP d   1      28.883 -49.773   1.784  0.00  0.00    -0.356 OA
ATOM    121  H   GHP d   1      27.937 -49.715   1.629  0.00  0.00     0.218 HD
ENDBRANCH  31 120
BRANCH  62 122
ATOM    122  ODE OMY d   1      37.842 -48.773   3.718  0.00  0.00    -0.388 OA
ATOM    123  H   OMY d   1      38.633 -48.469   4.168  0.00  0.00     0.210 HD
ENDBRANCH  62 122
BRANCH  41 124
ATOM    124  O4  GHP d   1      37.891 -41.010   5.566  0.00  0.00    -0.360 OA
ATOM    125  H   GHP d   1      37.587 -40.127   5.344  0.00  0.00     0.217 HD
ENDBRANCH  41 124
BRANCH  76 126
ATOM    126  OD2 3FG d   1      34.795 -41.306   7.451  0.00  0.00    -0.360 OA
ATOM    127  H   3FG d   1      33.886 -41.565   7.619  0.00  0.00     0.217 HD
ENDBRANCH  76 126
BRANCH  79 128
ATOM    128  C   3FG d   1      39.597 -45.047   7.555  0.00  0.00     0.201 C 
ATOM    129  O   3FG d   1      39.828 -46.262   7.655  0.00  0.00    -0.646 OA
ATOM    130  OXT 3FG d   1      40.307 -44.133   8.021  0.00  0.00    -0.646 OA
ENDBRANCH  79 128
BRANCH  73 131
ATOM    131  OD1 3FG d   1      36.459 -43.775  11.191  0.00  0.00    -0.361 OA
ATOM    132  H   3FG d   1      37.323 -43.589  11.566  0.00  0.00     0.217 HD
ENDBRANCH  73 131
TORSDOF 17
