REMARK  8 active torsions:
REMARK  status: ('A' for Active; 'I' for Inactive)
REMARK    1  A    between atoms: O3A_8  and  PB_1 
REMARK    2  A    between atoms: PA_5  and  O3A_8 
REMARK    3  A    between atoms: PA_5  and  O5'_9 
REMARK    4  A    between atoms: O5'_9  and  C5'_10 
REMARK    5  A    between atoms: C5'_10  and  C4'_11 
REMARK    6  A    between atoms: C3'_13  and  O3'_14 
REMARK    7  A    between atoms: C2'_15  and  O2'_16 
REMARK    8  A    between atoms: C1'_17  and  N9_18 
ROOT
ATOM      1  C4' ADP d   1      18.534   1.026  28.769  0.00  0.00     0.089 C 
ATOM      2  O4' ADP d   1      17.851   1.314  29.984  0.00  0.00    -0.353 OA
ATOM      3  C3' ADP d   1      17.537   0.284  27.887  0.00  0.00     0.091 C 
ATOM      4  C2' ADP d   1      16.179   0.716  28.436  0.00  0.00     0.105 C 
ATOM      5  C1' ADP d   1      16.479   0.872  29.917  0.00  0.00     0.139 C 
ATOM      6  H3  ADP d   1      19.410   0.389  28.961  0.00  0.00     0.090 H 
ATOM      7  H4  ADP d   1      17.646   0.561  26.828  0.00  0.00     0.091 H 
ATOM      8  H6  ADP d   1      15.887   1.681  27.996  0.00  0.00     0.093 H 
ATOM      9  H8  ADP d   1      16.381  -0.107  30.408  0.00  0.00     0.122 H 
ENDROOT
BRANCH   5  10
ATOM     10  N9  ADP d   1      15.581   1.824  30.613  0.00  0.00    -0.294 N 
ATOM     11  C8  ADP d   1      15.513   3.150  30.392  0.00  0.00     0.071 A 
ATOM     12  N7  ADP d   1      14.627   3.736  31.227  0.00  0.00    -0.236 NA
ATOM     13  H9  ADP d   1      16.095   3.680  29.640  0.00  0.00     0.144 H 
ATOM     14  C5  ADP d   1      14.103   2.778  32.011  0.00  0.00     0.149 A 
ATOM     15  C6  ADP d   1      13.099   2.726  33.110  0.00  0.00     0.155 A 
ATOM     16  C4  ADP d   1      14.744   1.516  31.613  0.00  0.00     0.167 A 
ATOM     17  N6  ADP d   1      12.481   3.861  33.508  0.00  0.00    -0.382 N 
ATOM     18  N1  ADP d   1      12.833   1.524  33.687  0.00  0.00    -0.222 NA
ATOM     19  H10 ADP d   1      11.786   3.830  34.268  0.00  0.00     0.157 HD
ATOM     20  H11 ADP d   1      12.705   4.757  33.052  0.00  0.00     0.157 HD
ATOM     21  C2  ADP d   1      13.462   0.401  33.273  0.00  0.00     0.091 A 
ATOM     22  N3  ADP d   1      14.389   0.381  32.272  0.00  0.00    -0.222 NA
ATOM     23  H12 ADP d   1      13.216  -0.534  33.763  0.00  0.00     0.146 H 
ENDBRANCH   5  10
BRANCH   4  24
ATOM     24  O2' ADP d   1      15.110  -0.217  28.211  0.00  0.00    -0.388 OA
ATOM     25  H7  ADP d   1      15.321  -1.045  28.626  0.00  0.00     0.210 HD
ENDBRANCH   4  24
BRANCH   1  26
ATOM     26  C5' ADP d   1      18.992   2.336  28.138  0.00  0.00     0.058 C 
ATOM     27  H1  ADP d   1      19.686   2.840  28.827  0.00  0.00     0.079 H 
ATOM     28  H2  ADP d   1      19.510   2.115  27.193  0.00  0.00     0.079 H 
BRANCH  26  29
ATOM     29  O5' ADP d   1      17.889   3.207  27.870  0.00  0.00    -0.287 OA
BRANCH  29  30
ATOM     30  PA  ADP d   1      17.741   3.905  26.421  0.00  0.00     0.418 P 
ATOM     31  O1A ADP d   1      16.422   4.631  26.328  0.00  0.00    -0.624 OA
ATOM     32  O2A ADP d   1      18.056   2.849  25.379  0.00  0.00    -0.624 OA
BRANCH  30  33
ATOM     33  O3A ADP d   1      18.983   4.941  26.479  0.00  0.00    -0.173 OA
BRANCH  33  34
ATOM     34  PB  ADP d   1      19.046   6.473  26.986  0.00  0.00     0.431 P 
ATOM     35  O1B ADP d   1      17.719   6.848  27.588  0.00  0.00    -0.616 OA
ATOM     36  O2B ADP d   1      19.395   7.167  25.689  0.00  0.00    -0.616 OA
ATOM     37  O3B ADP d   1      20.159   6.480  28.004  0.00  0.00    -0.616 OA
ENDBRANCH  33  34
ENDBRANCH  30  33
ENDBRANCH  29  30
ENDBRANCH  26  29
ENDBRANCH   1  26
BRANCH   3  38
ATOM     38  O3' ADP d   1      17.730  -1.132  28.053  0.00  0.00    -0.390 OA
ATOM     39  H5  ADP d   1      17.111  -1.601  27.506  0.00  0.00     0.210 HD
ENDBRANCH   3  38
TORSDOF 8
