REMARK  6 active torsions:
REMARK  status: ('A' for Active; 'I' for Inactive)
REMARK    1  A    between atoms: C1_3  and  C_1 
REMARK    2  A    between atoms: C7_11  and  C'_2 
REMARK    3  A    between atoms: C2_4  and  O2_5 
REMARK    4  A    between atoms: O3_7  and  C3_6 
REMARK    5  A    between atoms: O3_7  and  C7_11 
REMARK    6  A    between atoms: C8_12  and  C9_13 
ROOT
ATOM      1  C7  VAE d   1      11.899  41.806  30.855  0.00  0.00     0.153 C 
ATOM      2  C8  VAE d   1      11.130  41.679  31.836  0.00  0.00    -0.034 C 
ATOM      3  H   VAE d   1      10.099  41.465  31.554  0.00  0.00     0.089 H 
ENDROOT
BRANCH   1   4
ATOM      4  C'  VAE d   1      13.438  42.140  30.936  0.00  0.00     0.234 C 
ATOM      5  OA' VAE d   1      13.699  43.112  31.651  0.00  0.00    -0.642 OA
ATOM      6  OB' VAE d   1      14.147  41.604  30.310  0.00  0.00    -0.642 OA
ENDBRANCH   1   4
BRANCH   1   7
ATOM      7  O3  VAE d   1      11.339  41.633  29.482  0.00  0.00    -0.301 OA
BRANCH   7   8
ATOM      8  C3  VAE d   1      11.700  42.581  28.537  0.00  0.00     0.110 A 
ATOM      9  C2  VAE d   1      11.684  41.978  27.211  0.00  0.00     0.116 A 
ATOM     10  C1  VAE d   1      12.008  42.725  26.077  0.00  0.00     0.076 A 
ATOM     11  C6  VAE d   1      12.368  44.115  26.251  0.00  0.00    -0.064 A 
ATOM     12  C5  VAE d   1      12.296  44.634  27.393  0.00  0.00    -0.079 A 
ATOM     13  H   VAE d   1      12.699  44.708  25.398  0.00  0.00     0.085 H 
ATOM     14  C4  VAE d   1      12.015  43.869  28.596  0.00  0.00    -0.047 A 
ATOM     15  H   VAE d   1      12.452  45.709  27.486  0.00  0.00     0.083 H 
ATOM     16  H   VAE d   1      12.064  44.363  29.567  0.00  0.00     0.087 H 
BRANCH   9  17
ATOM     17  O2  VAE d   1      11.319  40.528  27.161  0.00  0.00    -0.357 OA
ATOM     18  H   VAE d   1      11.135  40.215  28.049  0.00  0.00     0.217 HD
ENDBRANCH   9  17
BRANCH  10  19
ATOM     19  C   VAE d   1      11.980  42.091  24.779  0.00  0.00     0.212 C 
ATOM     20  OA  VAE d   1      11.591  40.796  24.695  0.00  0.00    -0.644 OA
ATOM     21  OB  VAE d   1      12.298  42.761  23.835  0.00  0.00    -0.644 OA
ENDBRANCH  10  19
ENDBRANCH   7   8
ENDBRANCH   1   7
BRANCH   2  22
ATOM     22  C9  VAE d   1      11.342  41.763  33.342  0.00  0.00    -0.033 A 
ATOM     23  C10 VAE d   1      12.647  41.429  34.089  0.00  0.00    -0.073 A 
ATOM     24  C11 VAE d   1      12.817  41.526  35.434  0.00  0.00    -0.082 A 
ATOM     25  H   VAE d   1      13.496  41.090  33.496  0.00  0.00     0.084 H 
ATOM     26  C12 VAE d   1      11.757  41.897  36.198  0.00  0.00    -0.083 A 
ATOM     27  H   VAE d   1      13.783  41.311  35.890  0.00  0.00     0.083 H 
ATOM     28  C13 VAE d   1      10.409  42.278  35.678  0.00  0.00    -0.082 A 
ATOM     29  H   VAE d   1      11.901  41.919  37.278  0.00  0.00     0.083 H 
ATOM     30  C14 VAE d   1      10.251  42.187  34.150  0.00  0.00    -0.073 A 
ATOM     31  H   VAE d   1       9.598  42.597  36.333  0.00  0.00     0.083 H 
ATOM     32  H   VAE d   1       9.300  42.448  33.685  0.00  0.00     0.084 H 
ENDBRANCH   2  22
TORSDOF 6
