REMARK  8 active torsions:
REMARK  status: ('A' for Active; 'I' for Inactive)
REMARK    1  A    between atoms: C9_19  and  C10_1 
REMARK    2  A    between atoms: C9_19  and  C11_2 
REMARK    3  A    between atoms: C2_16  and  O2_7 
REMARK    4  A    between atoms: C8_8  and  C9_19 
REMARK    5  A    between atoms: O3_12  and  C7_15 
REMARK    6  A    between atoms: C3_17  and  O3_12 
REMARK    7  A    between atoms: C7_15  and  C'_13 
REMARK    8  A    between atoms: C1_18  and  C_14 
ROOT
ATOM      1  C8  RVB d   1      42.233   0.559  39.368  0.00  0.00    -0.060 C 
ATOM      2  C7  RVB d   1      41.750   1.626  38.741  0.00  0.00     0.149 C 
ATOM      3  H   RVB d   1      42.416   0.592  40.442  0.00  0.00     0.082 H 
ENDROOT
BRANCH   2   4
ATOM      4  O3  RVB d   1      41.534   1.605  37.406  0.00  0.00    -0.301 OA
BRANCH   4   5
ATOM      5  C3  RVB d   1      40.268   1.540  36.898  0.00  0.00     0.110 A 
ATOM      6  C4  RVB d   1      39.120   1.112  37.547  0.00  0.00    -0.047 A 
ATOM      7  C5  RVB d   1      37.912   1.106  36.858  0.00  0.00    -0.079 A 
ATOM      8  H   RVB d   1      39.164   0.784  38.586  0.00  0.00     0.087 H 
ATOM      9  C6  RVB d   1      37.836   1.506  35.535  0.00  0.00    -0.064 A 
ATOM     10  H   RVB d   1      37.007   0.780  37.370  0.00  0.00     0.083 H 
ATOM     11  C1  RVB d   1      38.988   1.921  34.893  0.00  0.00     0.076 A 
ATOM     12  H   RVB d   1      36.882   1.494  35.007  0.00  0.00     0.085 H 
ATOM     13  C2  RVB d   1      40.164   1.926  35.596  0.00  0.00     0.116 A 
BRANCH  11  14
ATOM     14  C   RVB d   1      39.003   2.332  33.586  0.00  0.00     0.212 C 
ATOM     15  OA  RVB d   1      40.056   2.662  33.055  0.00  0.00    -0.644 OA
ATOM     16  OB  RVB d   1      37.984   2.373  32.935  0.00  0.00    -0.644 OA
ENDBRANCH  11  14
BRANCH  13  17
ATOM     17  O2  RVB d   1      41.269   2.328  34.978  0.00  0.00    -0.357 OA
ATOM     18  H   RVB d   1      41.058   2.570  34.073  0.00  0.00     0.217 HD
ENDBRANCH  13  17
ENDBRANCH   4   5
ENDBRANCH   2   4
BRANCH   2  19
ATOM     19  C'  RVB d   1      40.987   2.611  39.610  0.00  0.00     0.234 C 
ATOM     20  OA' RVB d   1      40.897   3.796  39.269  0.00  0.00    -0.642 OA
ATOM     21  OB' RVB d   1      40.496   2.232  40.692  0.00  0.00    -0.642 OA
ENDBRANCH   2  19
BRANCH   1  22
ATOM     22  C9  RVB d   1      42.528  -0.698  38.588  0.00  0.00    -0.042 C 
ATOM     23  H   RVB d   1      42.446  -0.486  37.522  0.00  0.00     0.045 H 
BRANCH  22  24
ATOM     24  C10 RVB d   1      41.562  -1.787  38.992  0.00  0.00    -0.070 C 
ATOM     25  H   RVB d   1      41.669  -1.989  40.058  0.00  0.00     0.028 H 
ATOM     26  H   RVB d   1      40.543  -1.462  38.783  0.00  0.00     0.028 H 
ATOM     27  H   RVB d   1      41.780  -2.692  38.426  0.00  0.00     0.028 H 
ENDBRANCH  22  24
BRANCH  22  28
ATOM     28  C11 RVB d   1      43.908  -1.179  38.966  0.00  0.00    -0.070 C 
ATOM     29  H   RVB d   1      44.639  -0.408  38.723  0.00  0.00     0.028 H 
ATOM     30  H   RVB d   1      43.939  -1.387  40.036  0.00  0.00     0.028 H 
ATOM     31  H   RVB d   1      44.139  -2.088  38.411  0.00  0.00     0.028 H 
ENDBRANCH  22  28
ENDBRANCH   1  22
TORSDOF 8
