REMARK  6 active torsions:
REMARK  status: ('A' for Active; 'I' for Inactive)
REMARK    1  A    between atoms: CAK_11  and  CAA_1 
REMARK    2  A    between atoms: CAG_7  and  CAK_11 
REMARK    3  A    between atoms: OAL_12  and  CAO_15 
REMARK    4  A    between atoms: CAQ_17  and  OAL_12 
REMARK    5  A    between atoms: CAO_15  and  CAM_13 
REMARK    6  A    between atoms: CAR_18  and  CAN_14 
ROOT
ATOM      1  OAF RVD d   1      38.249   1.031  28.060  0.00  0.00    -0.193 OA
ATOM      2  CAH RVD d   1      41.632   0.324  30.175  0.00  0.00    -0.083 A 
ATOM      3  CAI RVD d   1      40.557   0.935  30.784  0.00  0.00    -0.069 A 
ATOM      4  CAJ RVD d   1      41.549  -0.047  28.849  0.00  0.00    -0.064 A 
ATOM      5  CAP RVD d   1      39.366   0.777  28.713  0.00  0.00     0.134 A 
ATOM      6  CAQ RVD d   1      39.441   1.144  30.025  0.00  0.00     0.112 A 
ATOM      7  CAR RVD d   1      40.426   0.186  28.093  0.00  0.00     0.076 A 
ATOM      8  H   RVD d   1      42.545   0.135  30.739  0.00  0.00     0.083 H 
ATOM      9  H   RVD d   1      40.596   1.239  31.830  0.00  0.00     0.081 H 
ATOM     10  H   RVD d   1      42.403  -0.541  28.386  0.00  0.00     0.085 H 
ATOM     11  H   RVD d   1      40.254   0.591  30.494  0.00  0.00     0.101 H 
ENDROOT
BRANCH   6  12
ATOM     12  OAL RVD d   1      38.403   1.726  30.514  0.00  0.00    -0.329 OA
BRANCH  12  13
ATOM     13  CAO RVD d   1      38.234   1.495  31.783  0.00  0.00     0.142 C 
ATOM     14  CAG RVD d   1      38.154   2.606  32.468  0.00  0.00    -0.064 C 
ATOM     15  H   RVD d   1      37.959   2.588  33.540  0.00  0.00     0.081 H 
BRANCH  14  16
ATOM     16  CAK RVD d   1      38.324   3.809  31.796  0.00  0.00    -0.050 C 
ATOM     17  H   RVD d   1      39.292   4.226  32.075  0.00  0.00     0.038 H 
ATOM     18  H   RVD d   1      38.265   3.617  30.725  0.00  0.00     0.038 H 
BRANCH  16  19
ATOM     19  CAA RVD d   1      37.259   4.798  32.160  0.00  0.00    -0.073 C 
ATOM     20  H   RVD d   1      36.282   4.391  31.898  0.00  0.00     0.027 H 
ATOM     21  H   RVD d   1      37.297   4.993  33.232  0.00  0.00     0.027 H 
ATOM     22  H   RVD d   1      37.426   5.727  31.614  0.00  0.00     0.027 H 
ENDBRANCH  16  19
ENDBRANCH  14  16
BRANCH  13  23
ATOM     23  CAM RVD d   1      37.555   0.197  32.216  0.00  0.00     0.233 C 
ATOM     24  OAB RVD d   1      37.025  -0.487  31.354  0.00  0.00    -0.642 OA
ATOM     25  OAD RVD d   1      37.576  -0.114  33.390  0.00  0.00    -0.642 OA
ENDBRANCH  13  23
ENDBRANCH  12  13
ENDBRANCH   6  12
BRANCH   7  26
ATOM     26  CAN RVD d   1      40.326  -0.244  26.636  0.00  0.00     0.212 C 
ATOM     27  OAC RVD d   1      39.327   0.011  25.977  0.00  0.00    -0.644 OA
ATOM     28  OAE RVD d   1      41.240  -0.888  26.208  0.00  0.00    -0.644 OA
ENDBRANCH   7  26
TORSDOF 6
