REMARK  5 active torsions:
REMARK  status: ('A' for Active; 'I' for Inactive)
REMARK    1  A    between atoms: C4_6  and  C12_14 
REMARK    2  A    between atoms: C7_9  and  N13_15 
REMARK    3  A    between atoms: C10_12  and  C21_24 
REMARK       I    between atoms: C12_14  and  N20_22 
REMARK    4  A    between atoms: N13_15  and  C14_16 
REMARK    5  A    between atoms: N23_26  and  C26_29 
ROOT
ATOM      1  C   17P d   1     -24.433 -35.363   6.077  0.00  0.00    -0.018 C 
ATOM      2  C1  17P d   1     -23.517 -36.340   5.324  0.00  0.00     0.107 C 
ATOM      3  N   17P d   1     -24.423 -37.167   4.492  0.00  0.00    -0.065 N 
ATOM      4  C2  17P d   1     -25.832 -36.983   4.894  0.00  0.00     0.122 C 
ATOM      5  C3  17P d   1     -25.851 -35.938   5.992  0.00  0.00     0.032 C 
ATOM      6  C4  17P d   1     -27.007 -37.913   4.681  0.00  0.00     0.061 C 
ATOM      7  C5  17P d   1     -28.341 -37.336   5.099  0.00  0.00     0.096 C 
ATOM      8  N6  17P d   1     -28.408 -36.032   5.766  0.00  0.00    -0.045 N 
ATOM      9  C7  17P d   1     -27.218 -35.465   6.442  0.00  0.00     0.259 C 
ATOM     10  C8  17P d   1     -23.734 -34.320   6.943  0.00  0.00    -0.059 C 
ATOM     11  C9  17P d   1     -22.243 -34.523   7.155  0.00  0.00    -0.061 C 
ATOM     12  C10 17P d   1     -21.390 -35.023   5.988  0.00  0.00    -0.046 C 
ATOM     13  C11 17P d   1     -22.006 -36.164   5.184  0.00  0.00    -0.034 C 
ATOM     14  H   17P d   1     -24.832 -34.351   6.008  0.00  0.00     0.044 H 
ATOM     15  H   17P d   1     -22.804 -36.971   5.856  0.00  0.00     0.084 H 
ATOM     16  H   17P d   1     -24.174 -38.148   4.616  0.00  0.00     0.278 HD
ATOM     17  H   17P d   1     -24.322 -36.882   3.518  0.00  0.00     0.278 HD
ATOM     18  H   17P d   1     -26.338 -36.831   3.941  0.00  0.00     0.086 H 
ATOM     19  H   17P d   1     -25.954 -35.932   7.077  0.00  0.00     0.049 H 
ATOM     20  H   17P d   1     -27.004 -38.697   5.439  0.00  0.00     0.058 H 
ATOM     21  H   17P d   1     -28.718 -38.039   5.842  0.00  0.00     0.077 H 
ATOM     22  H   17P d   1     -28.876 -37.187   4.161  0.00  0.00     0.077 H 
ATOM     23  H   17P d   1     -29.080 -36.172   6.520  0.00  0.00     0.279 HD
ATOM     24  H   17P d   1     -28.602 -35.375   5.010  0.00  0.00     0.279 HD
ATOM     25  H   17P d   1     -27.183 -36.056   7.357  0.00  0.00     0.131 H 
ATOM     26  H   17P d   1     -24.195 -34.381   7.929  0.00  0.00     0.033 H 
ATOM     27  H   17P d   1     -23.843 -33.368   6.424  0.00  0.00     0.033 H 
ATOM     28  H   17P d   1     -22.171 -35.305   7.911  0.00  0.00     0.033 H 
ATOM     29  H   17P d   1     -21.854 -33.531   7.383  0.00  0.00     0.033 H 
ATOM     30  H   17P d   1     -21.465 -34.197   5.281  0.00  0.00     0.040 H 
ATOM     31  H   17P d   1     -21.820 -35.935   4.135  0.00  0.00     0.036 H 
ATOM     32  H   17P d   1     -21.554 -37.082   5.559  0.00  0.00     0.036 H 
ENDROOT
BRANCH   9  33
ATOM     33  N13 17P d   1     -27.379 -34.190   7.168  0.00  0.00    -0.042 N 
ATOM     34  H   17P d   1     -27.109 -33.468   6.500  0.00  0.00     0.280 HD
ATOM     35  H   17P d   1     -26.829 -34.298   8.020  0.00  0.00     0.280 HD
BRANCH  33  36
ATOM     36  C14 17P d   1     -28.724 -33.804   7.627  0.00  0.00     0.104 C 
ATOM     37  C15 17P d   1     -28.639 -33.141   9.010  0.00  0.00    -0.038 C 
ATOM     38  C16 17P d   1     -29.974 -32.532   9.423  0.00  0.00    -0.063 C 
ATOM     39  H   17P d   1     -27.896 -32.344   8.965  0.00  0.00     0.036 H 
ATOM     40  H   17P d   1     -28.367 -33.903   9.741  0.00  0.00     0.036 H 
ATOM     41  C17 17P d   1     -30.537 -31.616   8.325  0.00  0.00    -0.065 C 
ATOM     42  H   17P d   1     -29.819 -31.938  10.323  0.00  0.00     0.033 H 
ATOM     43  H   17P d   1     -30.684 -33.341   9.597  0.00  0.00     0.033 H 
ATOM     44  C18 17P d   1     -30.731 -32.408   7.039  0.00  0.00    -0.063 C 
ATOM     45  H   17P d   1     -29.837 -30.800   8.143  0.00  0.00     0.033 H 
ATOM     46  H   17P d   1     -31.497 -31.215   8.649  0.00  0.00     0.033 H 
ATOM     47  C19 17P d   1     -29.384 -32.941   6.556  0.00  0.00    -0.038 C 
ATOM     48  H   17P d   1     -31.158 -31.758   6.275  0.00  0.00     0.033 H 
ATOM     49  H   17P d   1     -31.404 -33.244   7.227  0.00  0.00     0.033 H 
ATOM     50  H   17P d   1     -29.547 -33.550   5.667  0.00  0.00     0.036 H 
ATOM     51  H   17P d   1     -28.732 -32.096   6.335  0.00  0.00     0.036 H 
ATOM     52  H   17P d   1     -29.361 -34.678   7.762  0.00  0.00     0.084 H 
ENDBRANCH  33  36
ENDBRANCH   9  33
BRANCH   6  53
ATOM     53  C12 17P d   1     -26.850 -39.021   3.683  0.00  0.00     0.157 C 
ATOM     54  N20 17P d   1     -28.124 -39.570   3.156  0.00  0.00    -0.381 N 
ATOM     55  H   17P d   1     -28.154 -40.518   2.781  0.00  0.00     0.158 HD
ATOM     56  H   17P d   1     -28.969 -38.999   3.169  0.00  0.00     0.158 HD
ATOM     57  O   17P d   1     -25.604 -39.708   3.724  0.00  0.00    -0.177 OA
ENDBRANCH   6  53
BRANCH  12  58
ATOM     58  C21 17P d   1     -19.869 -34.952   6.117  0.00  0.00    -0.008 A 
ATOM     59  C22 17P d   1     -19.157 -35.070   7.454  0.00  0.00     0.021 A 
ATOM     60  N23 17P d   1     -17.728 -35.371   7.185  0.00  0.00    -0.252 N 
ATOM     61  H   17P d   1     -19.604 -35.865   8.051  0.00  0.00     0.067 H 
ATOM     62  H   17P d   1     -19.248 -34.139   8.014  0.00  0.00     0.067 H 
ATOM     63  N24 17P d   1     -17.437 -35.382   5.776  0.00  0.00     0.002 N 
ATOM     64  C25 17P d   1     -18.747 -35.140   5.117  0.00  0.00     0.107 A 
ATOM     65  H   17P d   1     -17.020 -36.265   5.481  0.00  0.00     0.305 HD
ATOM     66  H   17P d   1     -16.748 -34.673   5.525  0.00  0.00     0.305 HD
ATOM     67  H   17P d   1     -18.665 -34.227   4.527  0.00  0.00     0.079 H 
ATOM     68  H   17P d   1     -18.983 -36.010   4.505  0.00  0.00     0.079 H 
ATOM     69  H   17P d   1     -20.527 -34.189   5.701  0.00  0.00     0.045 H 
BRANCH  60  70
ATOM     70  C26 17P d   1     -16.608 -35.269   8.194  0.00  0.00     0.002 C 
ATOM     71  H   17P d   1     -16.541 -34.244   8.559  0.00  0.00     0.058 H 
ATOM     72  H   17P d   1     -16.810 -35.940   9.028  0.00  0.00     0.058 H 
ATOM     73  H   17P d   1     -15.667 -35.549   7.720  0.00  0.00     0.058 H 
ENDBRANCH  60  70
ENDBRANCH  12  58
TORSDOF 5
