REMARK  11 active torsions:
REMARK  status: ('A' for Active; 'I' for Inactive)
REMARK    1  A    between atoms: C7_4  and  C4_1 
REMARK    2  A    between atoms: C5_2  and  C17_8 
REMARK    3  A    between atoms: C15_7  and  C19_23 
REMARK    4  A    between atoms: C20_9  and  C21_10 
REMARK    5  A    between atoms: C20_9  and  C31_20 
REMARK    6  A    between atoms: C19_23  and  C20_9 
REMARK       I    between atoms: C21_10  and  N22_18 
REMARK    7  A    between atoms: C23_17  and  C24_11 
REMARK    8  A    between atoms: N22_18  and  C23_17 
REMARK    9  A    between atoms: C31_20  and  C32_21 
REMARK   10  A    between atoms: C32_21  and  C33_22 
REMARK   11  A    between atoms: C14_24  and  N18_26 
ROOT
ATOM      1  C20 RVI d   1      64.178  46.643   8.650  0.00  0.00     0.027 C 
ATOM      2  H   RVI d   1      63.949  47.440   7.943  0.00  0.00     0.055 H 
ENDROOT
BRANCH   1   3
ATOM      3  C21 RVI d   1      63.947  47.164  10.075  0.00  0.00     0.222 C 
ATOM      4  N22 RVI d   1      63.444  48.399  10.154  0.00  0.00    -0.360 N 
ATOM      5  H   RVI d   1      63.309  48.930   9.294  0.00  0.00     0.162 HD
ATOM      6  O30 RVI d   1      64.194  46.450  11.051  0.00  0.00    -0.273 OA
BRANCH   4   7
ATOM      7  C23 RVI d   1      63.075  49.027  11.446  0.00  0.00    -0.002 C 
ATOM      8  H   RVI d   1      62.130  49.541  11.272  0.00  0.00     0.064 H 
ATOM      9  H   RVI d   1      63.064  48.222  12.180  0.00  0.00     0.064 H 
BRANCH   7  10
ATOM     10  C24 RVI d   1      64.042  50.090  11.995  0.00  0.00    -0.039 C 
ATOM     11  C25 RVI d   1      64.170  51.296  11.061  0.00  0.00    -0.060 C 
ATOM     12  C26 RVI d   1      65.024  52.392  11.736  0.00  0.00    -0.065 C 
ATOM     13  H   RVI d   1      63.178  51.693  10.847  0.00  0.00     0.033 H 
ATOM     14  H   RVI d   1      64.651  50.984  10.134  0.00  0.00     0.033 H 
ATOM     15  C27 RVI d   1      66.407  51.865  12.163  0.00  0.00    -0.065 C 
ATOM     16  H   RVI d   1      64.499  52.732  12.628  0.00  0.00     0.033 H 
ATOM     17  H   RVI d   1      65.173  53.198  11.018  0.00  0.00     0.033 H 
ATOM     18  C28 RVI d   1      66.300  50.573  12.987  0.00  0.00    -0.065 C 
ATOM     19  H   RVI d   1      66.886  52.625  12.780  0.00  0.00     0.033 H 
ATOM     20  H   RVI d   1      66.983  51.649  11.263  0.00  0.00     0.033 H 
ATOM     21  C29 RVI d   1      65.438  49.519  12.269  0.00  0.00    -0.060 C 
ATOM     22  H   RVI d   1      65.833  50.810  13.943  0.00  0.00     0.033 H 
ATOM     23  H   RVI d   1      67.302  50.166  13.124  0.00  0.00     0.033 H 
ATOM     24  H   RVI d   1      65.910  49.251  11.324  0.00  0.00     0.033 H 
ATOM     25  H   RVI d   1      65.349  48.635  12.901  0.00  0.00     0.033 H 
ATOM     26  H   RVI d   1      63.605  50.420  12.938  0.00  0.00     0.042 H 
ENDBRANCH   7  10
ENDBRANCH   4   7
ENDBRANCH   1   3
BRANCH   1  27
ATOM     27  C31 RVI d   1      63.251  45.432   8.416  0.00  0.00    -0.054 C 
ATOM     28  H   RVI d   1      63.510  44.649   9.129  0.00  0.00     0.034 H 
ATOM     29  H   RVI d   1      63.382  45.083   7.392  0.00  0.00     0.034 H 
BRANCH  27  30
ATOM     30  C32 RVI d   1      61.775  45.822   8.622  0.00  0.00    -0.068 C 
ATOM     31  H   RVI d   1      61.467  46.418   7.763  0.00  0.00     0.032 H 
ATOM     32  H   RVI d   1      61.704  46.364   9.565  0.00  0.00     0.032 H 
BRANCH  30  33
ATOM     33  C33 RVI d   1      60.840  44.610   8.709  0.00  0.00    -0.076 C 
ATOM     34  H   RVI d   1      60.905  44.036   7.785  0.00  0.00     0.027 H 
ATOM     35  H   RVI d   1      61.137  43.983   9.550  0.00  0.00     0.027 H 
ATOM     36  H   RVI d   1      59.816  44.953   8.854  0.00  0.00     0.027 H 
ENDBRANCH  30  33
ENDBRANCH  27  30
ENDBRANCH   1  27
BRANCH   1  37
ATOM     37  C19 RVI d   1      65.648  46.243   8.416  0.00  0.00    -0.026 C 
ATOM     38  H   RVI d   1      65.942  45.502   9.159  0.00  0.00     0.041 H 
ATOM     39  H   RVI d   1      65.752  45.825   7.415  0.00  0.00     0.041 H 
BRANCH  37  40
ATOM     40  C15 RVI d   1      66.551  47.475   8.546  0.00  0.00    -0.011 A 
ATOM     41  C14 RVI d   1      66.603  48.532   7.626  0.00  0.00     0.128 A 
ATOM     42  N13 RVI d   1      67.421  49.579   7.827  0.00  0.00    -0.231 NA
ATOM     43  C12 RVI d   1      68.214  49.663   8.905  0.00  0.00     0.069 A 
ATOM     44  C11 RVI d   1      68.212  48.645   9.858  0.00  0.00    -0.006 A 
ATOM     45  C9  RVI d   1      69.039  50.771   9.065  0.00  0.00    -0.053 A 
ATOM     46  C10 RVI d   1      69.036  48.741  10.982  0.00  0.00    -0.060 A 
ATOM     47  C16 RVI d   1      67.372  47.545   9.675  0.00  0.00    -0.061 A 
ATOM     48  C7  RVI d   1      69.876  49.848  11.138  0.00  0.00    -0.025 A 
ATOM     49  H   RVI d   1      69.024  47.954  11.736  0.00  0.00     0.086 H 
ATOM     50  C8  RVI d   1      69.867  50.864  10.179  0.00  0.00    -0.070 A 
ATOM     51  H   RVI d   1      70.512  51.734  10.304  0.00  0.00     0.084 H 
ATOM     52  H   RVI d   1      67.356  46.742  10.412  0.00  0.00     0.085 H 
ATOM     53  H   RVI d   1      69.037  51.565   8.319  0.00  0.00     0.087 H 
BRANCH  41  54
ATOM     54  N18 RVI d   1      65.852  48.527   6.529  0.00  0.00    -0.384 N 
ATOM     55  H   RVI d   1      65.907  49.303   5.870  0.00  0.00     0.157 HD
ATOM     56  H   RVI d   1      65.221  47.747   6.347  0.00  0.00     0.157 HD
ENDBRANCH  41  54
BRANCH  48  57
ATOM     57  C4  RVI d   1      70.703  49.963  12.258  0.00  0.00    -0.020 A 
ATOM     58  C5  RVI d   1      71.821  49.133  12.458  0.00  0.00    -0.051 A 
ATOM     59  C6  RVI d   1      72.605  49.296  13.600  0.00  0.00    -0.076 A 
ATOM     60  C1  RVI d   1      72.285  50.279  14.535  0.00  0.00    -0.082 A 
ATOM     61  H   RVI d   1      73.470  48.653  13.762  0.00  0.00     0.084 H 
ATOM     62  C2  RVI d   1      71.179  51.100  14.340  0.00  0.00    -0.082 A 
ATOM     63  H   RVI d   1      72.904  50.405  15.423  0.00  0.00     0.083 H 
ATOM     64  C3  RVI d   1      70.392  50.944  13.204  0.00  0.00    -0.072 A 
ATOM     65  H   RVI d   1      70.930  51.864  15.076  0.00  0.00     0.083 H 
ATOM     66  H   RVI d   1      69.528  51.590  13.050  0.00  0.00     0.084 H 
BRANCH  58  67
ATOM     67  C17 RVI d   1      72.223  48.035  11.456  0.00  0.00    -0.050 C 
ATOM     68  H   RVI d   1      71.407  47.319  11.357  0.00  0.00     0.033 H 
ATOM     69  H   RVI d   1      72.430  48.488  10.486  0.00  0.00     0.033 H 
ATOM     70  H   RVI d   1      73.115  47.523  11.818  0.00  0.00     0.033 H 
ENDBRANCH  58  67
ENDBRANCH  48  57
ENDBRANCH  37  40
ENDBRANCH   1  37
TORSDOF 11
