REMARK  9 active torsions:
REMARK  status: ('A' for Active; 'I' for Inactive)
REMARK    1  A    between atoms: C6_7  and  N6_8 
REMARK    2  A    between atoms: C1'_16  and  N9_11 
REMARK    3  A    between atoms: CB_13  and  CA_12 
REMARK    4  A    between atoms: CG_15  and  CB_13 
REMARK    5  A    between atoms: SD_14  and  CG_15 
REMARK    6  A    between atoms: C5'_23  and  SD_14 
REMARK    7  A    between atoms: C2'_17  and  O2'_18 
REMARK    8  A    between atoms: C3'_19  and  O3'_20 
REMARK    9  A    between atoms: C4'_21  and  C5'_23 
ROOT
ATOM      1  C1' DSH d   1       3.074  66.336   7.005  0.00  0.00     0.139 C 
ATOM      2  C2' DSH d   1       4.329  65.681   6.457  0.00  0.00     0.105 C 
ATOM      3  C3' DSH d   1       3.964  64.210   6.446  0.00  0.00     0.090 C 
ATOM      4  C4' DSH d   1       2.998  64.048   7.601  0.00  0.00     0.076 C 
ATOM      5  O4' DSH d   1       2.543  65.372   7.927  0.00  0.00    -0.355 OA
ATOM      6  H   DSH d   1       2.377  66.591   6.207  0.00  0.00     0.122 H 
ATOM      7  H   DSH d   1       5.223  65.895   7.043  0.00  0.00     0.093 H 
ATOM      8  H   DSH d   1       4.843  63.569   6.509  0.00  0.00     0.091 H 
ATOM      9  H   DSH d   1       2.174  63.391   7.322  0.00  0.00     0.088 H 
ENDROOT
BRANCH   1  10
ATOM     10  N9  DSH d   1       3.361  67.628   7.695  0.00  0.00    -0.294 N 
ATOM     11  C4  DSH d   1       2.611  68.732   7.631  0.00  0.00     0.167 A 
ATOM     12  N3  DSH d   1       1.470  69.036   6.973  0.00  0.00    -0.222 NA
ATOM     13  C5  DSH d   1       3.210  69.698   8.427  0.00  0.00     0.149 A 
ATOM     14  C2  DSH d   1       0.926  70.258   7.090  0.00  0.00     0.091 A 
ATOM     15  N1  DSH d   1       1.496  71.208   7.846  0.00  0.00    -0.222 NA
ATOM     16  H   DSH d   1       0.001  70.483   6.559  0.00  0.00     0.146 H 
ATOM     17  C6  DSH d   1       2.635  70.955   8.526  0.00  0.00     0.155 A 
ATOM     18  N7  DSH d   1       4.312  69.141   8.963  0.00  0.00    -0.236 NA
ATOM     19  C8  DSH d   1       4.392  67.873   8.510  0.00  0.00     0.071 A 
ATOM     20  H   DSH d   1       5.175  67.160   8.768  0.00  0.00     0.144 H 
BRANCH  17  21
ATOM     21  N6  DSH d   1       3.202  71.916   9.296  0.00  0.00    -0.382 N 
ATOM     22  H   DSH d   1       4.061  71.717   9.810  0.00  0.00     0.157 HD
ATOM     23  H   DSH d   1       2.770  72.838   9.361  0.00  0.00     0.157 HD
ENDBRANCH  17  21
ENDBRANCH   1  10
BRANCH   2  24
ATOM     24  O2' DSH d   1       4.613  66.153   5.140  0.00  0.00    -0.388 OA
ATOM     25  H   DSH d   1       3.876  65.945   4.561  0.00  0.00     0.210 HD
ENDBRANCH   2  24
BRANCH   3  26
ATOM     26  O3' DSH d   1       3.232  63.923   5.253  0.00  0.00    -0.390 OA
ATOM     27  H   DSH d   1       2.434  64.456   5.233  0.00  0.00     0.210 HD
ENDBRANCH   3  26
BRANCH   4  28
ATOM     28  C5' DSH d   1       3.667  63.404   8.810  0.00  0.00     0.003 C 
ATOM     29  H   DSH d   1       4.678  63.802   8.890  0.00  0.00     0.052 H 
ATOM     30  H   DSH d   1       3.066  63.629   9.691  0.00  0.00     0.052 H 
BRANCH  28  31
ATOM     31  SD  DSH d   1       3.778  61.646   8.653  0.00  0.00    -0.166 SA
BRANCH  31  32
ATOM     32  CG  DSH d   1       2.225  61.143   9.315  0.00  0.00    -0.019 C 
ATOM     33  H   DSH d   1       1.853  61.905  10.000  0.00  0.00     0.049 H 
ATOM     34  H   DSH d   1       1.506  61.012   8.507  0.00  0.00     0.049 H 
BRANCH  32  35
ATOM     35  CB  DSH d   1       2.406  59.839  10.053  0.00  0.00    -0.027 C 
ATOM     36  H   DSH d   1       3.424  59.534   9.810  0.00  0.00     0.042 H 
ATOM     37  H   DSH d   1       2.125  60.073  11.080  0.00  0.00     0.042 H 
BRANCH  35  38
ATOM     38  CA  DSH d   1       1.666  58.776   9.747  0.00  0.00    -0.026 C 
ATOM     39  N   DSH d   1       0.743  58.834   8.788  0.00  0.00    -0.316 NA
ATOM     40  H   DSH d   1       0.595  59.703   8.275  0.00  0.00     0.185 HD
ATOM     41  H   DSH d   1       1.817  57.843  10.290  0.00  0.00     0.106 H 
ENDBRANCH  35  38
ENDBRANCH  32  35
ENDBRANCH  31  32
ENDBRANCH  28  31
ENDBRANCH   4  28
TORSDOF 9
