REMARK WARNING: 32 MAX_TORS EXCEEDED!!!
REMARK  40 active torsions:
REMARK  status: ('A' for Active; 'I' for Inactive)
REMARK    1  A    between atoms: N_1  and  CA_2 
REMARK    2  A    between atoms: CA_2  and  C_3 
REMARK    3  A    between atoms: CA_2  and  CB_5 
REMARK       I    between atoms: C_3  and  N_9 
REMARK    4  A    between atoms: CB_5  and  CG1_6 
REMARK    5  A    between atoms: CB_5  and  CG2_7 
REMARK    6  A    between atoms: CG1_6  and  CD1_8 
REMARK    7  A    between atoms: N_9  and  CA_10 
REMARK    8  A    between atoms: CA_10  and  C_11 
REMARK    9  A    between atoms: CA_10  and  CB_13 
REMARK       I    between atoms: C_11  and  N_20 
REMARK   10  A    between atoms: CB_13  and  CG_14 
REMARK   11  A    between atoms: CG_14  and  CD_15 
REMARK   12  A    between atoms: CD_15  and  NE_16 
REMARK       I    between atoms: NE_16  and  CZ_17 
REMARK       I    between atoms: CZ_17  and  NH1_18 
REMARK   13  A    between atoms: N_20  and  CA_21 
REMARK   14  A    between atoms: CA_21  and  C_22 
REMARK   15  A    between atoms: CA_21  and  CB_24 
REMARK       I    between atoms: C_22  and  N_32 
REMARK   16  A    between atoms: CB_24  and  CG_25 
REMARK   17  A    between atoms: CZ_30  and  OH_31 
REMARK   18  A    between atoms: CA_33  and  C_34 
REMARK       I    between atoms: C_34  and  N_39 
REMARK   19  A    between atoms: N_39  and  CA_40 
REMARK   20  A    between atoms: CA_40  and  C_41 
REMARK   21  A    between atoms: CA_40  and  CB_43 
REMARK       I    between atoms: C_41  and  N_48 
REMARK   22  A    between atoms: CB_43  and  CG_44 
REMARK   23  A    between atoms: CG_44  and  CD_45 
REMARK   24  A    between atoms: CD_45  and  CE_46 
REMARK   25  A    between atoms: CE_46  and  NZ_47 
REMARK   26  A    between atoms: N_48  and  CA_49 
REMARK   27  A    between atoms: CA_49  and  C_50 
REMARK   28  A    between atoms: CA_49  and  CB_52 
REMARK       I    between atoms: C_50  and  N_55 
REMARK   29  A    between atoms: CB_52  and  OG1_53 
REMARK   30  A    between atoms: CB_52  and  CG2_54 
REMARK   31  A    between atoms: N_55  and  CA_56 
REMARK   32  A    between atoms: CA_56  and  C_57 
REMARK   33  A    between atoms: CA_56  and  CB_59 
REMARK       I    between atoms: C_57  and  N_66 
REMARK   34  A    between atoms: CB_59  and  CG_60 
REMARK   35  A    between atoms: N_66  and  CA_67 
REMARK   36  A    between atoms: CA_67  and  C_68 
REMARK       I    between atoms: C_68  and  N_70 
REMARK   37  A    between atoms: N_70  and  CA_71 
REMARK   38  A    between atoms: CA_71  and  C_72 
REMARK   39  A    between atoms: CA_71  and  CB_74 
REMARK   40  A    between atoms: CB_74  and  CG_75 
ROOT
ATOM      1  CA  LYS d   1       4.819  24.206  -0.728  0.00  0.00     0.089 C 
ATOM      2  H   LYS d   1       4.835  24.783   0.197  0.00  0.00     0.087 H 
ENDROOT
BRANCH   1   3
ATOM      3  N   LYS d   1       6.070  23.471  -0.828  0.00  0.00    -0.346 N 
ATOM      4  C   PRO d   1       6.702  23.022   0.251  0.00  0.00     0.241 C 
ATOM      5  O   PRO d   1       6.259  23.144   1.394  0.00  0.00    -0.271 OA
ATOM      6  H   LYS d   1       6.472  23.296  -1.749  0.00  0.00     0.163 HD
BRANCH   4   7
ATOM      7  CA  PRO d   1       8.048  22.348   0.024  0.00  0.00     0.091 C 
ATOM      8  N   PRO d   1       7.990  21.215  -0.907  0.00  0.00    -0.337 N 
ATOM      9  C   TYR d   1       7.169  20.161  -0.765  0.00  0.00     0.243 C 
ATOM     10  CD  PRO d   1       8.999  21.344  -1.971  0.00  0.00    -0.001 C 
ATOM     11  O   TYR d   1       6.311  20.097   0.114  0.00  0.00    -0.271 OA
ATOM     12  CG  PRO d   1       9.848  22.491  -1.509  0.00  0.00    -0.048 C 
ATOM     13  H   PRO d   1       8.554  21.521  -2.950  0.00  0.00     0.064 H 
ATOM     14  H   PRO d   1       9.574  20.429  -2.115  0.00  0.00     0.064 H 
ATOM     15  CB  PRO d   1       8.967  23.338  -0.696  0.00  0.00    -0.036 C 
ATOM     16  H   PRO d   1      10.706  22.143  -0.933  0.00  0.00     0.035 H 
ATOM     17  H   PRO d   1      10.261  23.044  -2.353  0.00  0.00     0.035 H 
ATOM     18  H   PRO d   1       9.527  23.960   0.002  0.00  0.00     0.036 H 
ATOM     19  H   PRO d   1       8.408  24.050  -1.303  0.00  0.00     0.036 H 
ATOM     20  H   PRO d   1       8.381  22.021   1.009  0.00  0.00     0.087 H 
BRANCH   9  21
ATOM     21  CA  TYR d   1       7.352  19.014  -1.749  0.00  0.00     0.093 C 
ATOM     22  H   TYR d   1       8.211  19.225  -2.386  0.00  0.00     0.088 H 
BRANCH  21  23
ATOM     23  N   TYR d   1       7.595  17.779  -1.015  0.00  0.00    -0.346 N 
ATOM     24  C   ARG d   1       8.792  17.479  -0.523  0.00  0.00     0.241 C 
ATOM     25  O   ARG d   1       9.791  18.170  -0.714  0.00  0.00    -0.271 OA
ATOM     26  H   TYR d   1       6.824  17.126  -0.875  0.00  0.00     0.163 HD
BRANCH  24  27
ATOM     27  CA  ARG d   1       8.871  16.204   0.304  0.00  0.00     0.089 C 
ATOM     28  H   ARG d   1       8.287  15.435  -0.202  0.00  0.00     0.087 H 
BRANCH  27  29
ATOM     29  N   ARG d   1      10.241  15.718   0.410  0.00  0.00    -0.346 N 
ATOM     30  C   ILE d   1      10.832  15.075  -0.590  0.00  0.00     0.249 C 
ATOM     31  O   ILE d   1      10.293  14.907  -1.685  0.00  0.00    -0.271 OA
ATOM     32  H   ARG d   1      10.759  15.876   1.274  0.00  0.00     0.163 HD
BRANCH  30  33
ATOM     33  CA  ILE d   1      12.235  14.539  -0.316  0.00  0.00     0.179 C 
ATOM     34  H   ILE d   1      12.367  14.403   0.757  0.00  0.00     0.099 H 
BRANCH  33  35
ATOM     35  N   ILE d   1      12.419  13.234  -0.940  0.00  0.00    -0.066 N 
ATOM     36  H   ILE d   1      11.711  12.588  -0.590  0.00  0.00     0.275 HD
ATOM     37  H   ILE d   1      12.327  13.326  -1.952  0.00  0.00     0.275 HD
ATOM     38  H   ILE d   1      13.348  12.878  -0.713  0.00  0.00     0.275 HD
ENDBRANCH  33  35
BRANCH  33  39
ATOM     39  CB  ILE d   1      13.283  15.560  -0.810  0.00  0.00    -0.022 C 
ATOM     40  H   ILE d   1      14.271  15.111  -0.707  0.00  0.00     0.043 H 
BRANCH  39  41
ATOM     41  CG1 ILE d   1      13.241  16.828   0.042  0.00  0.00    -0.063 C 
ATOM     42  H   ILE d   1      13.424  16.533   1.075  0.00  0.00     0.033 H 
ATOM     43  H   ILE d   1      12.268  17.294  -0.115  0.00  0.00     0.033 H 
BRANCH  41  44
ATOM     44  CD1 ILE d   1      14.293  17.843  -0.330  0.00  0.00    -0.076 C 
ATOM     45  H   ILE d   1      15.282  17.401  -0.207  0.00  0.00     0.027 H 
ATOM     46  H   ILE d   1      14.155  18.144  -1.368  0.00  0.00     0.027 H 
ATOM     47  H   ILE d   1      14.200  18.715   0.318  0.00  0.00     0.027 H 
ENDBRANCH  41  44
ENDBRANCH  39  41
BRANCH  39  48
ATOM     48  CG2 ILE d   1      13.067  15.890  -2.279  0.00  0.00    -0.070 C 
ATOM     49  H   ILE d   1      12.095  16.366  -2.404  0.00  0.00     0.028 H 
ATOM     50  H   ILE d   1      13.851  16.568  -2.617  0.00  0.00     0.028 H 
ATOM     51  H   ILE d   1      13.101  14.972  -2.865  0.00  0.00     0.028 H 
ENDBRANCH  39  48
ENDBRANCH  33  39
ENDBRANCH  30  33
ENDBRANCH  27  29
BRANCH  27  52
ATOM     52  CB  ARG d   1       8.287  16.453   1.696  0.00  0.00    -0.036 C 
ATOM     53  H   ARG d   1       7.258  16.785   1.558  0.00  0.00     0.036 H 
ATOM     54  H   ARG d   1       8.931  17.182   2.188  0.00  0.00     0.036 H 
BRANCH  52  55
ATOM     55  CG  ARG d   1       8.244  15.221   2.585  0.00  0.00    -0.048 C 
ATOM     56  H   ARG d   1       9.241  14.782   2.620  0.00  0.00     0.035 H 
ATOM     57  H   ARG d   1       7.519  14.520   2.173  0.00  0.00     0.035 H 
BRANCH  55  58
ATOM     58  CD  ARG d   1       7.822  15.579   4.001  0.00  0.00     0.009 C 
ATOM     59  H   ARG d   1       6.890  16.142   3.950  0.00  0.00     0.064 H 
ATOM     60  H   ARG d   1       8.620  16.163   4.460  0.00  0.00     0.064 H 
BRANCH  58  61
ATOM     61  NE  ARG d   1       7.597  14.388   4.813  0.00  0.00    -0.227 N 
ATOM     62  CZ  ARG d   1       6.435  13.748   4.890  0.00  0.00     0.665 C 
ATOM     63  NH1 ARG d   1       5.388  14.188   4.205  0.00  0.00    -0.235 N 
ATOM     64  NH2 ARG d   1       6.318  12.668   5.651  0.00  0.00    -0.235 N 
ATOM     65  H   ARG d   1       5.474  15.018   3.619  0.00  0.00     0.174 HD
ATOM     66  H   ARG d   1       4.496  13.696   4.265  0.00  0.00     0.174 HD
ATOM     67  H   ARG d   1       7.121  12.327   6.179  0.00  0.00     0.174 HD
ATOM     68  H   ARG d   1       5.425  12.179   5.708  0.00  0.00     0.174 HD
ATOM     69  H   ARG d   1       8.380  14.024   5.355  0.00  0.00     0.177 HD
ENDBRANCH  58  61
ENDBRANCH  55  58
ENDBRANCH  52  55
ENDBRANCH  27  52
ENDBRANCH  24  27
ENDBRANCH  21  23
BRANCH  21  70
ATOM     70  CB  TYR d   1       6.124  18.874  -2.652  0.00  0.00    -0.014 C 
ATOM     71  H   TYR d   1       5.267  18.694  -2.003  0.00  0.00     0.043 H 
ATOM     72  H   TYR d   1       6.331  18.066  -3.354  0.00  0.00     0.043 H 
BRANCH  70  73
ATOM     73  CG  TYR d   1       5.812  20.109  -3.472  0.00  0.00    -0.056 A 
ATOM     74  CD1 TYR d   1       6.730  20.612  -4.381  0.00  0.00    -0.074 A 
ATOM     75  CE1 TYR d   1       6.448  21.740  -5.133  0.00  0.00    -0.051 A 
ATOM     76  H   TYR d   1       7.690  20.111  -4.506  0.00  0.00     0.084 H 
ATOM     77  CZ  TYR d   1       5.230  22.372  -4.987  0.00  0.00     0.065 A 
ATOM     78  H   TYR d   1       7.185  22.127  -5.837  0.00  0.00     0.087 H 
ATOM     79  CE2 TYR d   1       4.300  21.887  -4.097  0.00  0.00    -0.051 A 
ATOM     80  CD2 TYR d   1       4.591  20.759  -3.350  0.00  0.00    -0.074 A 
ATOM     81  H   TYR d   1       3.339  22.388  -3.981  0.00  0.00     0.087 H 
ATOM     82  H   TYR d   1       3.848  20.373  -2.652  0.00  0.00     0.084 H 
BRANCH  77  83
ATOM     83  OH  TYR d   1       4.933  23.494  -5.729  0.00  0.00    -0.361 OA
ATOM     84  H   TYR d   1       5.676  23.706  -6.299  0.00  0.00     0.217 HD
ENDBRANCH  77  83
ENDBRANCH  70  73
ENDBRANCH  21  70
ENDBRANCH   9  21
ENDBRANCH   4   7
ENDBRANCH   1   3
BRANCH   1  85
ATOM     85  C   LYS d   1       3.628  23.261  -0.665  0.00  0.00     0.241 C 
ATOM     86  O   LYS d   1       3.650  22.184  -1.257  0.00  0.00    -0.271 OA
ATOM     87  N   THR d   1       2.601  23.663   0.079  0.00  0.00    -0.344 N 
ATOM     88  H   THR d   1       2.705  24.495   0.660  0.00  0.00     0.163 HD
BRANCH  87  89
ATOM     89  CA  THR d   1       1.331  22.946   0.087  0.00  0.00     0.113 C 
ATOM     90  H   THR d   1       1.446  22.107  -0.599  0.00  0.00     0.091 H 
BRANCH  89  91
ATOM     91  C   THR d   1       0.198  23.849  -0.395  0.00  0.00     0.243 C 
ATOM     92  O   THR d   1       0.026  24.975   0.079  0.00  0.00    -0.271 OA
ATOM     93  N   PHE d   1      -0.581  23.336  -1.337  0.00  0.00    -0.346 N 
ATOM     94  H   PHE d   1      -0.460  22.359  -1.604  0.00  0.00     0.163 HD
BRANCH  93  95
ATOM     95  CA  PHE d   1      -1.605  24.130  -2.000  0.00  0.00     0.093 C 
ATOM     96  H   PHE d   1      -1.232  25.147  -2.123  0.00  0.00     0.088 H 
BRANCH  95  97
ATOM     97  C   PHE d   1      -2.874  24.168  -1.161  0.00  0.00     0.241 C 
ATOM     98  O   PHE d   1      -3.360  23.130  -0.720  0.00  0.00    -0.271 OA
ATOM     99  N   GLY d   1      -3.410  25.364  -0.943  0.00  0.00    -0.351 N 
ATOM    100  H   GLY d   1      -2.924  26.196  -1.277  0.00  0.00     0.163 HD
BRANCH  99 101
ATOM    101  CA  GLY d   1      -4.671  25.515  -0.241  0.00  0.00     0.069 C 
ATOM    102  H   GLY d   1      -4.700  26.515   0.191  0.00  0.00     0.078 H 
ATOM    103  H   GLY d   1      -4.731  24.735   0.518  0.00  0.00     0.078 H 
BRANCH 101 104
ATOM    104  C   GLY d   1      -5.866  25.366  -1.166  0.00  0.00     0.236 C 
ATOM    105  O   GLY d   1      -5.875  25.903  -2.275  0.00  0.00    -0.272 OA
ATOM    106  N   TRP d   1      -6.880  24.633  -0.715  0.00  0.00    -0.345 N 
ATOM    107  H   TRP d   1      -6.822  24.214   0.213  0.00  0.00     0.163 HD
BRANCH 106 108
ATOM    108  CA  TRP d   1      -8.074  24.419  -1.527  0.00  0.00     0.100 C 
ATOM    109  H   TRP d   1      -7.735  24.109  -2.515  0.00  0.00     0.090 H 
BRANCH 108 110
ATOM    110  C   TRP d   1      -8.886  25.697  -1.669  0.00  0.00     0.197 C 
ATOM    111  O   TRP d   1      -9.792  25.765  -2.497  0.00  0.00    -0.646 OA
ATOM    112  OXT TRP d   1      -8.662  26.677  -0.959  0.00  0.00    -0.646 OA
ENDBRANCH 108 110
BRANCH 108 113
ATOM    113  CB  TRP d   1      -8.953  23.319  -0.935  0.00  0.00    -0.011 C 
ATOM    114  H   TRP d   1      -9.900  23.335  -1.474  0.00  0.00     0.044 H 
ATOM    115  H   TRP d   1      -9.049  23.520   0.132  0.00  0.00     0.044 H 
BRANCH 113 116
ATOM    116  CG  TRP d   1      -8.385  21.950  -1.079  0.00  0.00    -0.028 A 
ATOM    117  CD1 TRP d   1      -7.136  21.620  -1.518  0.00  0.00    -0.015 A 
ATOM    118  NE1 TRP d   1      -6.979  20.255  -1.514  0.00  0.00    -0.365 N 
ATOM    119  H   TRP d   1      -6.374  22.335  -1.827  0.00  0.00     0.112 H 
ATOM    120  CE2 TRP d   1      -8.140  19.677  -1.069  0.00  0.00     0.042 A 
ATOM    121  H   TRP d   1      -6.137  19.754  -1.796  0.00  0.00     0.165 HD
ATOM    122  CD2 TRP d   1      -9.048  20.716  -0.787  0.00  0.00    -0.002 A 
ATOM    123  CZ2 TRP d   1      -8.464  18.334  -0.893  0.00  0.00    -0.056 A 
ATOM    124  CE3 TRP d   1     -10.323  20.389  -0.312  0.00  0.00    -0.070 A 
ATOM    125  CZ3 TRP d   1     -10.643  19.056  -0.138  0.00  0.00    -0.082 A 
ATOM    126  H   TRP d   1     -11.049  21.170  -0.084  0.00  0.00     0.084 H 
ATOM    127  CH2 TRP d   1      -9.718  18.045  -0.428  0.00  0.00    -0.081 A 
ATOM    128  H   TRP d   1     -11.633  18.787   0.231  0.00  0.00     0.083 H 
ATOM    129  H   TRP d   1     -10.004  17.004  -0.280  0.00  0.00     0.083 H 
ATOM    130  H   TRP d   1      -7.747  17.544  -1.117  0.00  0.00     0.086 H 
ENDBRANCH 113 116
ENDBRANCH 108 113
ENDBRANCH 106 108
ENDBRANCH 101 104
ENDBRANCH  99 101
ENDBRANCH  95  97
BRANCH  95 131
ATOM    131  CB  PHE d   1      -1.917  23.531  -3.370  0.00  0.00    -0.014 C 
ATOM    132  H   PHE d   1      -2.532  24.253  -3.907  0.00  0.00     0.043 H 
ATOM    133  H   PHE d   1      -2.407  22.572  -3.200  0.00  0.00     0.043 H 
BRANCH 131 134
ATOM    134  CG  PHE d   1      -0.699  23.267  -4.213  0.00  0.00    -0.056 A 
ATOM    135  CD1 PHE d   1       0.466  23.996  -4.032  0.00  0.00    -0.077 A 
ATOM    136  CE1 PHE d   1       1.579  23.752  -4.813  0.00  0.00    -0.082 A 
ATOM    137  H   PHE d   1       0.504  24.770  -3.265  0.00  0.00     0.084 H 
ATOM    138  CZ  PHE d   1       1.538  22.775  -5.785  0.00  0.00    -0.083 A 
ATOM    139  H   PHE d   1       2.489  24.332  -4.661  0.00  0.00     0.083 H 
ATOM    140  CE2 PHE d   1       0.383  22.042  -5.974  0.00  0.00    -0.082 A 
ATOM    141  H   PHE d   1       2.415  22.582  -6.403  0.00  0.00     0.083 H 
ATOM    142  CD2 PHE d   1      -0.725  22.290  -5.192  0.00  0.00    -0.077 A 
ATOM    143  H   PHE d   1       0.347  21.268  -6.741  0.00  0.00     0.083 H 
ATOM    144  H   PHE d   1      -1.634  21.708  -5.347  0.00  0.00     0.084 H 
ENDBRANCH 131 134
ENDBRANCH  95 131
ENDBRANCH  93  95
ENDBRANCH  89  91
BRANCH  89 145
ATOM    145  CB  THR d   1       0.980  22.358   1.484  0.00  0.00     0.060 C 
ATOM    146  H   THR d   1       0.712  23.184   2.142  0.00  0.00     0.086 H 
BRANCH 145 147
ATOM    147  OG1 THR d   1       2.107  21.651   2.012  0.00  0.00    -0.393 OA
ATOM    148  H   THR d   1       2.849  22.253   2.099  0.00  0.00     0.210 HD
ENDBRANCH 145 147
BRANCH 145 149
ATOM    149  CG2 THR d   1      -0.192  21.390   1.378  0.00  0.00    -0.050 C 
ATOM    150  H   THR d   1      -1.062  21.917   0.987  0.00  0.00     0.031 H 
ATOM    151  H   THR d   1       0.072  20.573   0.706  0.00  0.00     0.031 H 
ATOM    152  H   THR d   1      -0.422  20.990   2.366  0.00  0.00     0.031 H 
ENDBRANCH 145 149
ENDBRANCH  89 145
ENDBRANCH  87  89
ENDBRANCH   1  85
BRANCH   1 153
ATOM    153  CB  LYS d   1       4.680  25.161  -1.911  0.00  0.00    -0.038 C 
ATOM    154  H   LYS d   1       4.723  24.559  -2.819  0.00  0.00     0.036 H 
ATOM    155  H   LYS d   1       5.480  25.897  -1.828  0.00  0.00     0.036 H 
BRANCH 153 156
ATOM    156  CG  LYS d   1       3.366  25.925  -1.938  0.00  0.00    -0.061 C 
ATOM    157  H   LYS d   1       2.551  25.204  -1.867  0.00  0.00     0.033 H 
ATOM    158  H   LYS d   1       3.324  26.498  -2.864  0.00  0.00     0.033 H 
BRANCH 156 159
ATOM    159  CD  LYS d   1       3.246  26.899  -0.767  0.00  0.00    -0.043 C 
ATOM    160  H   LYS d   1       4.093  27.585  -0.790  0.00  0.00     0.035 H 
ATOM    161  H   LYS d   1       3.236  26.332   0.164  0.00  0.00     0.035 H 
BRANCH 159 162
ATOM    162  CE  LYS d   1       1.954  27.705  -0.869  0.00  0.00     0.080 C 
ATOM    163  H   LYS d   1       1.126  27.004  -0.768  0.00  0.00     0.075 H 
ATOM    164  H   LYS d   1       1.974  28.231  -1.824  0.00  0.00     0.075 H 
BRANCH 162 165
ATOM    165  NZ  LYS d   1       1.797  28.732   0.199  0.00  0.00    -0.079 N 
ATOM    166  H   LYS d   1       0.915  29.227   0.066  0.00  0.00     0.274 HD
ATOM    167  H   LYS d   1       1.797  28.275   1.111  0.00  0.00     0.274 HD
ATOM    168  H   LYS d   1       2.571  29.394   0.149  0.00  0.00     0.274 HD
ENDBRANCH 162 165
ENDBRANCH 159 162
ENDBRANCH 156 159
ENDBRANCH 153 156
ENDBRANCH   1 153
TORSDOF 40
