REMARK WARNING: 32 MAX_TORS EXCEEDED!!!
REMARK  50 active torsions:
REMARK  status: ('A' for Active; 'I' for Inactive)
REMARK    1  A    between atoms: N_1  and  CA_2 
REMARK    2  A    between atoms: CA_2  and  C_3 
REMARK    3  A    between atoms: CA_2  and  CB_5 
REMARK       I    between atoms: C_3  and  N_9 
REMARK    4  A    between atoms: CB_5  and  CG1_6 
REMARK    5  A    between atoms: CB_5  and  CG2_7 
REMARK    6  A    between atoms: CG1_6  and  CD1_8 
REMARK    7  A    between atoms: N_9  and  CA_10 
REMARK    8  A    between atoms: CA_10  and  C_11 
REMARK    9  A    between atoms: CA_10  and  CB_13 
REMARK       I    between atoms: C_11  and  N_20 
REMARK   10  A    between atoms: CB_13  and  CG_14 
REMARK   11  A    between atoms: CG_14  and  CD_15 
REMARK   12  A    between atoms: CD_15  and  NE_16 
REMARK       I    between atoms: NE_16  and  CZ_17 
REMARK       I    between atoms: CZ_17  and  NH1_18 
REMARK       I    between atoms: CZ_17  and  NH2_19 
REMARK   13  A    between atoms: N_20  and  CA_21 
REMARK   14  A    between atoms: CA_21  and  C_22 
REMARK   15  A    between atoms: CA_21  and  CB_24 
REMARK       I    between atoms: C_22  and  N_32 
REMARK   16  A    between atoms: CB_24  and  CG_25 
REMARK   17  A    between atoms: CZ_30  and  OH_31 
REMARK   18  A    between atoms: CA_33  and  C_34 
REMARK       I    between atoms: C_34  and  N_39 
REMARK   19  A    between atoms: N_39  and  CA_40 
REMARK   20  A    between atoms: CA_40  and  C_41 
REMARK   21  A    between atoms: CA_40  and  CB_43 
REMARK       I    between atoms: C_41  and  N_48 
REMARK   22  A    between atoms: CB_43  and  CG_44 
REMARK   23  A    between atoms: CG_44  and  CD_45 
REMARK   24  A    between atoms: CD_45  and  CE_46 
REMARK   25  A    between atoms: CE_46  and  NZ_47 
REMARK   26  A    between atoms: N_48  and  CA_49 
REMARK   27  A    between atoms: CA_49  and  C_50 
REMARK   28  A    between atoms: CA_49  and  CB_52 
REMARK       I    between atoms: C_50  and  N_55 
REMARK   29  A    between atoms: CB_52  and  OG1_53 
REMARK   30  A    between atoms: CB_52  and  CG2_54 
REMARK   31  A    between atoms: N_55  and  CA_56 
REMARK   32  A    between atoms: CA_56  and  C_57 
REMARK   33  A    between atoms: CA_56  and  CB_59 
REMARK       I    between atoms: C_57  and  N_66 
REMARK   34  A    between atoms: CB_59  and  CG_60 
REMARK   35  A    between atoms: N_66  and  CA_67 
REMARK   36  A    between atoms: CA_67  and  C_68 
REMARK       I    between atoms: C_68  and  N_70 
REMARK   37  A    between atoms: N_70  and  CA_71 
REMARK   38  A    between atoms: CA_71  and  C_72 
REMARK   39  A    between atoms: CA_71  and  CB_74 
REMARK       I    between atoms: C_72  and  N_84 
REMARK   40  A    between atoms: CB_74  and  CG_75 
REMARK   41  A    between atoms: N_84  and  CA_85 
REMARK   42  A    between atoms: CA_85  and  C_86 
REMARK   43  A    between atoms: CA_85  and  CB_88 
REMARK       I    between atoms: C_86  and  N_92 
REMARK   44  A    between atoms: CB_88  and  CG_89 
REMARK   45  A    between atoms: CG_89  and  CD1_90 
REMARK   46  A    between atoms: CG_89  and  CD2_91 
REMARK   47  A    between atoms: N_92  and  CA_93 
REMARK   48  A    between atoms: CA_93  and  C_94 
REMARK   49  A    between atoms: CA_93  and  CB_96 
REMARK   50  A    between atoms: CB_96  and  CG_97 
ROOT
ATOM      1  CA  THR d   1      -6.416  28.288   0.780  0.00  0.00     0.113 C 
ATOM      2  H   THR d   1      -7.098  28.436  -0.057  0.00  0.00     0.091 H 
ENDROOT
BRANCH   1   3
ATOM      3  N   THR d   1      -5.962  26.903   0.707  0.00  0.00    -0.344 N 
ATOM      4  C   LYS d   1      -6.135  26.171  -0.389  0.00  0.00     0.241 C 
ATOM      5  O   LYS d   1      -6.720  26.590  -1.388  0.00  0.00    -0.271 OA
ATOM      6  H   THR d   1      -5.501  26.487   1.516  0.00  0.00     0.163 HD
BRANCH   4   7
ATOM      7  CA  LYS d   1      -5.566  24.758  -0.356  0.00  0.00     0.089 C 
ATOM      8  H   LYS d   1      -5.102  24.585   0.615  0.00  0.00     0.087 H 
BRANCH   7   9
ATOM      9  N   LYS d   1      -6.625  23.769  -0.520  0.00  0.00    -0.346 N 
ATOM     10  C   PRO d   1      -7.426  23.446   0.490  0.00  0.00     0.241 C 
ATOM     11  O   PRO d   1      -7.324  23.938   1.613  0.00  0.00    -0.271 OA
ATOM     12  H   LYS d   1      -6.753  23.317  -1.425  0.00  0.00     0.163 HD
BRANCH  10  13
ATOM     13  CA  PRO d   1      -8.509  22.409   0.212  0.00  0.00     0.091 C 
ATOM     14  N   PRO d   1      -8.307  21.195   1.008  0.00  0.00    -0.337 N 
ATOM     15  C   TYR d   1      -7.373  20.283   0.710  0.00  0.00     0.243 C 
ATOM     16  CD  PRO d   1      -9.253  21.104   2.135  0.00  0.00    -0.001 C 
ATOM     17  O   TYR d   1      -6.623  20.388  -0.260  0.00  0.00    -0.271 OA
ATOM     18  CG  PRO d   1      -9.954  22.435   2.108  0.00  0.00    -0.048 C 
ATOM     19  H   PRO d   1      -8.755  20.911   3.086  0.00  0.00     0.064 H 
ATOM     20  H   PRO d   1      -9.942  20.265   2.037  0.00  0.00     0.064 H 
ATOM     21  CB  PRO d   1      -9.866  22.917   0.701  0.00  0.00    -0.036 C 
ATOM     22  H   PRO d   1     -10.991  22.341   2.429  0.00  0.00     0.035 H 
ATOM     23  H   PRO d   1      -9.489  23.140   2.797  0.00  0.00     0.035 H 
ATOM     24  H   PRO d   1     -10.688  22.547   0.088  0.00  0.00     0.036 H 
ATOM     25  H   PRO d   1      -9.947  24.002   0.633  0.00  0.00     0.036 H 
ATOM     26  H   PRO d   1      -8.469  22.220  -0.861  0.00  0.00     0.087 H 
BRANCH  15  27
ATOM     27  CA  TYR d   1      -7.273  19.080   1.639  0.00  0.00     0.093 C 
ATOM     28  H   TYR d   1      -8.050  19.162   2.398  0.00  0.00     0.088 H 
BRANCH  27  29
ATOM     29  N   TYR d   1      -7.497  17.839   0.909  0.00  0.00    -0.346 N 
ATOM     30  C   ARG d   1      -8.723  17.411   0.631  0.00  0.00     0.241 C 
ATOM     31  O   ARG d   1      -9.738  18.005   0.995  0.00  0.00    -0.271 OA
ATOM     32  H   TYR d   1      -6.695  17.287   0.605  0.00  0.00     0.163 HD
BRANCH  30  33
ATOM     33  CA  ARG d   1      -8.820  16.120  -0.175  0.00  0.00     0.089 C 
ATOM     34  H   ARG d   1      -8.128  15.394   0.252  0.00  0.00     0.087 H 
BRANCH  33  35
ATOM     35  N   ARG d   1     -10.158  15.544  -0.097  0.00  0.00    -0.346 N 
ATOM     36  C   ILE d   1     -10.659  15.274   1.074  0.00  0.00     0.249 C 
ATOM     37  O   ILE d   1     -10.005  15.378   2.047  0.00  0.00    -0.271 OA
ATOM     38  H   ARG d   1     -10.692  15.356  -0.946  0.00  0.00     0.163 HD
BRANCH  36  39
ATOM     39  CA  ILE d   1     -12.083  14.772   1.172  0.00  0.00     0.179 C 
ATOM     40  H   ILE d   1     -12.097  13.705   0.950  0.00  0.00     0.099 H 
BRANCH  39  41
ATOM     41  N   ILE d   1     -12.561  15.063   2.508  0.00  0.00    -0.066 N 
ATOM     42  H   ILE d   1     -11.966  14.594   3.191  0.00  0.00     0.275 HD
ATOM     43  H   ILE d   1     -12.533  16.070   2.666  0.00  0.00     0.275 HD
ATOM     44  H   ILE d   1     -13.520  14.729   2.605  0.00  0.00     0.275 HD
ENDBRANCH  39  41
BRANCH  39  45
ATOM     45  CB  ILE d   1     -12.965  15.465   0.215  0.00  0.00    -0.022 C 
ATOM     46  H   ILE d   1     -12.376  15.734  -0.662  0.00  0.00     0.043 H 
BRANCH  45  47
ATOM     47  CG1 ILE d   1     -13.602  16.639   0.894  0.00  0.00    -0.063 C 
ATOM     48  H   ILE d   1     -12.826  17.206   1.408  0.00  0.00     0.033 H 
ATOM     49  H   ILE d   1     -14.352  16.271   1.594  0.00  0.00     0.033 H 
BRANCH  47  50
ATOM     50  CD1 ILE d   1     -14.225  17.473  -0.023  0.00  0.00    -0.076 C 
ATOM     51  H   ILE d   1     -13.488  17.841  -0.736  0.00  0.00     0.027 H 
ATOM     52  H   ILE d   1     -14.998  16.916  -0.552  0.00  0.00     0.027 H 
ATOM     53  H   ILE d   1     -14.677  18.315   0.502  0.00  0.00     0.027 H 
ENDBRANCH  47  50
ENDBRANCH  45  47
BRANCH  45  54
ATOM     54  CG2 ILE d   1     -14.081  14.620  -0.064  0.00  0.00    -0.070 C 
ATOM     55  H   ILE d   1     -14.574  14.351   0.870  0.00  0.00     0.028 H 
ATOM     56  H   ILE d   1     -14.784  15.149  -0.708  0.00  0.00     0.028 H 
ATOM     57  H   ILE d   1     -13.735  13.717  -0.567  0.00  0.00     0.028 H 
ENDBRANCH  45  54
ENDBRANCH  39  45
ENDBRANCH  36  39
ENDBRANCH  33  35
BRANCH  33  58
ATOM     58  CB  ARG d   1      -8.428  16.387  -1.629  0.00  0.00    -0.036 C 
ATOM     59  H   ARG d   1      -7.462  16.891  -1.611  0.00  0.00     0.036 H 
ATOM     60  H   ARG d   1      -9.235  16.969  -2.075  0.00  0.00     0.036 H 
BRANCH  58  61
ATOM     61  CG  ARG d   1      -8.261  15.139  -2.477  0.00  0.00    -0.048 C 
ATOM     62  H   ARG d   1      -9.232  14.658  -2.592  0.00  0.00     0.035 H 
ATOM     63  H   ARG d   1      -7.556  14.469  -1.984  0.00  0.00     0.035 H 
BRANCH  61  64
ATOM     64  CD  ARG d   1      -7.722  15.494  -3.853  0.00  0.00     0.009 C 
ATOM     65  H   ARG d   1      -6.762  15.993  -3.723  0.00  0.00     0.064 H 
ATOM     66  H   ARG d   1      -8.453  16.132  -4.349  0.00  0.00     0.064 H 
BRANCH  64  67
ATOM     67  NE  ARG d   1      -7.511  14.313  -4.684  0.00  0.00    -0.227 N 
ATOM     68  CZ  ARG d   1      -6.402  13.582  -4.673  0.00  0.00     0.665 C 
ATOM     69  NH1 ARG d   1      -5.401  13.908  -3.868  0.00  0.00    -0.235 N 
ATOM     70  NH2 ARG d   1      -6.293  12.524  -5.465  0.00  0.00    -0.235 N 
ATOM     71  H   ARG d   1      -5.482  14.720  -3.257  0.00  0.00     0.174 HD
ATOM     72  H   ARG d   1      -4.550  13.347  -3.860  0.00  0.00     0.174 HD
ATOM     73  H   ARG d   1      -7.062  12.270  -6.085  0.00  0.00     0.174 HD
ATOM     74  H   ARG d   1      -5.440  11.965  -5.454  0.00  0.00     0.174 HD
ATOM     75  H   ARG d   1      -8.263  14.031  -5.313  0.00  0.00     0.177 HD
ENDBRANCH  64  67
ENDBRANCH  61  64
ENDBRANCH  58  61
ENDBRANCH  33  58
ENDBRANCH  30  33
ENDBRANCH  27  29
BRANCH  27  76
ATOM     76  CB  TYR d   1      -5.911  19.066   2.336  0.00  0.00    -0.014 C 
ATOM     77  H   TYR d   1      -5.153  18.898   1.571  0.00  0.00     0.043 H 
ATOM     78  H   TYR d   1      -5.940  18.286   3.097  0.00  0.00     0.043 H 
BRANCH  76  79
ATOM     79  CG  TYR d   1      -5.577  20.368   3.031  0.00  0.00    -0.056 A 
ATOM     80  CD1 TYR d   1      -6.090  20.657   4.288  0.00  0.00    -0.074 A 
ATOM     81  CE1 TYR d   1      -5.790  21.846   4.926  0.00  0.00    -0.051 A 
ATOM     82  H   TYR d   1      -6.740  19.934   4.780  0.00  0.00     0.084 H 
ATOM     83  CZ  TYR d   1      -4.966  22.762   4.307  0.00  0.00     0.065 A 
ATOM     84  H   TYR d   1      -6.202  22.058   5.912  0.00  0.00     0.087 H 
ATOM     85  CE2 TYR d   1      -4.444  22.498   3.059  0.00  0.00    -0.051 A 
ATOM     86  CD2 TYR d   1      -4.751  21.307   2.428  0.00  0.00    -0.074 A 
ATOM     87  H   TYR d   1      -3.793  23.224   2.572  0.00  0.00     0.087 H 
ATOM     88  H   TYR d   1      -4.338  21.102   1.440  0.00  0.00     0.084 H 
BRANCH  83  89
ATOM     89  OH  TYR d   1      -4.664  23.947   4.939  0.00  0.00    -0.361 OA
ATOM     90  H   TYR d   1      -4.965  24.682   4.399  0.00  0.00     0.217 HD
ENDBRANCH  83  89
ENDBRANCH  76  79
ENDBRANCH  27  76
ENDBRANCH  15  27
ENDBRANCH  10  13
ENDBRANCH   7   9
BRANCH   7  91
ATOM     91  CB  LYS d   1      -4.503  24.607  -1.446  0.00  0.00    -0.038 C 
ATOM     92  H   LYS d   1      -4.904  25.049  -2.358  0.00  0.00     0.036 H 
ATOM     93  H   LYS d   1      -4.279  23.544  -1.540  0.00  0.00     0.036 H 
BRANCH  91  94
ATOM     94  CG  LYS d   1      -3.199  25.323  -1.125  0.00  0.00    -0.061 C 
ATOM     95  H   LYS d   1      -2.571  24.643  -0.549  0.00  0.00     0.033 H 
ATOM     96  H   LYS d   1      -3.437  26.230  -0.570  0.00  0.00     0.033 H 
BRANCH  94  97
ATOM     97  CD  LYS d   1      -2.440  25.721  -2.381  0.00  0.00    -0.043 C 
ATOM     98  H   LYS d   1      -2.404  24.864  -3.053  0.00  0.00     0.035 H 
ATOM     99  H   LYS d   1      -1.437  26.039  -2.096  0.00  0.00     0.035 H 
BRANCH  97 100
ATOM    100  CE  LYS d   1      -3.130  26.871  -3.096  0.00  0.00     0.080 C 
ATOM    101  H   LYS d   1      -3.255  27.688  -2.386  0.00  0.00     0.075 H 
ATOM    102  H   LYS d   1      -4.086  26.511  -3.477  0.00  0.00     0.075 H 
BRANCH 100 103
ATOM    103  NZ  LYS d   1      -2.329  27.373  -4.247  0.00  0.00    -0.079 N 
ATOM    104  H   LYS d   1      -2.827  28.141  -4.697  0.00  0.00     0.274 HD
ATOM    105  H   LYS d   1      -1.424  27.703  -3.912  0.00  0.00     0.274 HD
ATOM    106  H   LYS d   1      -2.190  26.617  -4.918  0.00  0.00     0.274 HD
ENDBRANCH 100 103
ENDBRANCH  97 100
ENDBRANCH  94  97
ENDBRANCH  91  94
ENDBRANCH   7  91
ENDBRANCH   4   7
ENDBRANCH   1   3
BRANCH   1 107
ATOM    107  C   THR d   1      -5.252  29.264   0.644  0.00  0.00     0.243 C 
ATOM    108  O   THR d   1      -5.319  30.217  -0.130  0.00  0.00    -0.271 OA
ATOM    109  N   PHE d   1      -4.187  29.023   1.401  0.00  0.00    -0.346 N 
ATOM    110  H   PHE d   1      -4.203  28.235   2.048  0.00  0.00     0.163 HD
BRANCH 109 111
ATOM    111  CA  PHE d   1      -2.997  29.861   1.326  0.00  0.00     0.093 C 
ATOM    112  H   PHE d   1      -3.224  30.705   0.674  0.00  0.00     0.088 H 
BRANCH 111 113
ATOM    113  C   PHE d   1      -1.828  29.086   0.736  0.00  0.00     0.241 C 
ATOM    114  O   PHE d   1      -0.999  29.644   0.020  0.00  0.00    -0.271 OA
ATOM    115  N   GLY d   1      -1.763  27.796   1.047  0.00  0.00    -0.351 N 
ATOM    116  H   GLY d   1      -2.474  27.395   1.658  0.00  0.00     0.163 HD
BRANCH 115 117
ATOM    117  CA  GLY d   1      -0.704  26.945   0.537  0.00  0.00     0.069 C 
ATOM    118  H   GLY d   1      -0.129  27.529  -0.182  0.00  0.00     0.078 H 
ATOM    119  H   GLY d   1      -1.172  26.063   0.100  0.00  0.00     0.078 H 
BRANCH 117 120
ATOM    120  C   GLY d   1       0.255  26.470   1.613  0.00  0.00     0.236 C 
ATOM    121  O   GLY d   1       0.262  26.990   2.728  0.00  0.00    -0.272 OA
ATOM    122  N   TRP d   1       1.069  25.475   1.277  0.00  0.00    -0.346 N 
ATOM    123  H   TRP d   1       1.006  25.076   0.340  0.00  0.00     0.163 HD
BRANCH 122 124
ATOM    124  CA  TRP d   1       2.050  24.939   2.214  0.00  0.00     0.093 C 
ATOM    125  H   TRP d   1       2.094  25.602   3.078  0.00  0.00     0.088 H 
BRANCH 124 126
ATOM    126  C   TRP d   1       3.437  24.895   1.577  0.00  0.00     0.241 C 
ATOM    127  O   TRP d   1       4.130  23.879   1.632  0.00  0.00    -0.271 OA
ATOM    128  N   LEU d   1       3.834  26.009   0.970  0.00  0.00    -0.346 N 
ATOM    129  H   LEU d   1       3.212  26.817   0.958  0.00  0.00     0.163 HD
BRANCH 128 130
ATOM    130  CA  LEU d   1       5.137  26.106   0.320  0.00  0.00     0.089 C 
ATOM    131  H   LEU d   1       5.166  25.348  -0.463  0.00  0.00     0.087 H 
BRANCH 130 132
ATOM    132  C   LEU d   1       6.278  25.825   1.294  0.00  0.00     0.241 C 
ATOM    133  O   LEU d   1       6.268  26.296   2.431  0.00  0.00    -0.271 OA
ATOM    134  N   TRP d   1       7.260  25.053   0.838  0.00  0.00    -0.344 N 
ATOM    135  H   TRP d   1       7.191  24.665  -0.103  0.00  0.00     0.163 HD
BRANCH 134 136
ATOM    136  CA  TRP d   1       8.432  24.748   1.649  0.00  0.00     0.100 C 
ATOM    137  H   TRP d   1       8.083  24.498   2.651  0.00  0.00     0.090 H 
BRANCH 136 138
ATOM    138  C   TRP d   1       9.360  25.953   1.746  0.00  0.00     0.197 C 
ATOM    139  O   TRP d   1      10.148  26.074   2.685  0.00  0.00    -0.646 OA
ATOM    140  OXT TRP d   1       9.345  26.833   0.887  0.00  0.00    -0.646 OA
ENDBRANCH 136 138
BRANCH 136 141
ATOM    141  CB  TRP d   1       9.192  23.549   1.078  0.00  0.00    -0.011 C 
ATOM    142  H   TRP d   1      10.141  23.484   1.610  0.00  0.00     0.044 H 
ATOM    143  H   TRP d   1       9.297  23.713   0.005  0.00  0.00     0.044 H 
BRANCH 141 144
ATOM    144  CG  TRP d   1       8.487  22.240   1.262  0.00  0.00    -0.028 A 
ATOM    145  CD1 TRP d   1       7.221  22.050   1.734  0.00  0.00    -0.015 A 
ATOM    146  NE1 TRP d   1       6.923  20.709   1.764  0.00  0.00    -0.365 N 
ATOM    147  H   TRP d   1       6.544  22.847   2.043  0.00  0.00     0.112 H 
ATOM    148  CE2 TRP d   1       8.007  20.004   1.309  0.00  0.00     0.042 A 
ATOM    149  H   TRP d   1       6.040  20.304   2.074  0.00  0.00     0.165 HD
ATOM    150  CD2 TRP d   1       9.012  20.936   0.984  0.00  0.00    -0.002 A 
ATOM    151  CZ2 TRP d   1       8.185  18.630   1.156  0.00  0.00    -0.056 A 
ATOM    152  CE3 TRP d   1      10.233  20.467   0.491  0.00  0.00    -0.070 A 
ATOM    153  CZ3 TRP d   1      10.408  19.103   0.340  0.00  0.00    -0.082 A 
ATOM    154  H   TRP d   1      11.031  21.162   0.231  0.00  0.00     0.084 H 
ATOM    155  CH2 TRP d   1       9.390  18.201   0.671  0.00  0.00    -0.081 A 
ATOM    156  H   TRP d   1      11.355  18.724  -0.043  0.00  0.00     0.083 H 
ATOM    157  H   TRP d   1       9.561  17.133   0.539  0.00  0.00     0.083 H 
ATOM    158  H   TRP d   1       7.395  17.925   1.413  0.00  0.00     0.086 H 
ENDBRANCH 141 144
ENDBRANCH 136 141
ENDBRANCH 134 136
ENDBRANCH 130 132
BRANCH 130 159
ATOM    159  CB  LEU d   1       5.321  27.492  -0.302  0.00  0.00    -0.035 C 
ATOM    160  H   LEU d   1       6.270  27.457  -0.838  0.00  0.00     0.037 H 
ATOM    161  H   LEU d   1       5.249  28.202   0.522  0.00  0.00     0.037 H 
BRANCH 159 162
ATOM    162  CG  LEU d   1       4.274  27.930  -1.328  0.00  0.00    -0.059 C 
ATOM    163  H   LEU d   1       3.291  27.870  -0.862  0.00  0.00     0.038 H 
BRANCH 162 164
ATOM    164  CD1 LEU d   1       4.512  29.372  -1.752  0.00  0.00    -0.073 C 
ATOM    165  H   LEU d   1       4.446  30.022  -0.879  0.00  0.00     0.028 H 
ATOM    166  H   LEU d   1       5.503  29.459  -2.198  0.00  0.00     0.028 H 
ATOM    167  H   LEU d   1       3.757  29.664  -2.482  0.00  0.00     0.028 H 
ENDBRANCH 162 164
BRANCH 162 168
ATOM    168  CD2 LEU d   1       4.279  27.002  -2.533  0.00  0.00    -0.073 C 
ATOM    169  H   LEU d   1       5.263  27.023  -3.002  0.00  0.00     0.028 H 
ATOM    170  H   LEU d   1       4.051  25.986  -2.209  0.00  0.00     0.028 H 
ATOM    171  H   LEU d   1       3.526  27.334  -3.248  0.00  0.00     0.028 H 
ENDBRANCH 162 168
ENDBRANCH 159 162
ENDBRANCH 130 159
ENDBRANCH 128 130
ENDBRANCH 124 126
BRANCH 124 172
ATOM    172  CB  TRP d   1       1.630  23.547   2.701  0.00  0.00    -0.012 C 
ATOM    173  H   TRP d   1       0.683  23.660   3.228  0.00  0.00     0.044 H 
ATOM    174  H   TRP d   1       2.438  23.164   3.324  0.00  0.00     0.044 H 
BRANCH 172 175
ATOM    175  CG  TRP d   1       1.410  22.556   1.594  0.00  0.00    -0.028 A 
ATOM    176  CD1 TRP d   1       2.336  21.716   1.043  0.00  0.00    -0.015 A 
ATOM    177  NE1 TRP d   1       1.761  20.960   0.051  0.00  0.00    -0.365 N 
ATOM    178  H   TRP d   1       3.381  21.655   1.347  0.00  0.00     0.112 H 
ATOM    179  CE2 TRP d   1       0.439  21.303  -0.055  0.00  0.00     0.042 A 
ATOM    180  H   TRP d   1       2.240  20.259  -0.514  0.00  0.00     0.165 HD
ATOM    181  CD2 TRP d   1       0.184  22.307   0.901  0.00  0.00    -0.002 A 
ATOM    182  CZ2 TRP d   1      -0.548  20.818  -0.908  0.00  0.00    -0.056 A 
ATOM    183  CE3 TRP d   1      -1.105  22.834   0.997  0.00  0.00    -0.070 A 
ATOM    184  CZ3 TRP d   1      -2.081  22.353   0.153  0.00  0.00    -0.082 A 
ATOM    185  H   TRP d   1      -1.335  23.611   1.726  0.00  0.00     0.084 H 
ATOM    186  CH2 TRP d   1      -1.800  21.356  -0.788  0.00  0.00    -0.081 A 
ATOM    187  H   TRP d   1      -3.091  22.756   0.219  0.00  0.00     0.083 H 
ATOM    188  H   TRP d   1      -2.597  21.000  -1.440  0.00  0.00     0.083 H 
ATOM    189  H   TRP d   1      -0.332  20.041  -1.642  0.00  0.00     0.086 H 
ENDBRANCH 172 175
ENDBRANCH 124 172
ENDBRANCH 122 124
ENDBRANCH 117 120
ENDBRANCH 115 117
ENDBRANCH 111 113
BRANCH 111 190
ATOM    190  CB  PHE d   1      -2.621  30.394   2.708  0.00  0.00    -0.014 C 
ATOM    191  H   PHE d   1      -2.464  29.533   3.358  0.00  0.00     0.043 H 
ATOM    192  H   PHE d   1      -3.428  31.049   3.036  0.00  0.00     0.043 H 
BRANCH 190 193
ATOM    193  CG  PHE d   1      -1.356  31.201   2.719  0.00  0.00    -0.056 A 
ATOM    194  CD1 PHE d   1      -0.152  30.624   3.087  0.00  0.00    -0.077 A 
ATOM    195  CE1 PHE d   1       1.015  31.365   3.095  0.00  0.00    -0.082 A 
ATOM    196  H   PHE d   1      -0.124  29.573   3.374  0.00  0.00     0.084 H 
ATOM    197  CZ  PHE d   1       0.988  32.696   2.728  0.00  0.00    -0.083 A 
ATOM    198  H   PHE d   1       1.955  30.899   3.391  0.00  0.00     0.083 H 
ATOM    199  CE2 PHE d   1      -0.206  33.282   2.356  0.00  0.00    -0.082 A 
ATOM    200  H   PHE d   1       1.907  33.283   2.732  0.00  0.00     0.083 H 
ATOM    201  CD2 PHE d   1      -1.368  32.535   2.350  0.00  0.00    -0.077 A 
ATOM    202  H   PHE d   1      -0.231  34.333   2.067  0.00  0.00     0.083 H 
ATOM    203  H   PHE d   1      -2.306  33.002   2.051  0.00  0.00     0.084 H 
ENDBRANCH 190 193
ENDBRANCH 111 190
ENDBRANCH 109 111
ENDBRANCH   1 107
BRANCH   1 204
ATOM    204  CB  THR d   1      -7.180  28.571   2.089  0.00  0.00     0.060 C 
ATOM    205  H   THR d   1      -7.105  29.635   2.313  0.00  0.00     0.086 H 
BRANCH 204 206
ATOM    206  OG1 THR d   1      -6.606  27.803   3.153  0.00  0.00    -0.393 OA
ATOM    207  H   THR d   1      -6.668  26.869   2.941  0.00  0.00     0.210 HD
ENDBRANCH 204 206
BRANCH 204 208
ATOM    208  CG2 THR d   1      -8.646  28.197   1.941  0.00  0.00    -0.050 C 
ATOM    209  H   THR d   1      -9.090  28.784   1.137  0.00  0.00     0.031 H 
ATOM    210  H   THR d   1      -8.727  27.136   1.705  0.00  0.00     0.031 H 
ATOM    211  H   THR d   1      -9.168  28.404   2.875  0.00  0.00     0.031 H 
ENDBRANCH 204 208
ENDBRANCH   1 204
TORSDOF 50
