REMARK WARNING: 32 MAX_TORS EXCEEDED!!!
REMARK  41 active torsions:
REMARK  status: ('A' for Active; 'I' for Inactive)
REMARK    1  A    between atoms: N_1  and  CA_2 
REMARK    2  A    between atoms: CA_2  and  C_3 
REMARK    3  A    between atoms: CA_2  and  CB_5 
REMARK       I    between atoms: C_3  and  N_12 
REMARK    4  A    between atoms: CB_5  and  CG_6 
REMARK    5  A    between atoms: N_12  and  CA_13 
REMARK    6  A    between atoms: CA_13  and  C_14 
REMARK    7  A    between atoms: CA_13  and  CB_16 
REMARK       I    between atoms: C_14  and  N_21 
REMARK    8  A    between atoms: CB_16  and  CG_17 
REMARK    9  A    between atoms: CG_17  and  CD_18 
REMARK       I    between atoms: CD_18  and  NE2_20 
REMARK   10  A    between atoms: N_21  and  CA_22 
REMARK   11  A    between atoms: CA_22  and  C_23 
REMARK   12  A    between atoms: CA_22  and  CB_25 
REMARK       I    between atoms: C_23  and  N_35 
REMARK   13  A    between atoms: CB_25  and  CG_26 
REMARK   14  A    between atoms: N_35  and  CA_36 
REMARK   15  A    between atoms: CA_36  and  C_37 
REMARK   16  A    between atoms: CA_36  and  CB_39 
REMARK       I    between atoms: C_37  and  N_43 
REMARK   17  A    between atoms: CB_39  and  CG_40 
REMARK   18  A    between atoms: CG_40  and  SD_41 
REMARK   19  A    between atoms: SD_41  and  CE_42 
REMARK   20  A    between atoms: N_43  and  CA_44 
REMARK   21  A    between atoms: CA_44  and  C_45 
REMARK       I    between atoms: C_45  and  N_47 
REMARK   22  A    between atoms: N_47  and  CA_48 
REMARK   23  A    between atoms: CA_48  and  C_49 
REMARK   24  A    between atoms: CA_48  and  CB_51 
REMARK       I    between atoms: C_49  and  N_59 
REMARK   25  A    between atoms: CB_51  and  CG_52 
REMARK   26  A    between atoms: CZ_57  and  OH_58 
REMARK   27  A    between atoms: N_59  and  CA_60 
REMARK   28  A    between atoms: CA_60  and  C_61 
REMARK   29  A    between atoms: CA_60  and  CB_63 
REMARK       I    between atoms: C_61  and  N_68 
REMARK   30  A    between atoms: CB_63  and  CG_64 
REMARK   31  A    between atoms: CG_64  and  CD_65 
REMARK   32  A    between atoms: N_68  and  CA_69 
REMARK   33  A    between atoms: CA_69  and  C_70 
REMARK   34  A    between atoms: CA_69  and  CB_72 
REMARK       I    between atoms: C_70  and  N_76 
REMARK   35  A    between atoms: CB_72  and  CG_73 
REMARK   36  A    between atoms: CG_73  and  CD1_74 
REMARK   37  A    between atoms: CG_73  and  CD2_75 
REMARK   38  A    between atoms: N_76  and  CA_77 
REMARK   39  A    between atoms: CA_77  and  C_78 
REMARK   40  A    between atoms: CA_77  and  CB_80 
REMARK   41  A    between atoms: CB_80  and  CG_81 
ROOT
ATOM      1  CA  GLY d   1       0.520   4.804  18.834  0.00  0.00     0.069 C 
ATOM      2  H   GLY d   1       0.741   4.783  17.767  0.00  0.00     0.078 H 
ATOM      3  H   GLY d   1      -0.437   5.267  19.074  0.00  0.00     0.078 H 
ENDROOT
BRANCH   1   4
ATOM      4  N   GLY d   1       1.556   5.590  19.476  0.00  0.00    -0.351 N 
ATOM      5  C   MET d   1       2.115   6.629  18.864  0.00  0.00     0.240 C 
ATOM      6  O   MET d   1       1.818   6.974  17.717  0.00  0.00    -0.271 OA
ATOM      7  H   GLY d   1       1.862   5.340  20.416  0.00  0.00     0.163 HD
BRANCH   5   8
ATOM      8  CA  MET d   1       3.178   7.361  19.667  0.00  0.00     0.090 C 
ATOM      9  H   MET d   1       3.519   6.703  20.466  0.00  0.00     0.087 H 
BRANCH   8  10
ATOM     10  N   MET d   1       4.345   7.669  18.849  0.00  0.00    -0.346 N 
ATOM     11  C   TRP d   1       5.530   7.119  19.105  0.00  0.00     0.241 C 
ATOM     12  O   TRP d   1       5.735   6.356  20.050  0.00  0.00    -0.271 OA
ATOM     13  H   MET d   1       4.252   8.317  18.067  0.00  0.00     0.163 HD
BRANCH  11  14
ATOM     14  CA  TRP d   1       6.655   7.511  18.151  0.00  0.00     0.093 C 
ATOM     15  H   TRP d   1       6.346   8.439  17.670  0.00  0.00     0.088 H 
BRANCH  14  16
ATOM     16  N   TRP d   1       7.895   7.756  18.860  0.00  0.00    -0.346 N 
ATOM     17  C   GLN d   1       8.178   8.949  19.362  0.00  0.00     0.241 C 
ATOM     18  O   GLN d   1       7.405   9.907  19.315  0.00  0.00    -0.271 OA
ATOM     19  H   TRP d   1       8.564   6.994  18.975  0.00  0.00     0.163 HD
BRANCH  17  20
ATOM     20  CA  GLN d   1       9.522   9.061  20.044  0.00  0.00     0.090 C 
ATOM     21  H   GLN d   1      10.249   8.475  19.482  0.00  0.00     0.087 H 
BRANCH  20  22
ATOM     22  N   GLN d   1       9.990  10.440  20.074  0.00  0.00    -0.346 N 
ATOM     23  C   PHE d   1      10.788  10.948  19.139  0.00  0.00     0.249 C 
ATOM     24  O   PHE d   1      11.103  10.338  18.123  0.00  0.00    -0.271 OA
ATOM     25  H   GLN d   1       9.694  11.041  20.843  0.00  0.00     0.163 HD
BRANCH  23  26
ATOM     26  CA  PHE d   1      11.302  12.364  19.377  0.00  0.00     0.179 C 
ATOM     27  H   PHE d   1      11.749  12.410  20.370  0.00  0.00     0.099 H 
BRANCH  26  28
ATOM     28  N   PHE d   1      12.315  12.692  18.381  0.00  0.00    -0.066 N 
ATOM     29  H   PHE d   1      13.068  12.005  18.425  0.00  0.00     0.275 HD
ATOM     30  H   PHE d   1      11.894  12.678  17.452  0.00  0.00     0.275 HD
ATOM     31  H   PHE d   1      12.689  13.621  18.572  0.00  0.00     0.275 HD
ENDBRANCH  26  28
BRANCH  26  32
ATOM     32  CB  PHE d   1      10.155  13.381  19.335  0.00  0.00    -0.006 C 
ATOM     33  H   PHE d   1       9.417  13.007  18.625  0.00  0.00     0.043 H 
ATOM     34  H   PHE d   1      10.586  14.344  19.061  0.00  0.00     0.043 H 
BRANCH  32  35
ATOM     35  CG  PHE d   1       9.452  13.566  20.654  0.00  0.00    -0.056 A 
ATOM     36  CD1 PHE d   1       9.961  14.430  21.612  0.00  0.00    -0.077 A 
ATOM     37  CE1 PHE d   1       9.312  14.607  22.825  0.00  0.00    -0.082 A 
ATOM     38  H   PHE d   1      10.882  14.976  21.409  0.00  0.00     0.084 H 
ATOM     39  CZ  PHE d   1       8.142  13.927  23.087  0.00  0.00    -0.083 A 
ATOM     40  H   PHE d   1       9.727  15.284  23.571  0.00  0.00     0.083 H 
ATOM     41  CE2 PHE d   1       7.621  13.069  22.140  0.00  0.00    -0.082 A 
ATOM     42  H   PHE d   1       7.630  14.066  24.039  0.00  0.00     0.083 H 
ATOM     43  CD2 PHE d   1       8.272  12.893  20.929  0.00  0.00    -0.077 A 
ATOM     44  H   PHE d   1       6.697  12.529  22.345  0.00  0.00     0.083 H 
ATOM     45  H   PHE d   1       7.851  12.217  20.184  0.00  0.00     0.084 H 
ENDBRANCH  32  35
ENDBRANCH  26  32
ENDBRANCH  23  26
ENDBRANCH  20  22
BRANCH  20  46
ATOM     46  CB  GLN d   1       9.395   8.530  21.468  0.00  0.00    -0.030 C 
ATOM     47  H   GLN d   1       8.332   8.372  21.651  0.00  0.00     0.037 H 
ATOM     48  H   GLN d   1       9.871   9.262  22.120  0.00  0.00     0.037 H 
BRANCH  46  49
ATOM     49  CG  GLN d   1      10.084   7.205  21.721  0.00  0.00     0.011 C 
ATOM     50  H   GLN d   1      11.062   7.234  21.240  0.00  0.00     0.047 H 
ATOM     51  H   GLN d   1       9.452   6.412  21.321  0.00  0.00     0.047 H 
BRANCH  49  52
ATOM     52  CD  GLN d   1      10.293   6.941  23.205  0.00  0.00     0.215 C 
ATOM     53  OE1 GLN d   1      10.628   7.849  23.968  0.00  0.00    -0.274 OA
ATOM     54  NE2 GLN d   1      10.085   5.696  23.622  0.00  0.00    -0.370 N 
ATOM     55  H   GLN d   1      10.202   5.462  24.608  0.00  0.00     0.159 HD
ATOM     56  H   GLN d   1       9.809   4.975  22.956  0.00  0.00     0.159 HD
ENDBRANCH  49  52
ENDBRANCH  46  49
ENDBRANCH  20  46
ENDBRANCH  17  20
ENDBRANCH  14  16
BRANCH  14  57
ATOM     57  CB  TRP d   1       6.869   6.458  17.061  0.00  0.00    -0.012 C 
ATOM     58  H   TRP d   1       7.534   5.698  17.471  0.00  0.00     0.044 H 
ATOM     59  H   TRP d   1       7.271   6.972  16.188  0.00  0.00     0.044 H 
BRANCH  57  60
ATOM     60  CG  TRP d   1       5.619   5.769  16.632  0.00  0.00    -0.028 A 
ATOM     61  CD1 TRP d   1       5.292   4.466  16.856  0.00  0.00    -0.015 A 
ATOM     62  NE1 TRP d   1       4.061   4.187  16.317  0.00  0.00    -0.365 N 
ATOM     63  H   TRP d   1       5.918   3.748  17.387  0.00  0.00     0.112 H 
ATOM     64  CE2 TRP d   1       3.567   5.319  15.730  0.00  0.00     0.042 A 
ATOM     65  H   TRP d   1       3.591   3.282  16.349  0.00  0.00     0.165 HD
ATOM     66  CD2 TRP d   1       4.521   6.341  15.907  0.00  0.00    -0.002 A 
ATOM     67  CZ2 TRP d   1       2.363   5.532  15.059  0.00  0.00    -0.056 A 
ATOM     68  CE3 TRP d   1       4.252   7.613  15.394  0.00  0.00    -0.070 A 
ATOM     69  CZ3 TRP d   1       3.054   7.821  14.727  0.00  0.00    -0.082 A 
ATOM     70  H   TRP d   1       4.969   8.425  15.516  0.00  0.00     0.084 H 
ATOM     71  CH2 TRP d   1       2.126   6.786  14.566  0.00  0.00    -0.081 A 
ATOM     72  H   TRP d   1       2.831   8.808  14.321  0.00  0.00     0.083 H 
ATOM     73  H   TRP d   1       1.194   6.983  14.036  0.00  0.00     0.083 H 
ATOM     74  H   TRP d   1       1.637   4.729  14.932  0.00  0.00     0.086 H 
ENDBRANCH  57  60
ENDBRANCH  14  57
ENDBRANCH  11  14
ENDBRANCH   8  10
BRANCH   8  75
ATOM     75  CB  MET d   1       2.586   8.620  20.312  0.00  0.00    -0.030 C 
ATOM     76  H   MET d   1       3.412   9.159  20.777  0.00  0.00     0.037 H 
ATOM     77  H   MET d   1       1.814   8.289  21.006  0.00  0.00     0.037 H 
BRANCH  75  78
ATOM     78  CG  MET d   1       1.923   9.580  19.333  0.00  0.00    -0.021 C 
ATOM     79  H   MET d   1       1.376   8.981  18.605  0.00  0.00     0.049 H 
ATOM     80  H   MET d   1       2.709  10.191  18.888  0.00  0.00     0.049 H 
BRANCH  78  81
ATOM     81  SD  MET d   1       0.740  10.700  20.117  0.00  0.00    -0.173 SA
BRANCH  81  82
ATOM     82  CE  MET d   1      -0.722   9.664  20.196  0.00  0.00    -0.035 C 
ATOM     83  H   MET d   1      -1.010   9.366  19.188  0.00  0.00     0.041 H 
ATOM     84  H   MET d   1      -0.505   8.777  20.791  0.00  0.00     0.041 H 
ATOM     85  H   MET d   1      -1.537  10.222  20.657  0.00  0.00     0.041 H 
ENDBRANCH  81  82
ENDBRANCH  78  81
ENDBRANCH  75  78
ENDBRANCH   8  75
ENDBRANCH   5   8
ENDBRANCH   1   4
BRANCH   1  86
ATOM     86  C   GLY d   1       0.461   3.367  19.313  0.00  0.00     0.236 C 
ATOM     87  O   GLY d   1       1.414   2.854  19.900  0.00  0.00    -0.272 OA
ATOM     88  N   TYR d   1      -0.666   2.714  19.054  0.00  0.00    -0.346 N 
ATOM     89  H   TYR d   1      -1.411   3.190  18.545  0.00  0.00     0.163 HD
BRANCH  88  90
ATOM     90  CA  TYR d   1      -0.865   1.336  19.478  0.00  0.00     0.093 C 
ATOM     91  H   TYR d   1      -0.375   1.203  20.442  0.00  0.00     0.088 H 
BRANCH  90  92
ATOM     92  C   TYR d   1      -0.240   0.370  18.482  0.00  0.00     0.241 C 
ATOM     93  O   TYR d   1      -0.557   0.398  17.294  0.00  0.00    -0.271 OA
ATOM     94  N   GLU d   1       0.651  -0.483  18.975  0.00  0.00    -0.346 N 
ATOM     95  H   GLU d   1       0.857  -0.462  19.974  0.00  0.00     0.163 HD
BRANCH  94  96
ATOM     96  CA  GLU d   1       1.342  -1.447  18.131  0.00  0.00     0.090 C 
ATOM     97  H   GLU d   1       0.846  -1.484  17.161  0.00  0.00     0.087 H 
BRANCH  96  98
ATOM     98  C   GLU d   1       1.283  -2.837  18.757  0.00  0.00     0.241 C 
ATOM     99  O   GLU d   1       2.265  -3.315  19.325  0.00  0.00    -0.271 OA
ATOM    100  N   LEU d   1       0.124  -3.478  18.655  0.00  0.00    -0.346 N 
ATOM    101  H   LEU d   1      -0.644  -3.039  18.147  0.00  0.00     0.163 HD
BRANCH 100 102
ATOM    102  CA  LEU d   1      -0.078  -4.795  19.251  0.00  0.00     0.089 C 
ATOM    103  H   LEU d   1       0.625  -4.886  20.079  0.00  0.00     0.087 H 
BRANCH 102 104
ATOM    104  C   LEU d   1       0.217  -5.919  18.263  0.00  0.00     0.241 C 
ATOM    105  O   LEU d   1      -0.201  -5.868  17.107  0.00  0.00    -0.271 OA
ATOM    106  N   TRP d   1       0.940  -6.934  18.727  0.00  0.00    -0.344 N 
ATOM    107  H   TRP d   1       1.294  -6.897  19.683  0.00  0.00     0.163 HD
BRANCH 106 108
ATOM    108  CA  TRP d   1       1.239  -8.100  17.902  0.00  0.00     0.100 C 
ATOM    109  H   TRP d   1       1.551  -7.740  16.922  0.00  0.00     0.090 H 
BRANCH 108 110
ATOM    110  C   TRP d   1       0.004  -8.976  17.727  0.00  0.00     0.197 C 
ATOM    111  O   TRP d   1      -0.093  -9.754  16.778  0.00  0.00    -0.646 OA
ATOM    112  OXT TRP d   1      -0.926  -8.927  18.532  0.00  0.00    -0.646 OA
ENDBRANCH 108 110
BRANCH 108 113
ATOM    113  CB  TRP d   1       2.379  -8.920  18.511  0.00  0.00    -0.011 C 
ATOM    114  H   TRP d   1       2.414  -9.871  17.980  0.00  0.00     0.044 H 
ATOM    115  H   TRP d   1       2.175  -9.018  19.577  0.00  0.00     0.044 H 
BRANCH 113 116
ATOM    116  CG  TRP d   1       3.727  -8.281  18.372  0.00  0.00    -0.028 A 
ATOM    117  CD1 TRP d   1       3.996  -7.027  17.907  0.00  0.00    -0.015 A 
ATOM    118  NE1 TRP d   1       5.351  -6.798  17.923  0.00  0.00    -0.365 N 
ATOM    119  H   TRP d   1       3.246  -6.311  17.572  0.00  0.00     0.112 H 
ATOM    120  CE2 TRP d   1       5.984  -7.912  18.399  0.00  0.00     0.042 A 
ATOM    121  H   TRP d   1       5.810  -5.936  17.628  0.00  0.00     0.165 HD
ATOM    122  CD2 TRP d   1       4.994  -8.872  18.693  0.00  0.00    -0.002 A 
ATOM    123  CZ2 TRP d   1       7.342  -8.161  18.599  0.00  0.00    -0.056 A 
ATOM    124  CE3 TRP d   1       5.383 -10.114  19.200  0.00  0.00    -0.070 A 
ATOM    125  CZ3 TRP d   1       6.731 -10.357  19.396  0.00  0.00    -0.082 A 
ATOM    126  H   TRP d   1       4.640 -10.876  19.436  0.00  0.00     0.084 H 
ATOM    127  CH2 TRP d   1       7.694  -9.385  19.096  0.00  0.00    -0.081 A 
ATOM    128  H   TRP d   1       7.049 -11.322  19.791  0.00  0.00     0.083 H 
ATOM    129  H   TRP d   1       8.748  -9.610  19.262  0.00  0.00     0.083 H 
ATOM    130  H   TRP d   1       8.095  -7.407  18.367  0.00  0.00     0.086 H 
ENDBRANCH 113 116
ENDBRANCH 108 113
ENDBRANCH 106 108
ENDBRANCH 102 104
BRANCH 102 131
ATOM    131  CB  LEU d   1      -1.508  -4.929  19.780  0.00  0.00    -0.035 C 
ATOM    132  H   LEU d   1      -1.565  -5.911  20.250  0.00  0.00     0.037 H 
ATOM    133  H   LEU d   1      -2.163  -4.759  18.925  0.00  0.00     0.037 H 
BRANCH 131 134
ATOM    134  CG  LEU d   1      -1.939  -3.924  20.849  0.00  0.00    -0.059 C 
ATOM    135  H   LEU d   1      -1.804  -2.920  20.448  0.00  0.00     0.038 H 
BRANCH 134 136
ATOM    136  CD1 LEU d   1      -3.411  -4.103  21.193  0.00  0.00    -0.073 C 
ATOM    137  H   LEU d   1      -4.013  -3.947  20.298  0.00  0.00     0.028 H 
ATOM    138  H   LEU d   1      -3.574  -5.112  21.571  0.00  0.00     0.028 H 
ATOM    139  H   LEU d   1      -3.696  -3.378  21.955  0.00  0.00     0.028 H 
ENDBRANCH 134 136
BRANCH 134 140
ATOM    140  CD2 LEU d   1      -1.073  -4.057  22.092  0.00  0.00    -0.073 C 
ATOM    141  H   LEU d   1      -1.171  -5.065  22.495  0.00  0.00     0.028 H 
ATOM    142  H   LEU d   1      -0.032  -3.869  21.830  0.00  0.00     0.028 H 
ATOM    143  H   LEU d   1      -1.398  -3.332  22.839  0.00  0.00     0.028 H 
ENDBRANCH 134 140
ENDBRANCH 131 134
ENDBRANCH 102 131
ENDBRANCH 100 102
ENDBRANCH  96  98
BRANCH  96 144
ATOM    144  CB  GLU d   1       2.795  -1.016  17.921  0.00  0.00    -0.029 C 
ATOM    145  H   GLU d   1       3.267  -0.997  18.903  0.00  0.00     0.037 H 
ATOM    146  H   GLU d   1       2.771  -0.052  17.412  0.00  0.00     0.037 H 
BRANCH 144 147
ATOM    147  CG  GLU d   1       3.611  -1.955  17.055  0.00  0.00     0.018 C 
ATOM    148  H   GLU d   1       3.183  -1.946  16.053  0.00  0.00     0.049 H 
ATOM    149  H   GLU d   1       3.582  -2.944  17.512  0.00  0.00     0.049 H 
BRANCH 147 150
ATOM    150  CD  GLU d   1       5.062  -1.532  16.947  0.00  0.00     0.172 C 
ATOM    151  OE1 GLU d   1       5.337  -0.317  17.038  0.00  0.00    -0.648 OA
ATOM    152  OE2 GLU d   1       5.927  -2.415  16.779  0.00  0.00    -0.648 OA
ENDBRANCH 147 150
ENDBRANCH 144 147
ENDBRANCH  96 144
ENDBRANCH  94  96
ENDBRANCH  90  92
BRANCH  90 153
ATOM    153  CB  TYR d   1      -2.355   1.036  19.639  0.00  0.00    -0.014 C 
ATOM    154  H   TYR d   1      -2.446  -0.017  19.905  0.00  0.00     0.043 H 
ATOM    155  H   TYR d   1      -2.841   1.299  18.700  0.00  0.00     0.043 H 
BRANCH 153 156
ATOM    156  CG  TYR d   1      -3.027   1.835  20.731  0.00  0.00    -0.056 A 
ATOM    157  CD1 TYR d   1      -2.839   1.512  22.068  0.00  0.00    -0.074 A 
ATOM    158  CE1 TYR d   1      -3.453   2.236  23.072  0.00  0.00    -0.051 A 
ATOM    159  H   TYR d   1      -2.196   0.672  22.330  0.00  0.00     0.084 H 
ATOM    160  CZ  TYR d   1      -4.271   3.297  22.744  0.00  0.00     0.065 A 
ATOM    161  H   TYR d   1      -3.292   1.970  24.117  0.00  0.00     0.087 H 
ATOM    162  CE2 TYR d   1      -4.477   3.636  21.424  0.00  0.00    -0.051 A 
ATOM    163  CD2 TYR d   1      -3.857   2.906  20.427  0.00  0.00    -0.074 A 
ATOM    164  H   TYR d   1      -5.125   4.474  21.168  0.00  0.00     0.087 H 
ATOM    165  H   TYR d   1      -4.023   3.176  19.384  0.00  0.00     0.084 H 
BRANCH 160 166
ATOM    166  OH  TYR d   1      -4.887   4.021  23.738  0.00  0.00    -0.361 OA
ATOM    167  H   TYR d   1      -4.643   3.660  24.593  0.00  0.00     0.217 HD
ENDBRANCH 160 166
ENDBRANCH 153 156
ENDBRANCH  90 153
ENDBRANCH  88  90
ENDBRANCH   1  86
TORSDOF 41
