REMARK WARNING: 32 MAX_TORS EXCEEDED!!!
REMARK  36 active torsions:
REMARK  status: ('A' for Active; 'I' for Inactive)
REMARK    1  A    between atoms: N_1  and  CA_2 
REMARK    2  A    between atoms: CA_2  and  C_3 
REMARK    3  A    between atoms: CA_2  and  CB_5 
REMARK       I    between atoms: C_3  and  N_10 
REMARK    4  A    between atoms: CB_5  and  CG_6 
REMARK    5  A    between atoms: CG_6  and  CD_7 
REMARK       I    between atoms: CD_7  and  NE2_9 
REMARK    6  A    between atoms: N_10  and  CA_11 
REMARK    7  A    between atoms: CA_11  and  C_12 
REMARK    8  A    between atoms: CA_11  and  CB_14 
REMARK       I    between atoms: C_12  and  N_17 
REMARK    9  A    between atoms: CB_14  and  OG1_15 
REMARK   10  A    between atoms: CB_14  and  CG2_16 
REMARK   11  A    between atoms: N_17  and  CA_18 
REMARK   12  A    between atoms: CA_18  and  C_19 
REMARK   13  A    between atoms: CA_18  and  CB_21 
REMARK       I    between atoms: C_19  and  N_23 
REMARK   14  A    between atoms: CB_21  and  OG_22 
REMARK   15  A    between atoms: N_23  and  CA_24 
REMARK   16  A    between atoms: CA_24  and  C_25 
REMARK   17  A    between atoms: CA_24  and  CB_27 
REMARK       I    between atoms: C_25  and  N_32 
REMARK   18  A    between atoms: CB_27  and  CG_28 
REMARK   19  A    between atoms: CG_28  and  CD_29 
REMARK       I    between atoms: CD_29  and  NE2_31 
REMARK   20  A    between atoms: N_32  and  CA_33 
REMARK   21  A    between atoms: CA_33  and  C_34 
REMARK   22  A    between atoms: CA_33  and  CB_36 
REMARK       I    between atoms: C_34  and  N_46 
REMARK   23  A    between atoms: CB_36  and  CG_37 
REMARK   24  A    between atoms: N_46  and  CA_47 
REMARK   25  A    between atoms: CA_47  and  C_48 
REMARK   26  A    between atoms: CA_47  and  CB_50 
REMARK       I    between atoms: C_48  and  N_54 
REMARK   27  A    between atoms: CB_50  and  CG_51 
REMARK   28  A    between atoms: N_54  and  CA_55 
REMARK   29  A    between atoms: CA_55  and  C_56 
REMARK   30  A    between atoms: CA_55  and  CB_58 
REMARK       I    between atoms: C_56  and  N_62 
REMARK   31  A    between atoms: CB_58  and  CG_59 
REMARK   32  A    between atoms: CA_63  and  C_64 
REMARK       I    between atoms: C_64  and  N_69 
REMARK   33  A    between atoms: N_69  and  CA_70 
REMARK   34  A    between atoms: CA_70  and  C_71 
REMARK   35  A    between atoms: CA_70  and  CB_73 
REMARK   36  A    between atoms: CB_73  and  CG_74 
ROOT
ATOM      1  CA  TRP d   1     -26.918  16.273  -1.990  0.00  0.00     0.093 C 
ATOM      2  H   TRP d   1     -26.889  17.000  -2.801  0.00  0.00     0.088 H 
ENDROOT
BRANCH   1   3
ATOM      3  N   TRP d   1     -28.308  15.848  -1.870  0.00  0.00    -0.346 N 
ATOM      4  C   GLN d   1     -29.213  16.177  -2.784  0.00  0.00     0.241 C 
ATOM      5  O   GLN d   1     -28.921  16.717  -3.850  0.00  0.00    -0.271 OA
ATOM      6  H   TRP d   1     -28.591  15.286  -1.067  0.00  0.00     0.163 HD
BRANCH   4   7
ATOM      7  CA  GLN d   1     -30.661  15.835  -2.452  0.00  0.00     0.090 C 
ATOM      8  H   GLN d   1     -31.157  15.519  -3.369  0.00  0.00     0.087 H 
BRANCH   7   9
ATOM      9  N   GLN d   1     -30.723  14.751  -1.486  0.00  0.00    -0.346 N 
ATOM     10  C   SER d   1     -30.439  13.496  -1.810  0.00  0.00     0.243 C 
ATOM     11  O   SER d   1     -30.122  13.146  -2.948  0.00  0.00    -0.271 OA
ATOM     12  H   GLN d   1     -30.994  14.962  -0.526  0.00  0.00     0.163 HD
BRANCH  10  13
ATOM     13  CA  SER d   1     -30.526  12.492  -0.668  0.00  0.00     0.109 C 
ATOM     14  H   SER d   1     -31.269  12.855   0.043  0.00  0.00     0.090 H 
BRANCH  13  15
ATOM     15  N   SER d   1     -30.979  11.186  -1.124  0.00  0.00    -0.344 N 
ATOM     16  C   THR d   1     -32.271  10.917  -1.275  0.00  0.00     0.243 C 
ATOM     17  O   THR d   1     -33.156  11.745  -1.066  0.00  0.00    -0.271 OA
ATOM     18  H   SER d   1     -30.290  10.463  -1.332  0.00  0.00     0.163 HD
BRANCH  16  19
ATOM     19  CA  THR d   1     -32.615   9.504  -1.728  0.00  0.00     0.113 C 
ATOM     20  H   THR d   1     -32.130   8.792  -1.060  0.00  0.00     0.091 H 
BRANCH  19  21
ATOM     21  N   THR d   1     -34.048   9.242  -1.636  0.00  0.00    -0.344 N 
ATOM     22  C   GLN d   1     -34.667   9.195  -0.461  0.00  0.00     0.249 C 
ATOM     23  O   GLN d   1     -34.090   9.405   0.605  0.00  0.00    -0.271 OA
ATOM     24  H   THR d   1     -34.585   9.092  -2.490  0.00  0.00     0.163 HD
BRANCH  22  25
ATOM     25  CA  GLN d   1     -36.152   8.850  -0.487  0.00  0.00     0.176 C 
ATOM     26  H   GLN d   1     -36.328   8.136  -1.291  0.00  0.00     0.099 H 
BRANCH  25  27
ATOM     27  N   GLN d   1     -36.545   8.244   0.779  0.00  0.00    -0.066 N 
ATOM     28  H   GLN d   1     -35.975   7.415   0.949  0.00  0.00     0.275 HD
ATOM     29  H   GLN d   1     -36.404   8.915   1.534  0.00  0.00     0.275 HD
ATOM     30  H   GLN d   1     -37.529   7.979   0.737  0.00  0.00     0.275 HD
ENDBRANCH  25  27
BRANCH  25  31
ATOM     31  CB  GLN d   1     -36.994  10.098  -0.765  0.00  0.00    -0.022 C 
ATOM     32  H   GLN d   1     -36.525  10.927  -0.234  0.00  0.00     0.037 H 
ATOM     33  H   GLN d   1     -38.011   9.877  -0.442  0.00  0.00     0.037 H 
BRANCH  31  34
ATOM     34  CG  GLN d   1     -37.066  10.490  -2.234  0.00  0.00     0.011 C 
ATOM     35  H   GLN d   1     -37.286   9.591  -2.810  0.00  0.00     0.047 H 
ATOM     36  H   GLN d   1     -36.112  10.941  -2.508  0.00  0.00     0.047 H 
BRANCH  34  37
ATOM     37  CD  GLN d   1     -38.160  11.505  -2.515  0.00  0.00     0.215 C 
ATOM     38  OE1 GLN d   1     -38.625  12.199  -1.611  0.00  0.00    -0.274 OA
ATOM     39  NE2 GLN d   1     -38.583  11.588  -3.772  0.00  0.00    -0.370 N 
ATOM     40  H   GLN d   1     -39.322  12.247  -4.019  0.00  0.00     0.159 HD
ATOM     41  H   GLN d   1     -38.169  10.993  -4.490  0.00  0.00     0.159 HD
ENDBRANCH  34  37
ENDBRANCH  31  34
ENDBRANCH  25  31
ENDBRANCH  22  25
ENDBRANCH  19  21
BRANCH  19  42
ATOM     42  CB  THR d   1     -32.086   9.285  -3.157  0.00  0.00     0.060 C 
ATOM     43  H   THR d   1     -31.040   9.589  -3.192  0.00  0.00     0.086 H 
BRANCH  42  44
ATOM     44  OG1 THR d   1     -32.852  10.070  -4.078  0.00  0.00    -0.393 OA
ATOM     45  H   THR d   1     -32.520   9.931  -4.968  0.00  0.00     0.210 HD
ENDBRANCH  42  44
BRANCH  42  46
ATOM     46  CG2 THR d   1     -32.186   7.819  -3.542  0.00  0.00    -0.050 C 
ATOM     47  H   THR d   1     -31.594   7.221  -2.849  0.00  0.00     0.031 H 
ATOM     48  H   THR d   1     -33.228   7.503  -3.497  0.00  0.00     0.031 H 
ATOM     49  H   THR d   1     -31.807   7.684  -4.555  0.00  0.00     0.031 H 
ENDBRANCH  42  46
ENDBRANCH  19  42
ENDBRANCH  16  19
ENDBRANCH  13  15
BRANCH  13  50
ATOM     50  CB  SER d   1     -29.171  12.384   0.033  0.00  0.00     0.044 C 
ATOM     51  H   SER d   1     -28.439  11.997  -0.676  0.00  0.00     0.077 H 
ATOM     52  H   SER d   1     -29.271  11.718   0.890  0.00  0.00     0.077 H 
BRANCH  50  53
ATOM     53  OG  SER d   1     -28.736  13.654   0.490  0.00  0.00    -0.398 OA
ATOM     54  H   SER d   1     -27.886  13.562   0.926  0.00  0.00     0.209 HD
ENDBRANCH  50  53
ENDBRANCH  13  50
ENDBRANCH  10  13
ENDBRANCH   7   9
BRANCH   7  55
ATOM     55  CB  GLN d   1     -31.370  17.064  -1.882  0.00  0.00    -0.030 C 
ATOM     56  H   GLN d   1     -30.875  17.306  -0.941  0.00  0.00     0.037 H 
ATOM     57  H   GLN d   1     -32.425  16.806  -1.792  0.00  0.00     0.037 H 
BRANCH  55  58
ATOM     58  CG  GLN d   1     -31.293  18.305  -2.750  0.00  0.00     0.011 C 
ATOM     59  H   GLN d   1     -31.908  18.139  -3.635  0.00  0.00     0.047 H 
ATOM     60  H   GLN d   1     -30.247  18.478  -3.002  0.00  0.00     0.047 H 
BRANCH  58  61
ATOM     61  CD  GLN d   1     -31.816  19.536  -2.037  0.00  0.00     0.215 C 
ATOM     62  OE1 GLN d   1     -32.171  19.479  -0.859  0.00  0.00    -0.274 OA
ATOM     63  NE2 GLN d   1     -31.864  20.657  -2.747  0.00  0.00    -0.370 N 
ATOM     64  H   GLN d   1     -32.206  21.518  -2.319  0.00  0.00     0.159 HD
ATOM     65  H   GLN d   1     -31.559  20.658  -3.720  0.00  0.00     0.159 HD
ENDBRANCH  58  61
ENDBRANCH  55  58
ENDBRANCH   7  55
ENDBRANCH   4   7
ENDBRANCH   1   3
BRANCH   1  66
ATOM     66  C   TRP d   1     -25.966  15.148  -2.388  0.00  0.00     0.241 C 
ATOM     67  O   TRP d   1     -25.952  14.076  -1.781  0.00  0.00    -0.271 OA
ATOM     68  N   ASP d   1     -25.164  15.414  -3.413  0.00  0.00    -0.345 N 
ATOM     69  H   ASP d   1     -25.233  16.323  -3.870  0.00  0.00     0.163 HD
BRANCH  68  70
ATOM     70  CA  ASP d   1     -24.190  14.451  -3.905  0.00  0.00     0.098 C 
ATOM     71  H   ASP d   1     -23.794  13.872  -3.071  0.00  0.00     0.088 H 
BRANCH  70  72
ATOM     72  C   ASP d   1     -23.046  15.200  -4.583  0.00  0.00     0.241 C 
ATOM     73  O   ASP d   1     -22.979  15.276  -5.810  0.00  0.00    -0.271 OA
ATOM     74  N   ASP d   1     -22.152  15.759  -3.773  0.00  0.00    -0.345 N 
ATOM     75  H   ASP d   1     -22.238  15.617  -2.767  0.00  0.00     0.163 HD
BRANCH  74  76
ATOM     76  CA  ASP d   1     -21.050  16.571  -4.282  0.00  0.00     0.099 C 
ATOM     77  H   ASP d   1     -21.500  17.322  -4.931  0.00  0.00     0.088 H 
BRANCH  76  78
ATOM     78  C   ASP d   1     -20.065  15.780  -5.136  0.00  0.00     0.243 C 
ATOM     79  O   ASP d   1     -19.770  14.621  -4.847  0.00  0.00    -0.271 OA
ATOM     80  N   PRO d   1     -19.548  16.419  -6.194  0.00  0.00    -0.337 N 
ATOM     81  CA  PRO d   1     -18.573  15.834  -7.119  0.00  0.00     0.091 C 
ATOM     82  CD  PRO d   1     -19.915  17.792  -6.576  0.00  0.00    -0.001 C 
ATOM     83  CB  PRO d   1     -18.317  16.967  -8.119  0.00  0.00    -0.036 C 
ATOM     84  H   PRO d   1     -18.939  14.911  -7.569  0.00  0.00     0.087 H 
ATOM     85  CG  PRO d   1     -19.502  17.860  -8.006  0.00  0.00    -0.048 C 
ATOM     86  H   PRO d   1     -18.193  16.588  -9.134  0.00  0.00     0.036 H 
ATOM     87  H   PRO d   1     -17.391  17.497  -7.898  0.00  0.00     0.036 H 
ATOM     88  H   PRO d   1     -20.306  17.543  -8.670  0.00  0.00     0.035 H 
ATOM     89  H   PRO d   1     -19.264  18.881  -8.305  0.00  0.00     0.035 H 
ATOM     90  H   PRO d   1     -19.430  18.548  -5.958  0.00  0.00     0.064 H 
ATOM     91  H   PRO d   1     -20.974  18.003  -6.430  0.00  0.00     0.064 H 
BRANCH  81  92
ATOM     92  C   PRO d   1     -17.269  15.474  -6.417  0.00  0.00     0.241 C 
ATOM     93  O   PRO d   1     -16.953  16.048  -5.375  0.00  0.00    -0.271 OA
ATOM     94  N   TRP d   1     -16.526  14.533  -6.991  0.00  0.00    -0.344 N 
ATOM     95  H   TRP d   1     -16.884  14.056  -7.818  0.00  0.00     0.163 HD
BRANCH  94  96
ATOM     96  CA  TRP d   1     -15.215  14.163  -6.474  0.00  0.00     0.100 C 
ATOM     97  H   TRP d   1     -15.291  14.103  -5.388  0.00  0.00     0.090 H 
BRANCH  96  98
ATOM     98  C   TRP d   1     -14.171  15.212  -6.835  0.00  0.00     0.197 C 
ATOM     99  O   TRP d   1     -13.070  15.218  -6.287  0.00  0.00    -0.646 OA
ATOM    100  OXT TRP d   1     -14.404  16.070  -7.686  0.00  0.00    -0.646 OA
ENDBRANCH  96  98
BRANCH  96 101
ATOM    101  CB  TRP d   1     -14.785  12.803  -7.022  0.00  0.00    -0.011 C 
ATOM    102  H   TRP d   1     -13.716  12.699  -6.833  0.00  0.00     0.044 H 
ATOM    103  H   TRP d   1     -15.049  12.780  -8.079  0.00  0.00     0.044 H 
BRANCH 101 104
ATOM    104  CG  TRP d   1     -15.467  11.647  -6.368  0.00  0.00    -0.028 A 
ATOM    105  CD1 TRP d   1     -16.587  11.685  -5.591  0.00  0.00    -0.015 A 
ATOM    106  NE1 TRP d   1     -16.910  10.420  -5.163  0.00  0.00    -0.365 N 
ATOM    107  H   TRP d   1     -17.145  12.588  -5.345  0.00  0.00     0.112 H 
ATOM    108  CE2 TRP d   1     -15.988   9.535  -5.662  0.00  0.00     0.042 A 
ATOM    109  H   TRP d   1     -17.705  10.178  -4.571  0.00  0.00     0.165 HD
ATOM    110  CD2 TRP d   1     -15.063  10.276  -6.423  0.00  0.00    -0.002 A 
ATOM    111  CZ2 TRP d   1     -15.892   8.155  -5.505  0.00  0.00    -0.056 A 
ATOM    112  CE3 TRP d   1     -14.008   9.600  -7.045  0.00  0.00    -0.070 A 
ATOM    113  CZ3 TRP d   1     -13.914   8.232  -6.890  0.00  0.00    -0.082 A 
ATOM    114  H   TRP d   1     -13.274  10.143  -7.641  0.00  0.00     0.084 H 
ATOM    115  CH2 TRP d   1     -14.850   7.523  -6.126  0.00  0.00    -0.081 A 
ATOM    116  H   TRP d   1     -13.097   7.694  -7.370  0.00  0.00     0.083 H 
ATOM    117  H   TRP d   1     -14.745   6.443  -6.024  0.00  0.00     0.083 H 
ATOM    118  H   TRP d   1     -16.618   7.600  -4.911  0.00  0.00     0.086 H 
ENDBRANCH 101 104
ENDBRANCH  96 101
ENDBRANCH  94  96
ENDBRANCH  81  92
ENDBRANCH  76  78
BRANCH  76 119
ATOM    119  CB  ASP d   1     -20.311  17.259  -3.132  0.00  0.00     0.043 C 
ATOM    120  H   ASP d   1     -19.344  17.594  -3.507  0.00  0.00     0.052 H 
ATOM    121  H   ASP d   1     -20.218  16.542  -2.316  0.00  0.00     0.052 H 
BRANCH 119 122
ATOM    122  CG  ASP d   1     -21.052  18.470  -2.607  0.00  0.00     0.175 C 
ATOM    123  OD1 ASP d   1     -22.295  18.508  -2.734  0.00  0.00    -0.648 OA
ATOM    124  OD2 ASP d   1     -20.393  19.386  -2.072  0.00  0.00    -0.648 OA
ENDBRANCH 119 122
ENDBRANCH  76 119
ENDBRANCH  74  76
ENDBRANCH  70  72
BRANCH  70 125
ATOM    125  CB  ASP d   1     -24.855  13.478  -4.885  0.00  0.00     0.043 C 
ATOM    126  H   ASP d   1     -24.986  13.997  -5.835  0.00  0.00     0.052 H 
ATOM    127  H   ASP d   1     -25.800  13.156  -4.448  0.00  0.00     0.052 H 
BRANCH 125 128
ATOM    128  CG  ASP d   1     -24.016  12.241  -5.142  0.00  0.00     0.175 C 
ATOM    129  OD1 ASP d   1     -22.772  12.353  -5.170  0.00  0.00    -0.648 OA
ATOM    130  OD2 ASP d   1     -24.601  11.151  -5.313  0.00  0.00    -0.648 OA
ENDBRANCH 125 128
ENDBRANCH  70 125
ENDBRANCH  68  70
ENDBRANCH   1  66
BRANCH   1 131
ATOM    131  CB  TRP d   1     -26.451  16.922  -0.687  0.00  0.00    -0.012 C 
ATOM    132  H   TRP d   1     -25.498  17.413  -0.882  0.00  0.00     0.044 H 
ATOM    133  H   TRP d   1     -26.377  16.139   0.068  0.00  0.00     0.044 H 
BRANCH 131 134
ATOM    134  CG  TRP d   1     -27.405  17.958  -0.180  0.00  0.00    -0.028 A 
ATOM    135  CD1 TRP d   1     -28.175  17.883   0.943  0.00  0.00    -0.015 A 
ATOM    136  NE1 TRP d   1     -28.930  19.024   1.077  0.00  0.00    -0.365 N 
ATOM    137  H   TRP d   1     -28.190  17.040   1.634  0.00  0.00     0.112 H 
ATOM    138  CE2 TRP d   1     -28.660  19.859   0.025  0.00  0.00     0.042 A 
ATOM    139  H   TRP d   1     -29.584  19.217   1.835  0.00  0.00     0.165 HD
ATOM    140  CD2 TRP d   1     -27.705  19.219  -0.790  0.00  0.00    -0.002 A 
ATOM    141  CZ2 TRP d   1     -29.173  21.120  -0.278  0.00  0.00    -0.056 A 
ATOM    142  CE3 TRP d   1     -27.256  19.870  -1.944  0.00  0.00    -0.070 A 
ATOM    143  CZ3 TRP d   1     -27.767  21.121  -2.241  0.00  0.00    -0.082 A 
ATOM    144  H   TRP d   1     -26.519  19.401  -2.596  0.00  0.00     0.084 H 
ATOM    145  CH2 TRP d   1     -28.715  21.732  -1.412  0.00  0.00    -0.081 A 
ATOM    146  H   TRP d   1     -27.425  21.640  -3.136  0.00  0.00     0.083 H 
ATOM    147  H   TRP d   1     -29.097  22.718  -1.676  0.00  0.00     0.083 H 
ATOM    148  H   TRP d   1     -29.911  21.600   0.365  0.00  0.00     0.086 H 
ENDBRANCH 131 134
ENDBRANCH   1 131
TORSDOF 36
