REMARK WARNING: 32 MAX_TORS EXCEEDED!!!
REMARK  37 active torsions:
REMARK  status: ('A' for Active; 'I' for Inactive)
REMARK    1  A    between atoms: N_1  and  CA_2 
REMARK    2  A    between atoms: CA_2  and  C_3 
REMARK    3  A    between atoms: CA_2  and  CB_5 
REMARK       I    between atoms: C_3  and  N_9 
REMARK    4  A    between atoms: CB_5  and  CG_6 
REMARK    5  A    between atoms: CG_6  and  SD_7 
REMARK    6  A    between atoms: SD_7  and  CE_8 
REMARK    7  A    between atoms: N_9  and  CA_10 
REMARK    8  A    between atoms: CA_10  and  C_11 
REMARK    9  A    between atoms: CA_10  and  CB_13 
REMARK       I    between atoms: C_11  and  N_19 
REMARK   10  A    between atoms: CB_13  and  CG_14 
REMARK   11  A    between atoms: CA_20  and  C_21 
REMARK       I    between atoms: C_21  and  N_26 
REMARK   12  A    between atoms: N_26  and  CA_27 
REMARK   13  A    between atoms: CA_27  and  C_28 
REMARK   14  A    between atoms: CA_27  and  CB_30 
REMARK       I    between atoms: C_28  and  N_31 
REMARK   15  A    between atoms: N_31  and  CA_32 
REMARK   16  A    between atoms: CA_32  and  C_33 
REMARK   17  A    between atoms: CA_32  and  CB_35 
REMARK       I    between atoms: C_33  and  N_40 
REMARK   18  A    between atoms: CB_35  and  CG_36 
REMARK   19  A    between atoms: CG_36  and  CD_37 
REMARK       I    between atoms: CD_37  and  NE2_39 
REMARK   20  A    between atoms: N_40  and  CA_41 
REMARK   21  A    between atoms: CA_41  and  C_42 
REMARK   22  A    between atoms: CA_41  and  CB_44 
REMARK       I    between atoms: C_42  and  N_47 
REMARK   23  A    between atoms: CB_44  and  OG1_45 
REMARK   24  A    between atoms: CB_44  and  CG2_46 
REMARK   25  A    between atoms: N_47  and  CA_48 
REMARK   26  A    between atoms: CA_48  and  C_49 
REMARK   27  A    between atoms: CA_48  and  CB_51 
REMARK       I    between atoms: C_49  and  N_53 
REMARK   28  A    between atoms: CB_51  and  OG_52 
REMARK   29  A    between atoms: N_53  and  CA_54 
REMARK   30  A    between atoms: CA_54  and  C_55 
REMARK   31  A    between atoms: CA_54  and  CB_57 
REMARK       I    between atoms: C_55  and  N_62 
REMARK   32  A    between atoms: CB_57  and  CG_58 
REMARK   33  A    between atoms: CG_58  and  CD_59 
REMARK       I    between atoms: CD_59  and  NE2_61 
REMARK   34  A    between atoms: N_62  and  CA_63 
REMARK   35  A    between atoms: CA_63  and  C_64 
REMARK   36  A    between atoms: CA_63  and  CB_66 
REMARK   37  A    between atoms: CB_66  and  CG_67 
ROOT
ATOM      1  CA  GLN d   1       1.075   5.648  16.267  0.00  0.00     0.090 C 
ATOM      2  H   GLN d   1      -0.004   5.643  16.424  0.00  0.00     0.087 H 
ENDROOT
BRANCH   1   3
ATOM      3  N   GLN d   1       1.546   6.904  16.846  0.00  0.00    -0.346 N 
ATOM      4  C   ALA d   1       1.332   7.245  18.114  0.00  0.00     0.240 C 
ATOM      5  O   ALA d   1       0.696   6.570  18.866  0.00  0.00    -0.271 OA
ATOM      6  H   GLN d   1       2.063   7.550  16.250  0.00  0.00     0.163 HD
BRANCH   4   7
ATOM      7  CA  ALA d   1       1.944   8.544  18.597  0.00  0.00     0.086 C 
ATOM      8  H   ALA d   1       2.191   8.421  19.652  0.00  0.00     0.086 H 
BRANCH   7   9
ATOM      9  N   ALA d   1       3.160   8.838  17.890  0.00  0.00    -0.346 N 
ATOM     10  C   PRO d   1       4.106   7.944  17.877  0.00  0.00     0.241 C 
ATOM     11  O   PRO d   1       4.026   6.903  18.528  0.00  0.00    -0.271 OA
ATOM     12  H   ALA d   1       3.279   9.729  17.408  0.00  0.00     0.163 HD
BRANCH  10  13
ATOM     13  CA  PRO d   1       5.386   8.270  17.113  0.00  0.00     0.091 C 
ATOM     14  N   PRO d   1       6.583   7.984  17.910  0.00  0.00    -0.337 N 
ATOM     15  C   HIS d   1       7.212   8.936  18.592  0.00  0.00     0.243 C 
ATOM     16  CD  PRO d   1       7.293   6.784  17.432  0.00  0.00    -0.001 C 
ATOM     17  O   HIS d   1       6.839  10.109  18.605  0.00  0.00    -0.271 OA
ATOM     18  CG  PRO d   1       6.338   6.192  16.435  0.00  0.00    -0.048 C 
ATOM     19  H   PRO d   1       7.540   6.093  18.238  0.00  0.00     0.064 H 
ATOM     20  H   PRO d   1       8.264   7.017  16.996  0.00  0.00     0.064 H 
ATOM     21  CB  PRO d   1       5.536   7.331  15.915  0.00  0.00    -0.036 C 
ATOM     22  H   PRO d   1       6.870   5.682  15.632  0.00  0.00     0.035 H 
ATOM     23  H   PRO d   1       5.701   5.437  16.896  0.00  0.00     0.035 H 
ATOM     24  H   PRO d   1       6.020   7.820  15.070  0.00  0.00     0.036 H 
ATOM     25  H   PRO d   1       4.571   7.008  15.525  0.00  0.00     0.036 H 
ATOM     26  H   PRO d   1       5.308   9.323  16.844  0.00  0.00     0.087 H 
BRANCH  15  27
ATOM     27  CA  HIS d   1       8.445   8.499  19.377  0.00  0.00     0.095 C 
ATOM     28  H   HIS d   1       9.054   7.865  18.733  0.00  0.00     0.088 H 
BRANCH  27  29
ATOM     29  N   HIS d   1       9.254   9.648  19.766  0.00  0.00    -0.346 N 
ATOM     30  C   MET d   1       9.636  10.564  18.882  0.00  0.00     0.249 C 
ATOM     31  O   MET d   1       9.339  10.509  17.688  0.00  0.00    -0.271 OA
ATOM     32  H   HIS d   1       9.534   9.751  20.741  0.00  0.00     0.163 HD
BRANCH  30  33
ATOM     33  CA  MET d   1      10.477  11.714  19.425  0.00  0.00     0.176 C 
ATOM     34  H   MET d   1      11.113  11.325  20.220  0.00  0.00     0.099 H 
BRANCH  33  35
ATOM     35  N   MET d   1      11.344  12.267  18.392  0.00  0.00    -0.066 N 
ATOM     36  H   MET d   1      11.941  11.528  18.020  0.00  0.00     0.275 HD
ATOM     37  H   MET d   1      10.772  12.655  17.641  0.00  0.00     0.275 HD
ATOM     38  H   MET d   1      11.923  13.004  18.795  0.00  0.00     0.275 HD
ENDBRANCH  33  35
BRANCH  33  39
ATOM     39  CB  MET d   1       9.569  12.802  20.002  0.00  0.00    -0.022 C 
ATOM     40  H   MET d   1       9.086  13.299  19.160  0.00  0.00     0.037 H 
ATOM     41  H   MET d   1      10.196  13.458  20.607  0.00  0.00     0.037 H 
BRANCH  39  42
ATOM     42  CG  MET d   1       8.466  12.276  20.906  0.00  0.00    -0.021 C 
ATOM     43  H   MET d   1       8.925  11.948  21.838  0.00  0.00     0.049 H 
ATOM     44  H   MET d   1       7.959  11.468  20.379  0.00  0.00     0.049 H 
BRANCH  42  45
ATOM     45  SD  MET d   1       7.237  13.532  21.307  0.00  0.00    -0.173 SA
BRANCH  45  46
ATOM     46  CE  MET d   1       8.214  14.659  22.298  0.00  0.00    -0.035 C 
ATOM     47  H   MET d   1       8.600  14.132  23.171  0.00  0.00     0.041 H 
ATOM     48  H   MET d   1       9.045  15.037  21.703  0.00  0.00     0.041 H 
ATOM     49  H   MET d   1       7.589  15.492  22.621  0.00  0.00     0.041 H 
ENDBRANCH  45  46
ENDBRANCH  42  45
ENDBRANCH  39  42
ENDBRANCH  33  39
ENDBRANCH  30  33
ENDBRANCH  27  29
BRANCH  27  50
ATOM     50  CB  HIS d   1       8.026   7.696  20.610  0.00  0.00     0.004 C 
ATOM     51  H   HIS d   1       7.735   6.703  20.268  0.00  0.00     0.046 H 
ATOM     52  H   HIS d   1       7.221   8.246  21.098  0.00  0.00     0.046 H 
BRANCH  50  53
ATOM     53  CG  HIS d   1       9.120   7.519  21.616  0.00  0.00     0.053 A 
ATOM     54  ND1 HIS d   1       9.812   6.336  21.762  0.00  0.00    -0.247 NA
ATOM     55  CE1 HIS d   1      10.713   6.471  22.719  0.00  0.00     0.064 A 
ATOM     56  NE2 HIS d   1      10.631   7.699  23.198  0.00  0.00    -0.359 N 
ATOM     57  H   HIS d   1      11.406   5.700  23.056  0.00  0.00     0.143 H 
ATOM     58  CD2 HIS d   1       9.643   8.376  22.525  0.00  0.00     0.002 A 
ATOM     59  H   HIS d   1      11.208   8.083  23.947  0.00  0.00     0.166 HD
ATOM     60  H   HIS d   1       9.337   9.409  22.691  0.00  0.00     0.114 H 
ENDBRANCH  50  53
ENDBRANCH  27  50
ENDBRANCH  15  27
ENDBRANCH  10  13
ENDBRANCH   7   9
BRANCH   7  61
ATOM     61  CB  ALA d   1       0.987   9.658  18.484  0.00  0.00    -0.049 C 
ATOM     62  H   ALA d   1       1.429  10.560  18.907  0.00  0.00     0.030 H 
ATOM     63  H   ALA d   1       0.750   9.826  17.433  0.00  0.00     0.030 H 
ATOM     64  H   ALA d   1       0.076   9.409  19.028  0.00  0.00     0.030 H 
ENDBRANCH   7  61
ENDBRANCH   4   7
ENDBRANCH   1   3
BRANCH   1  65
ATOM     65  C   GLN d   1       1.714   4.485  16.908  0.00  0.00     0.241 C 
ATOM     66  O   GLN d   1       2.863   4.533  17.187  0.00  0.00    -0.271 OA
ATOM     67  N   THR d   1       0.955   3.426  17.112  0.00  0.00    -0.344 N 
ATOM     68  H   THR d   1      -0.047   3.574  17.235  0.00  0.00     0.163 HD
BRANCH  67  69
ATOM     69  CA  THR d   1       1.454   2.056  17.173  0.00  0.00     0.113 C 
ATOM     70  H   THR d   1       1.996   1.994  16.229  0.00  0.00     0.091 H 
BRANCH  69  71
ATOM     71  C   THR d   1       0.376   0.977  17.169  0.00  0.00     0.243 C 
ATOM     72  O   THR d   1      -0.531   1.041  17.930  0.00  0.00    -0.271 OA
ATOM     73  N   SER d   1       0.513  -0.002  16.302  0.00  0.00    -0.344 N 
ATOM     74  H   SER d   1       1.312   0.004  15.668  0.00  0.00     0.163 HD
BRANCH  73  75
ATOM     75  CA  SER d   1      -0.432  -1.077  16.225  0.00  0.00     0.109 C 
ATOM     76  H   SER d   1      -1.300  -0.779  16.813  0.00  0.00     0.090 H 
BRANCH  75  77
ATOM     77  C   SER d   1       0.110  -2.351  16.812  0.00  0.00     0.243 C 
ATOM     78  O   SER d   1       1.302  -2.513  16.931  0.00  0.00    -0.271 OA
ATOM     79  N   GLN d   1      -0.796  -3.273  17.107  0.00  0.00    -0.346 N 
ATOM     80  H   GLN d   1      -1.744  -3.151  16.752  0.00  0.00     0.163 HD
BRANCH  79  81
ATOM     81  CA  GLN d   1      -0.505  -4.452  17.914  0.00  0.00     0.090 C 
ATOM     82  H   GLN d   1       0.345  -4.216  18.554  0.00  0.00     0.087 H 
BRANCH  81  83
ATOM     83  C   GLN d   1      -0.126  -5.640  17.037  0.00  0.00     0.241 C 
ATOM     84  O   GLN d   1      -0.286  -5.600  15.817  0.00  0.00    -0.271 OA
ATOM     85  N   TRP d   1       0.377  -6.697  17.667  0.00  0.00    -0.344 N 
ATOM     86  H   TRP d   1       0.484  -6.667  18.681  0.00  0.00     0.163 HD
BRANCH  85  87
ATOM     87  CA  TRP d   1       0.780  -7.899  16.946  0.00  0.00     0.100 C 
ATOM     88  H   TRP d   1       1.165  -7.591  15.974  0.00  0.00     0.090 H 
BRANCH  87  89
ATOM     89  C   TRP d   1      -0.407  -8.828  16.716  0.00  0.00     0.197 C 
ATOM     90  O   TRP d   1      -0.650  -9.275  15.595  0.00  0.00    -0.646 OA
ATOM     91  OXT TRP d   1      -1.160  -9.091  17.695  0.00  0.00    -0.646 OA
ENDBRANCH  87  89
BRANCH  87  92
ATOM     92  CB  TRP d   1       1.885  -8.635  17.706  0.00  0.00    -0.011 C 
ATOM     93  H   TRP d   1       1.845  -9.682  17.407  0.00  0.00     0.044 H 
ATOM     94  H   TRP d   1       1.710  -8.478  18.770  0.00  0.00     0.044 H 
BRANCH  92  95
ATOM     95  CG  TRP d   1       3.262  -8.132  17.398  0.00  0.00    -0.028 A 
ATOM     96  CD1 TRP d   1       3.587  -6.993  16.721  0.00  0.00    -0.015 A 
ATOM     97  NE1 TRP d   1       4.952  -6.866  16.635  0.00  0.00    -0.365 N 
ATOM     98  H   TRP d   1       2.868  -6.286  16.308  0.00  0.00     0.112 H 
ATOM     99  CE2 TRP d   1       5.538  -7.934  17.264  0.00  0.00     0.042 A 
ATOM    100  H   TRP d   1       5.449  -6.101  16.178  0.00  0.00     0.165 HD
ATOM    101  CD2 TRP d   1       4.503  -8.753  17.757  0.00  0.00    -0.002 A 
ATOM    102  CZ2 TRP d   1       6.884  -8.246  17.439  0.00  0.00    -0.056 A 
ATOM    103  CE3 TRP d   1       4.839  -9.922  18.447  0.00  0.00    -0.070 A 
ATOM    104  CZ3 TRP d   1       6.176 -10.230  18.620  0.00  0.00    -0.082 A 
ATOM    105  H   TRP d   1       4.062 -10.578  18.841  0.00  0.00     0.084 H 
ATOM    106  CH2 TRP d   1       7.182  -9.395  18.117  0.00  0.00    -0.081 A 
ATOM    107  H   TRP d   1       6.452 -11.138  19.157  0.00  0.00     0.083 H 
ATOM    108  H   TRP d   1       8.226  -9.668  18.270  0.00  0.00     0.083 H 
ATOM    109  H   TRP d   1       7.670  -7.599  17.050  0.00  0.00     0.086 H 
ENDBRANCH  92  95
ENDBRANCH  87  92
ENDBRANCH  85  87
ENDBRANCH  81  83
BRANCH  81 110
ATOM    110  CB  GLN d   1      -1.705  -4.809  18.793  0.00  0.00    -0.030 C 
ATOM    111  H   GLN d   1      -1.387  -5.605  19.466  0.00  0.00     0.037 H 
ATOM    112  H   GLN d   1      -2.521  -5.090  18.127  0.00  0.00     0.037 H 
BRANCH 110 113
ATOM    113  CG  GLN d   1      -2.204  -3.662  19.657  0.00  0.00     0.011 C 
ATOM    114  H   GLN d   1      -2.534  -2.862  18.995  0.00  0.00     0.047 H 
ATOM    115  H   GLN d   1      -1.388  -3.354  20.311  0.00  0.00     0.047 H 
BRANCH 113 116
ATOM    116  CD  GLN d   1      -3.378  -4.059  20.531  0.00  0.00     0.215 C 
ATOM    117  OE1 GLN d   1      -4.340  -3.306  20.677  0.00  0.00    -0.274 OA
ATOM    118  NE2 GLN d   1      -3.304  -5.248  21.117  0.00  0.00    -0.370 N 
ATOM    119  H   GLN d   1      -4.064  -5.569  21.716  0.00  0.00     0.159 HD
ATOM    120  H   GLN d   1      -2.487  -5.840  20.968  0.00  0.00     0.159 HD
ENDBRANCH 113 116
ENDBRANCH 110 113
ENDBRANCH  81 110
ENDBRANCH  79  81
ENDBRANCH  75  77
BRANCH  75 121
ATOM    121  CB  SER d   1      -0.852  -1.318  14.782  0.00  0.00     0.044 C 
ATOM    122  H   SER d   1      -0.070  -1.864  14.255  0.00  0.00     0.077 H 
ATOM    123  H   SER d   1      -1.012  -0.364  14.279  0.00  0.00     0.077 H 
BRANCH 121 124
ATOM    124  OG  SER d   1      -2.043  -2.066  14.778  0.00  0.00    -0.398 OA
ATOM    125  H   SER d   1      -2.317  -2.224  13.872  0.00  0.00     0.209 HD
ENDBRANCH 121 124
ENDBRANCH  75 121
ENDBRANCH  73  75
ENDBRANCH  69  71
BRANCH  69 126
ATOM    126  CB  THR d   1       2.454   1.771  18.298  0.00  0.00     0.060 C 
ATOM    127  H   THR d   1       3.132   2.619  18.393  0.00  0.00     0.086 H 
BRANCH 126 128
ATOM    128  OG1 THR d   1       3.133   0.564  17.973  0.00  0.00    -0.393 OA
ATOM    129  H   THR d   1       3.768   0.360  18.663  0.00  0.00     0.210 HD
ENDBRANCH 126 128
BRANCH 126 130
ATOM    130  CG2 THR d   1       1.759   1.561  19.595  0.00  0.00    -0.050 C 
ATOM    131  H   THR d   1       1.192   2.456  19.851  0.00  0.00     0.031 H 
ATOM    132  H   THR d   1       1.081   0.712  19.509  0.00  0.00     0.031 H 
ATOM    133  H   THR d   1       2.496   1.361  20.373  0.00  0.00     0.031 H 
ENDBRANCH 126 130
ENDBRANCH  69 126
ENDBRANCH  67  69
ENDBRANCH   1  65
BRANCH   1 134
ATOM    134  CB  GLN d   1       1.413   5.547  14.779  0.00  0.00    -0.030 C 
ATOM    135  H   GLN d   1       1.095   4.554  14.459  0.00  0.00     0.037 H 
ATOM    136  H   GLN d   1       2.479   5.758  14.692  0.00  0.00     0.037 H 
BRANCH 134 137
ATOM    137  CG  GLN d   1       0.720   6.516  13.886  0.00  0.00     0.011 C 
ATOM    138  H   GLN d   1      -0.293   6.648  14.265  0.00  0.00     0.047 H 
ATOM    139  H   GLN d   1       0.751   6.113  12.874  0.00  0.00     0.047 H 
BRANCH 137 140
ATOM    140  CD  GLN d   1       1.375   7.867  13.858  0.00  0.00     0.215 C 
ATOM    141  OE1 GLN d   1       2.104   8.236  14.770  0.00  0.00    -0.274 OA
ATOM    142  NE2 GLN d   1       1.133   8.614  12.795  0.00  0.00    -0.370 N 
ATOM    143  H   GLN d   1       1.560   9.537  12.712  0.00  0.00     0.159 HD
ATOM    144  H   GLN d   1       0.519   8.268  12.058  0.00  0.00     0.159 HD
ENDBRANCH 137 140
ENDBRANCH 134 137
ENDBRANCH   1 134
TORSDOF 37
