REMARK WARNING: 32 MAX_TORS EXCEEDED!!!
REMARK  37 active torsions:
REMARK  status: ('A' for Active; 'I' for Inactive)
REMARK    1  A    between atoms: N_1  and  CA_2 
REMARK    2  A    between atoms: CA_2  and  C_3 
REMARK    3  A    between atoms: CA_2  and  CB_5 
REMARK       I    between atoms: C_3  and  N_9 
REMARK    4  A    between atoms: CB_5  and  CG_6 
REMARK    5  A    between atoms: CG_6  and  SD_7 
REMARK    6  A    between atoms: SD_7  and  CE_8 
REMARK    7  A    between atoms: N_9  and  CA_10 
REMARK    8  A    between atoms: CA_10  and  C_11 
REMARK    9  A    between atoms: CA_10  and  CB_13 
REMARK       I    between atoms: C_11  and  N_20 
REMARK   10  A    between atoms: CB_13  and  CG_14 
REMARK   11  A    between atoms: CG_14  and  CD_15 
REMARK   12  A    between atoms: CD_15  and  NE_16 
REMARK       I    between atoms: NE_16  and  CZ_17 
REMARK       I    between atoms: CZ_17  and  NH1_18 
REMARK   13  A    between atoms: N_20  and  CA_21 
REMARK   14  A    between atoms: CA_21  and  C_22 
REMARK   15  A    between atoms: CA_21  and  CB_24 
REMARK       I    between atoms: C_22  and  N_30 
REMARK   16  A    between atoms: CB_24  and  CG_25 
REMARK   17  A    between atoms: N_30  and  CA_31 
REMARK   18  A    between atoms: CA_31  and  C_32 
REMARK   19  A    between atoms: CA_31  and  CB_34 
REMARK       I    between atoms: C_32  and  N_37 
REMARK   20  A    between atoms: CB_34  and  CG1_35 
REMARK   21  A    between atoms: CB_34  and  CG2_36 
REMARK   22  A    between atoms: N_37  and  CA_38 
REMARK   23  A    between atoms: CA_38  and  C_39 
REMARK   24  A    between atoms: CA_38  and  CB_41 
REMARK       I    between atoms: C_39  and  N_45 
REMARK   25  A    between atoms: CB_41  and  CG_42 
REMARK   26  A    between atoms: CG_42  and  CD1_43 
REMARK   27  A    between atoms: CG_42  and  CD2_44 
REMARK   28  A    between atoms: N_45  and  CA_46 
REMARK   29  A    between atoms: CA_46  and  C_47 
REMARK   30  A    between atoms: CA_46  and  CB_49 
REMARK       I    between atoms: C_47  and  N_54 
REMARK   31  A    between atoms: CB_49  and  CG_50 
REMARK   32  A    between atoms: CG_50  and  CD_51 
REMARK   33  A    between atoms: CA_55  and  C_56 
REMARK       I    between atoms: C_56  and  N_61 
REMARK   34  A    between atoms: N_61  and  CA_62 
REMARK   35  A    between atoms: CA_62  and  C_63 
REMARK   36  A    between atoms: CA_62  and  CB_65 
REMARK   37  A    between atoms: CB_65  and  CG_66 
ROOT
ATOM      1  CA  VAL d   1       5.800  21.709  -0.287  0.00  0.00     0.092 C 
ATOM      2  H   VAL d   1       5.812  21.364   0.747  0.00  0.00     0.088 H 
ENDROOT
BRANCH   1   3
ATOM      3  N   VAL d   1       6.544  20.736  -1.075  0.00  0.00    -0.346 N 
ATOM      4  C   HIS d   1       6.256  19.440  -1.029  0.00  0.00     0.241 C 
ATOM      5  O   HIS d   1       5.371  18.976  -0.311  0.00  0.00    -0.271 OA
ATOM      6  H   VAL d   1       7.303  21.057  -1.676  0.00  0.00     0.163 HD
BRANCH   4   7
ATOM      7  CA  HIS d   1       7.091  18.529  -1.920  0.00  0.00     0.094 C 
ATOM      8  H   HIS d   1       8.001  19.054  -2.212  0.00  0.00     0.088 H 
BRANCH   7   9
ATOM      9  N   HIS d   1       7.471  17.324  -1.196  0.00  0.00    -0.346 N 
ATOM     10  C   ARG d   1       8.698  17.138  -0.721  0.00  0.00     0.241 C 
ATOM     11  O   ARG d   1       9.622  17.926  -0.918  0.00  0.00    -0.271 OA
ATOM     12  H   HIS d   1       6.771  16.597  -1.048  0.00  0.00     0.163 HD
BRANCH  10  13
ATOM     13  CA  ARG d   1       8.908  15.869   0.099  0.00  0.00     0.089 C 
ATOM     14  H   ARG d   1       8.462  15.042  -0.454  0.00  0.00     0.087 H 
BRANCH  13  15
ATOM     15  N   ARG d   1      10.321  15.553   0.278  0.00  0.00    -0.346 N 
ATOM     16  C   MET d   1      11.029  14.940  -0.665  0.00  0.00     0.249 C 
ATOM     17  O   MET d   1      10.566  14.645  -1.767  0.00  0.00    -0.271 OA
ATOM     18  H   ARG d   1      10.779  15.810   1.152  0.00  0.00     0.163 HD
BRANCH  16  19
ATOM     19  CA  MET d   1      12.477  14.612  -0.313  0.00  0.00     0.176 C 
ATOM     20  H   MET d   1      12.576  14.627   0.772  0.00  0.00     0.099 H 
BRANCH  19  21
ATOM     21  N   MET d   1      12.839  13.280  -0.780  0.00  0.00    -0.066 N 
ATOM     22  H   MET d   1      12.202  12.594  -0.374  0.00  0.00     0.275 HD
ATOM     23  H   MET d   1      12.772  13.248  -1.797  0.00  0.00     0.275 HD
ATOM     24  H   MET d   1      13.795  13.069  -0.494  0.00  0.00     0.275 HD
ENDBRANCH  19  21
BRANCH  19  25
ATOM     25  CB  MET d   1      13.417  15.662  -0.907  0.00  0.00    -0.022 C 
ATOM     26  H   MET d   1      13.238  15.683  -1.982  0.00  0.00     0.037 H 
ATOM     27  H   MET d   1      14.432  15.379  -0.629  0.00  0.00     0.037 H 
BRANCH  25  28
ATOM     28  CG  MET d   1      13.186  17.070  -0.386  0.00  0.00    -0.021 C 
ATOM     29  H   MET d   1      12.165  17.358  -0.639  0.00  0.00     0.049 H 
ATOM     30  H   MET d   1      13.931  17.722  -0.841  0.00  0.00     0.049 H 
BRANCH  28  31
ATOM     31  SD  MET d   1      13.367  17.187   1.404  0.00  0.00    -0.173 SA
BRANCH  31  32
ATOM     32  CE  MET d   1      15.048  16.606   1.615  0.00  0.00    -0.035 C 
ATOM     33  H   MET d   1      15.130  15.588   1.234  0.00  0.00     0.041 H 
ATOM     34  H   MET d   1      15.728  17.257   1.065  0.00  0.00     0.041 H 
ATOM     35  H   MET d   1      15.306  16.621   2.674  0.00  0.00     0.041 H 
ENDBRANCH  31  32
ENDBRANCH  28  31
ENDBRANCH  25  28
ENDBRANCH  19  25
ENDBRANCH  16  19
ENDBRANCH  13  15
BRANCH  13  36
ATOM     36  CB  ARG d   1       8.222  16.013   1.460  0.00  0.00    -0.036 C 
ATOM     37  H   ARG d   1       7.178  16.259   1.268  0.00  0.00     0.036 H 
ATOM     38  H   ARG d   1       8.768  16.776   2.015  0.00  0.00     0.036 H 
BRANCH  36  39
ATOM     39  CG  ARG d   1       8.236  14.750   2.303  0.00  0.00    -0.048 C 
ATOM     40  H   ARG d   1       9.259  14.377   2.354  0.00  0.00     0.035 H 
ATOM     41  H   ARG d   1       7.572  14.017   1.844  0.00  0.00     0.035 H 
BRANCH  39  42
ATOM     42  CD  ARG d   1       7.749  15.028   3.716  0.00  0.00     0.009 C 
ATOM     43  H   ARG d   1       6.758  15.477   3.652  0.00  0.00     0.064 H 
ATOM     44  H   ARG d   1       8.469  15.689   4.199  0.00  0.00     0.064 H 
BRANCH  42  45
ATOM     45  NE  ARG d   1       7.645  13.808   4.512  0.00  0.00    -0.227 N 
ATOM     46  CZ  ARG d   1       6.522  13.117   4.673  0.00  0.00     0.665 C 
ATOM     47  NH1 ARG d   1       5.402  13.528   4.095  0.00  0.00    -0.235 N 
ATOM     48  NH2 ARG d   1       6.515  12.017   5.415  0.00  0.00    -0.235 N 
ATOM     49  H   ARG d   1       5.402  14.375   3.527  0.00  0.00     0.174 HD
ATOM     50  H   ARG d   1       4.540  12.997   4.219  0.00  0.00     0.174 HD
ATOM     51  H   ARG d   1       7.374  11.699   5.864  0.00  0.00     0.174 HD
ATOM     52  H   ARG d   1       5.651  11.489   5.536  0.00  0.00     0.174 HD
ATOM     53  H   ARG d   1       8.488  13.465   4.973  0.00  0.00     0.177 HD
ENDBRANCH  42  45
ENDBRANCH  39  42
ENDBRANCH  36  39
ENDBRANCH  13  36
ENDBRANCH  10  13
ENDBRANCH   7   9
BRANCH   7  54
ATOM     54  CB  HIS d   1       6.301  18.171  -3.180  0.00  0.00     0.004 C 
ATOM     55  H   HIS d   1       5.626  17.356  -2.920  0.00  0.00     0.046 H 
ATOM     56  H   HIS d   1       7.023  17.913  -3.954  0.00  0.00     0.046 H 
BRANCH  54  57
ATOM     57  CG  HIS d   1       5.463  19.295  -3.707  0.00  0.00     0.053 A 
ATOM     58  ND1 HIS d   1       6.006  20.455  -4.216  0.00  0.00    -0.247 NA
ATOM     59  CE1 HIS d   1       5.034  21.262  -4.602  0.00  0.00     0.064 A 
ATOM     60  NE2 HIS d   1       3.879  20.667  -4.361  0.00  0.00    -0.359 N 
ATOM     61  H   HIS d   1       5.163  22.250  -5.044  0.00  0.00     0.143 H 
ATOM     62  CD2 HIS d   1       4.120  19.436  -3.800  0.00  0.00     0.002 A 
ATOM     63  H   HIS d   1       2.958  21.058  -4.559  0.00  0.00     0.166 HD
ATOM     64  H   HIS d   1       3.370  18.709  -3.488  0.00  0.00     0.114 H 
ENDBRANCH  54  57
ENDBRANCH   7  54
ENDBRANCH   4   7
ENDBRANCH   1   3
BRANCH   1  65
ATOM     65  C   VAL d   1       4.359  21.806  -0.776  0.00  0.00     0.241 C 
ATOM     66  O   VAL d   1       4.077  22.453  -1.784  0.00  0.00    -0.271 OA
ATOM     67  N   LEU d   1       3.450  21.155  -0.057  0.00  0.00    -0.346 N 
ATOM     68  H   LEU d   1       3.746  20.656   0.782  0.00  0.00     0.163 HD
BRANCH  67  69
ATOM     69  CA  LEU d   1       2.041  21.135  -0.434  0.00  0.00     0.089 C 
ATOM     70  H   LEU d   1       1.989  20.842  -1.483  0.00  0.00     0.087 H 
BRANCH  69  71
ATOM     71  C   LEU d   1       1.401  22.512  -0.297  0.00  0.00     0.241 C 
ATOM     72  O   LEU d   1       1.892  23.365   0.441  0.00  0.00    -0.271 OA
ATOM     73  N   GLU d   1       0.301  22.719  -1.014  0.00  0.00    -0.346 N 
ATOM     74  H   GLU d   1      -0.047  21.974  -1.617  0.00  0.00     0.163 HD
BRANCH  73  75
ATOM     75  CA  GLU d   1      -0.420  23.985  -0.960  0.00  0.00     0.090 C 
ATOM     76  H   GLU d   1      -0.049  24.552  -0.106  0.00  0.00     0.087 H 
BRANCH  75  77
ATOM     77  C   GLU d   1      -1.917  23.760  -0.744  0.00  0.00     0.243 C 
ATOM     78  O   GLU d   1      -2.480  22.785  -1.237  0.00  0.00    -0.271 OA
ATOM     79  N   PRO d   1      -2.563  24.669   0.002  0.00  0.00    -0.337 N 
ATOM     80  CA  PRO d   1      -3.960  24.530   0.439  0.00  0.00     0.091 C 
ATOM     81  CD  PRO d   1      -1.953  25.914   0.498  0.00  0.00    -0.001 C 
ATOM     82  CB  PRO d   1      -4.198  25.806   1.258  0.00  0.00    -0.036 C 
ATOM     83  H   PRO d   1      -4.107  23.598   0.986  0.00  0.00     0.087 H 
ATOM     84  CG  PRO d   1      -2.833  26.282   1.645  0.00  0.00    -0.048 C 
ATOM     85  H   PRO d   1      -4.820  25.613   2.132  0.00  0.00     0.036 H 
ATOM     86  H   PRO d   1      -4.739  26.558   0.684  0.00  0.00     0.036 H 
ATOM     87  H   PRO d   1      -2.495  25.824   2.575  0.00  0.00     0.035 H 
ATOM     88  H   PRO d   1      -2.819  27.355   1.835  0.00  0.00     0.035 H 
ATOM     89  H   PRO d   1      -1.902  26.693  -0.263  0.00  0.00     0.064 H 
ATOM     90  H   PRO d   1      -0.910  25.788   0.788  0.00  0.00     0.064 H 
BRANCH  80  91
ATOM     91  C   PRO d   1      -4.964  24.461  -0.713  0.00  0.00     0.241 C 
ATOM     92  O   PRO d   1      -4.655  24.883  -1.826  0.00  0.00    -0.271 OA
ATOM     93  N   PHE d   1      -6.152  23.927  -0.435  0.00  0.00    -0.344 N 
ATOM     94  H   PHE d   1      -6.304  23.518   0.487  0.00  0.00     0.163 HD
BRANCH  93  95
ATOM     95  CA  PHE d   1      -7.246  23.906  -1.404  0.00  0.00     0.100 C 
ATOM     96  H   PHE d   1      -6.825  23.609  -2.364  0.00  0.00     0.090 H 
BRANCH  95  97
ATOM     97  C   PHE d   1      -7.886  25.285  -1.503  0.00  0.00     0.197 C 
ATOM     98  O   PHE d   1      -8.706  25.541  -2.383  0.00  0.00    -0.646 OA
ATOM     99  OXT PHE d   1      -7.628  26.169  -0.686  0.00  0.00    -0.646 OA
ENDBRANCH  95  97
BRANCH  95 100
ATOM    100  CB  PHE d   1      -8.332  22.910  -0.990  0.00  0.00    -0.013 C 
ATOM    101  H   PHE d   1      -9.151  23.017  -1.701  0.00  0.00     0.043 H 
ATOM    102  H   PHE d   1      -8.597  23.138   0.043  0.00  0.00     0.043 H 
BRANCH 100 103
ATOM    103  CG  PHE d   1      -7.903  21.467  -1.027  0.00  0.00    -0.056 A 
ATOM    104  CD1 PHE d   1      -6.824  21.052  -1.792  0.00  0.00    -0.077 A 
ATOM    105  CE1 PHE d   1      -6.448  19.718  -1.813  0.00  0.00    -0.082 A 
ATOM    106  H   PHE d   1      -6.267  21.780  -2.381  0.00  0.00     0.084 H 
ATOM    107  CZ  PHE d   1      -7.154  18.789  -1.069  0.00  0.00    -0.083 A 
ATOM    108  H   PHE d   1      -5.597  19.401  -2.415  0.00  0.00     0.083 H 
ATOM    109  CE2 PHE d   1      -8.231  19.194  -0.308  0.00  0.00    -0.082 A 
ATOM    110  H   PHE d   1      -6.860  17.740  -1.084  0.00  0.00     0.083 H 
ATOM    111  CD2 PHE d   1      -8.599  20.522  -0.292  0.00  0.00    -0.077 A 
ATOM    112  H   PHE d   1      -8.790  18.465   0.279  0.00  0.00     0.083 H 
ATOM    113  H   PHE d   1      -9.453  20.834   0.310  0.00  0.00     0.084 H 
ENDBRANCH 100 103
ENDBRANCH  95 100
ENDBRANCH  93  95
ENDBRANCH  80  91
ENDBRANCH  75  77
BRANCH  75 114
ATOM    114  CB  GLU d   1      -0.160  24.804  -2.227  0.00  0.00    -0.029 C 
ATOM    115  H   GLU d   1      -0.742  25.723  -2.150  0.00  0.00     0.037 H 
ATOM    116  H   GLU d   1      -0.439  24.186  -3.081  0.00  0.00     0.037 H 
BRANCH 114 117
ATOM    117  CG  GLU d   1       1.301  25.198  -2.402  0.00  0.00     0.018 C 
ATOM    118  H   GLU d   1       1.875  24.285  -2.557  0.00  0.00     0.049 H 
ATOM    119  H   GLU d   1       1.607  25.746  -1.511  0.00  0.00     0.049 H 
BRANCH 117 120
ATOM    120  CD  GLU d   1       1.531  26.098  -3.600  0.00  0.00     0.172 C 
ATOM    121  OE1 GLU d   1       0.538  26.580  -4.185  0.00  0.00    -0.648 OA
ATOM    122  OE2 GLU d   1       2.707  26.323  -3.956  0.00  0.00    -0.648 OA
ENDBRANCH 117 120
ENDBRANCH 114 117
ENDBRANCH  75 114
ENDBRANCH  73  75
ENDBRANCH  69  71
BRANCH  69 123
ATOM    123  CB  LEU d   1       1.274  20.118   0.413  0.00  0.00    -0.035 C 
ATOM    124  H   LEU d   1       0.237  20.168   0.082  0.00  0.00     0.037 H 
ATOM    125  H   LEU d   1       1.463  20.385   1.453  0.00  0.00     0.037 H 
BRANCH 123 126
ATOM    126  CG  LEU d   1       1.697  18.656   0.266  0.00  0.00    -0.059 C 
ATOM    127  H   LEU d   1       2.755  18.575   0.515  0.00  0.00     0.038 H 
BRANCH 126 128
ATOM    128  CD1 LEU d   1       0.913  17.778   1.228  0.00  0.00    -0.073 C 
ATOM    129  H   LEU d   1       1.103  18.102   2.251  0.00  0.00     0.028 H 
ATOM    130  H   LEU d   1      -0.152  17.864   1.011  0.00  0.00     0.028 H 
ATOM    131  H   LEU d   1       1.227  16.741   1.110  0.00  0.00     0.028 H 
ENDBRANCH 126 128
BRANCH 126 132
ATOM    132  CD2 LEU d   1       1.514  18.186  -1.169  0.00  0.00    -0.073 C 
ATOM    133  H   LEU d   1       0.465  18.280  -1.450  0.00  0.00     0.028 H 
ATOM    134  H   LEU d   1       2.125  18.799  -1.831  0.00  0.00     0.028 H 
ATOM    135  H   LEU d   1       1.821  17.143  -1.250  0.00  0.00     0.028 H 
ENDBRANCH 126 132
ENDBRANCH 123 126
ENDBRANCH  69 123
ENDBRANCH  67  69
ENDBRANCH   1  65
BRANCH   1 136
ATOM    136  CB  VAL d   1       6.452  23.102  -0.346  0.00  0.00    -0.033 C 
ATOM    137  H   VAL d   1       6.438  23.451  -1.379  0.00  0.00     0.042 H 
BRANCH 136 138
ATOM    138  CG1 VAL d   1       5.668  24.090   0.502  0.00  0.00    -0.071 C 
ATOM    139  H   VAL d   1       4.647  24.159   0.127  0.00  0.00     0.028 H 
ATOM    140  H   VAL d   1       5.654  23.747   1.537  0.00  0.00     0.028 H 
ATOM    141  H   VAL d   1       6.143  25.070   0.449  0.00  0.00     0.028 H 
ENDBRANCH 136 138
BRANCH 136 142
ATOM    142  CG2 VAL d   1       7.900  23.027   0.116  0.00  0.00    -0.071 C 
ATOM    143  H   VAL d   1       7.934  22.660   1.142  0.00  0.00     0.028 H 
ATOM    144  H   VAL d   1       8.452  22.347  -0.533  0.00  0.00     0.028 H 
ATOM    145  H   VAL d   1       8.347  24.020   0.069  0.00  0.00     0.028 H 
ENDBRANCH 136 142
ENDBRANCH   1 136
TORSDOF 37
