REMARK WARNING: 32 MAX_TORS EXCEEDED!!!
REMARK  42 active torsions:
REMARK  status: ('A' for Active; 'I' for Inactive)
REMARK    1  A    between atoms: N_1  and  CA_2 
REMARK    2  A    between atoms: CA_2  and  C_3 
REMARK       I    between atoms: C_3  and  N_5 
REMARK    3  A    between atoms: N_5  and  CA_6 
REMARK    4  A    between atoms: CA_6  and  C_7 
REMARK    5  A    between atoms: CA_6  and  CB_9 
REMARK       I    between atoms: C_7  and  N_11 
REMARK    6  A    between atoms: CB_9  and  OG_10 
REMARK    7  A    between atoms: N_11  and  CA_12 
REMARK    8  A    between atoms: CA_12  and  C_13 
REMARK    9  A    between atoms: CA_12  and  CB_15 
REMARK       I    between atoms: C_13  and  N_21 
REMARK   10  A    between atoms: CB_15  and  CG_16 
REMARK   11  A    between atoms: N_21  and  CA_22 
REMARK   12  A    between atoms: CA_22  and  C_23 
REMARK   13  A    between atoms: CA_22  and  CB_25 
REMARK       I    between atoms: C_23  and  N_29 
REMARK   14  A    between atoms: CB_25  and  CG_26 
REMARK   15  A    between atoms: CG_26  and  CD1_27 
REMARK   16  A    between atoms: CG_26  and  CD2_28 
REMARK   17  A    between atoms: N_29  and  CA_30 
REMARK   18  A    between atoms: CA_30  and  C_31 
REMARK   19  A    between atoms: CA_30  and  CB_33 
REMARK       I    between atoms: C_31  and  N_38 
REMARK   20  A    between atoms: CB_33  and  CG_34 
REMARK   21  A    between atoms: CG_34  and  CD_35 
REMARK   22  A    between atoms: N_38  and  CA_39 
REMARK   23  A    between atoms: CA_39  and  C_40 
REMARK   24  A    between atoms: CA_39  and  CB_42 
REMARK       I    between atoms: C_40  and  N_45 
REMARK   25  A    between atoms: CB_42  and  CG1_43 
REMARK   26  A    between atoms: CB_42  and  CG2_44 
REMARK   27  A    between atoms: N_45  and  CA_46 
REMARK   28  A    between atoms: CA_46  and  C_47 
REMARK   29  A    between atoms: CA_46  and  CB_49 
REMARK       I    between atoms: C_47  and  N_54 
REMARK   30  A    between atoms: CB_49  and  CG_50 
REMARK   31  A    between atoms: CG_50  and  CD_51 
REMARK       I    between atoms: CD_51  and  NE2_53 
REMARK   32  A    between atoms: N_54  and  CA_55 
REMARK   33  A    between atoms: CA_55  and  C_56 
REMARK       I    between atoms: C_56  and  N_58 
REMARK   34  A    between atoms: N_58  and  CA_59 
REMARK   35  A    between atoms: CA_59  and  C_60 
REMARK   36  A    between atoms: CA_59  and  CB_62 
REMARK       I    between atoms: C_60  and  N_70 
REMARK   37  A    between atoms: CB_62  and  CG_63 
REMARK   38  A    between atoms: CZ_68  and  OH_69 
REMARK   39  A    between atoms: N_70  and  CA_71 
REMARK   40  A    between atoms: CA_71  and  C_72 
REMARK   41  A    between atoms: CA_71  and  CB_74 
REMARK   42  A    between atoms: CB_74  and  CG_75 
ROOT
ATOM      1  CA  VAL d   1     -28.520   4.982 -23.806  0.00  0.00     0.092 C 
ATOM      2  H   VAL d   1     -29.555   5.128 -23.496  0.00  0.00     0.088 H 
ENDROOT
BRANCH   1   3
ATOM      3  N   VAL d   1     -27.779   6.162 -23.374  0.00  0.00    -0.346 N 
ATOM      4  C   GLU d   1     -27.859   6.620 -22.130  0.00  0.00     0.241 C 
ATOM      5  O   GLU d   1     -28.556   6.091 -21.264  0.00  0.00    -0.271 OA
ATOM      6  H   VAL d   1     -27.184   6.648 -24.045  0.00  0.00     0.163 HD
BRANCH   4   7
ATOM      7  CA  GLU d   1     -27.030   7.860 -21.814  0.00  0.00     0.090 C 
ATOM      8  H   GLU d   1     -26.850   7.885 -20.739  0.00  0.00     0.087 H 
BRANCH   7   9
ATOM      9  N   GLU d   1     -25.735   7.812 -22.483  0.00  0.00    -0.346 N 
ATOM     10  C   LEU d   1     -24.738   7.065 -22.021  0.00  0.00     0.241 C 
ATOM     11  O   LEU d   1     -24.833   6.372 -21.008  0.00  0.00    -0.271 OA
ATOM     12  H   GLU d   1     -25.591   8.366 -23.327  0.00  0.00     0.163 HD
BRANCH  10  13
ATOM     13  CA  LEU d   1     -23.439   7.107 -22.819  0.00  0.00     0.089 C 
ATOM     14  H   LEU d   1     -23.554   7.839 -23.618  0.00  0.00     0.087 H 
BRANCH  13  15
ATOM     15  N   LEU d   1     -22.320   7.531 -21.986  0.00  0.00    -0.346 N 
ATOM     16  C   HIS d   1     -22.329   8.694 -21.344  0.00  0.00     0.241 C 
ATOM     17  O   HIS d   1     -23.270   9.486 -21.404  0.00  0.00    -0.271 OA
ATOM     18  H   LEU d   1     -21.509   6.919 -21.894  0.00  0.00     0.163 HD
BRANCH  16  19
ATOM     19  CA  HIS d   1     -21.092   9.012 -20.510  0.00  0.00     0.094 C 
ATOM     20  H   HIS d   1     -20.312   8.296 -20.770  0.00  0.00     0.088 H 
BRANCH  19  21
ATOM     21  N   HIS d   1     -20.587  10.348 -20.804  0.00  0.00    -0.346 N 
ATOM     22  C   SER d   1     -20.172  10.686 -22.020  0.00  0.00     0.243 C 
ATOM     23  O   SER d   1     -20.186   9.908 -22.974  0.00  0.00    -0.271 OA
ATOM     24  H   HIS d   1     -20.551  11.041 -20.056  0.00  0.00     0.163 HD
BRANCH  22  25
ATOM     25  CA  SER d   1     -19.666  12.115 -22.185  0.00  0.00     0.109 C 
ATOM     26  H   SER d   1     -19.970  12.472 -23.169  0.00  0.00     0.090 H 
BRANCH  25  27
ATOM     27  N   SER d   1     -20.255  13.002 -21.188  0.00  0.00    -0.344 N 
ATOM     28  C   GLY d   1     -21.420  13.607 -21.393  0.00  0.00     0.243 C 
ATOM     29  O   GLY d   1     -22.080  13.467 -22.425  0.00  0.00    -0.272 OA
ATOM     30  H   SER d   1     -19.760  13.162 -20.311  0.00  0.00     0.163 HD
BRANCH  28  31
ATOM     31  CA  GLY d   1     -21.919  14.500 -20.278  0.00  0.00     0.152 C 
ATOM     32  H   GLY d   1     -22.090  13.882 -19.397  0.00  0.00     0.090 H 
ATOM     33  H   GLY d   1     -21.169  15.270 -20.096  0.00  0.00     0.090 H 
BRANCH  31  34
ATOM     34  N   GLY d   1     -23.168  15.154 -20.624  0.00  0.00    -0.071 N 
ATOM     35  H   GLY d   1     -23.468  15.744 -19.848  0.00  0.00     0.274 HD
ATOM     36  H   GLY d   1     -23.031  15.728 -21.456  0.00  0.00     0.274 HD
ATOM     37  H   GLY d   1     -23.880  14.448 -20.811  0.00  0.00     0.274 HD
ENDBRANCH  31  34
ENDBRANCH  28  31
ENDBRANCH  25  27
BRANCH  25  38
ATOM     38  CB  SER d   1     -18.139  12.146 -22.095  0.00  0.00     0.044 C 
ATOM     39  H   SER d   1     -17.761  12.864 -22.823  0.00  0.00     0.077 H 
ATOM     40  H   SER d   1     -17.757  11.145 -22.297  0.00  0.00     0.077 H 
BRANCH  38  41
ATOM     41  OG  SER d   1     -17.713  12.542 -20.803  0.00  0.00    -0.398 OA
ATOM     42  H   SER d   1     -18.047  11.920 -20.152  0.00  0.00     0.209 HD
ENDBRANCH  38  41
ENDBRANCH  25  38
ENDBRANCH  22  25
ENDBRANCH  19  21
BRANCH  19  43
ATOM     43  CB  HIS d   1     -21.413   8.876 -19.021  0.00  0.00     0.004 C 
ATOM     44  H   HIS d   1     -22.204   8.132 -18.925  0.00  0.00     0.046 H 
ATOM     45  H   HIS d   1     -21.692   9.865 -18.657  0.00  0.00     0.046 H 
BRANCH  43  46
ATOM     46  CG  HIS d   1     -20.256   8.406 -18.194  0.00  0.00     0.053 A 
ATOM     47  ND1 HIS d   1     -19.889   7.080 -18.113  0.00  0.00    -0.247 NA
ATOM     48  CE1 HIS d   1     -18.841   6.963 -17.317  0.00  0.00     0.064 A 
ATOM     49  NE2 HIS d   1     -18.515   8.166 -16.879  0.00  0.00    -0.359 N 
ATOM     50  H   HIS d   1     -18.332   6.033 -17.065  0.00  0.00     0.143 H 
ATOM     51  CD2 HIS d   1     -19.384   9.086 -17.413  0.00  0.00     0.002 A 
ATOM     52  H   HIS d   1     -17.743   8.377 -16.247  0.00  0.00     0.166 HD
ATOM     53  H   HIS d   1     -19.373  10.162 -17.240  0.00  0.00     0.114 H 
ENDBRANCH  43  46
ENDBRANCH  19  43
ENDBRANCH  16  19
ENDBRANCH  13  15
BRANCH  13  54
ATOM     54  CB  LEU d   1     -23.158   5.735 -23.437  0.00  0.00    -0.035 C 
ATOM     55  H   LEU d   1     -22.995   5.054 -22.602  0.00  0.00     0.037 H 
ATOM     56  H   LEU d   1     -22.318   5.875 -24.117  0.00  0.00     0.037 H 
BRANCH  54  57
ATOM     57  CG  LEU d   1     -24.285   5.124 -24.272  0.00  0.00    -0.059 C 
ATOM     58  H   LEU d   1     -25.186   5.095 -23.660  0.00  0.00     0.038 H 
BRANCH  57  59
ATOM     59  CD1 LEU d   1     -24.573   5.979 -25.496  0.00  0.00    -0.073 C 
ATOM     60  H   LEU d   1     -24.872   6.978 -25.178  0.00  0.00     0.028 H 
ATOM     61  H   LEU d   1     -23.675   6.045 -26.111  0.00  0.00     0.028 H 
ATOM     62  H   LEU d   1     -25.378   5.524 -26.074  0.00  0.00     0.028 H 
ENDBRANCH  57  59
BRANCH  57  63
ATOM     63  CD2 LEU d   1     -23.941   3.698 -24.677  0.00  0.00    -0.073 C 
ATOM     64  H   LEU d   1     -23.025   3.700 -25.268  0.00  0.00     0.028 H 
ATOM     65  H   LEU d   1     -23.796   3.092 -23.782  0.00  0.00     0.028 H 
ATOM     66  H   LEU d   1     -24.756   3.283 -25.270  0.00  0.00     0.028 H 
ENDBRANCH  57  63
ENDBRANCH  54  57
ENDBRANCH  13  54
ENDBRANCH  10  13
ENDBRANCH   7   9
BRANCH   7  67
ATOM     67  CB  GLU d   1     -27.795   9.122 -22.219  0.00  0.00    -0.029 C 
ATOM     68  H   GLU d   1     -27.771   9.179 -23.307  0.00  0.00     0.037 H 
ATOM     69  H   GLU d   1     -27.316   9.964 -21.719  0.00  0.00     0.037 H 
BRANCH  67  70
ATOM     70  CG  GLU d   1     -29.256   9.122 -21.801  0.00  0.00     0.018 C 
ATOM     71  H   GLU d   1     -29.663   8.132 -22.006  0.00  0.00     0.049 H 
ATOM     72  H   GLU d   1     -29.764   9.909 -22.359  0.00  0.00     0.049 H 
BRANCH  70  73
ATOM     73  CD  GLU d   1     -29.440   9.405 -20.323  0.00  0.00     0.172 C 
ATOM     74  OE1 GLU d   1     -28.424   9.595 -19.623  0.00  0.00    -0.648 OA
ATOM     75  OE2 GLU d   1     -30.600   9.437 -19.862  0.00  0.00    -0.648 OA
ENDBRANCH  70  73
ENDBRANCH  67  70
ENDBRANCH   7  67
ENDBRANCH   4   7
ENDBRANCH   1   3
BRANCH   1  76
ATOM     76  C   VAL d   1     -27.971   3.719 -23.151  0.00  0.00     0.241 C 
ATOM     77  O   VAL d   1     -26.761   3.492 -23.133  0.00  0.00    -0.271 OA
ATOM     78  N   GLN d   1     -28.869   2.899 -22.615  0.00  0.00    -0.346 N 
ATOM     79  H   GLN d   1     -29.858   3.143 -22.666  0.00  0.00     0.163 HD
BRANCH  78  80
ATOM     80  CA  GLN d   1     -28.477   1.659 -21.956  0.00  0.00     0.090 C 
ATOM     81  H   GLN d   1     -27.399   1.694 -21.796  0.00  0.00     0.087 H 
BRANCH  80  82
ATOM     82  C   GLN d   1     -28.789   0.447 -22.828  0.00  0.00     0.240 C 
ATOM     83  O   GLN d   1     -29.932   0.240 -23.235  0.00  0.00    -0.271 OA
ATOM     84  N   GLY d   1     -27.765  -0.352 -23.110  0.00  0.00    -0.351 N 
ATOM     85  H   GLY d   1     -26.841  -0.123 -22.743  0.00  0.00     0.163 HD
BRANCH  84  86
ATOM     86  CA  GLY d   1     -27.927  -1.541 -23.926  0.00  0.00     0.069 C 
ATOM     87  H   GLY d   1     -27.048  -1.635 -24.563  0.00  0.00     0.078 H 
ATOM     88  H   GLY d   1     -28.847  -1.433 -24.501  0.00  0.00     0.078 H 
BRANCH  86  89
ATOM     89  C   GLY d   1     -28.040  -2.802 -23.092  0.00  0.00     0.236 C 
ATOM     90  O   GLY d   1     -27.037  -3.340 -22.623  0.00  0.00    -0.272 OA
ATOM     91  N   TYR d   1     -29.268  -3.275 -22.907  0.00  0.00    -0.346 N 
ATOM     92  H   TYR d   1     -30.058  -2.784 -23.326  0.00  0.00     0.163 HD
BRANCH  91  93
ATOM     93  CA  TYR d   1     -29.515  -4.476 -22.122  0.00  0.00     0.093 C 
ATOM     94  H   TYR d   1     -28.766  -4.506 -21.330  0.00  0.00     0.088 H 
BRANCH  93  95
ATOM     95  C   TYR d   1     -29.374  -5.727 -22.978  0.00  0.00     0.241 C 
ATOM     96  O   TYR d   1     -29.876  -5.787 -24.103  0.00  0.00    -0.271 OA
ATOM     97  N   TRP d   1     -28.695  -6.730 -22.434  0.00  0.00    -0.344 N 
ATOM     98  H   TRP d   1     -28.289  -6.612 -21.506  0.00  0.00     0.163 HD
BRANCH  97  99
ATOM     99  CA  TRP d   1     -28.517  -7.993 -23.132  0.00  0.00     0.100 C 
ATOM    100  H   TRP d   1     -28.201  -7.776 -24.152  0.00  0.00     0.090 H 
BRANCH  99 101
ATOM    101  C   TRP d   1     -29.823  -8.772 -23.194  0.00  0.00     0.197 C 
ATOM    102  O   TRP d   1     -30.706  -8.588 -22.356  0.00  0.00    -0.646 OA
ATOM    103  OXT TRP d   1     -30.018  -9.603 -24.079  0.00  0.00    -0.646 OA
ENDBRANCH  99 101
BRANCH  99 104
ATOM    104  CB  TRP d   1     -27.443  -8.828 -22.440  0.00  0.00    -0.011 C 
ATOM    105  H   TRP d   1     -27.464  -9.826 -22.879  0.00  0.00     0.044 H 
ATOM    106  H   TRP d   1     -27.660  -8.829 -21.372  0.00  0.00     0.044 H 
BRANCH 104 107
ATOM    107  CG  TRP d   1     -26.071  -8.279 -22.625  0.00  0.00    -0.028 A 
ATOM    108  CD1 TRP d   1     -25.727  -7.121 -23.273  0.00  0.00    -0.015 A 
ATOM    109  NE1 TRP d   1     -24.366  -6.952 -23.244  0.00  0.00    -0.365 N 
ATOM    110  H   TRP d   1     -26.432  -6.435 -23.743  0.00  0.00     0.112 H 
ATOM    111  CE2 TRP d   1     -23.802  -8.007 -22.572  0.00  0.00     0.042 A 
ATOM    112  H   TRP d   1     -23.856  -6.170 -23.655  0.00  0.00     0.165 HD
ATOM    113  CD2 TRP d   1     -24.849  -8.861 -22.168  0.00  0.00    -0.002 A 
ATOM    114  CZ2 TRP d   1     -22.464  -8.280 -22.288  0.00  0.00    -0.056 A 
ATOM    115  CE3 TRP d   1     -24.534 -10.026 -21.462  0.00  0.00    -0.070 A 
ATOM    116  CZ3 TRP d   1     -23.207 -10.296 -21.181  0.00  0.00    -0.082 A 
ATOM    117  H   TRP d   1     -25.320 -10.709 -21.139  0.00  0.00     0.084 H 
ATOM    118  CH2 TRP d   1     -22.186  -9.427 -21.597  0.00  0.00    -0.081 A 
ATOM    119  H   TRP d   1     -22.950 -11.199 -20.627  0.00  0.00     0.083 H 
ATOM    120  H   TRP d   1     -21.150  -9.672 -21.364  0.00  0.00     0.083 H 
ATOM    121  H   TRP d   1     -21.670  -7.604 -22.605  0.00  0.00     0.086 H 
ENDBRANCH 104 107
ENDBRANCH  99 104
ENDBRANCH  97  99
ENDBRANCH  93  95
BRANCH  93 122
ATOM    122  CB  TYR d   1     -30.903  -4.441 -21.481  0.00  0.00    -0.014 C 
ATOM    123  H   TYR d   1     -31.012  -5.358 -20.902  0.00  0.00     0.043 H 
ATOM    124  H   TYR d   1     -31.627  -4.332 -22.289  0.00  0.00     0.043 H 
BRANCH 122 125
ATOM    125  CG  TYR d   1     -31.120  -3.286 -20.530  0.00  0.00    -0.056 A 
ATOM    126  CD1 TYR d   1     -30.750  -3.380 -19.196  0.00  0.00    -0.074 A 
ATOM    127  CE1 TYR d   1     -30.952  -2.326 -18.324  0.00  0.00    -0.051 A 
ATOM    128  H   TYR d   1     -30.293  -4.299 -18.830  0.00  0.00     0.084 H 
ATOM    129  CZ  TYR d   1     -31.533  -1.162 -18.784  0.00  0.00     0.065 A 
ATOM    130  H   TYR d   1     -30.654  -2.414 -17.279  0.00  0.00     0.087 H 
ATOM    131  CE2 TYR d   1     -31.912  -1.048 -20.103  0.00  0.00    -0.051 A 
ATOM    132  CD2 TYR d   1     -31.707  -2.106 -20.966  0.00  0.00    -0.074 A 
ATOM    133  H   TYR d   1     -32.371  -0.128 -20.464  0.00  0.00     0.087 H 
ATOM    134  H   TYR d   1     -32.012  -2.013 -22.009  0.00  0.00     0.084 H 
BRANCH 129 135
ATOM    135  OH  TYR d   1     -31.740  -0.107 -17.927  0.00  0.00    -0.361 OA
ATOM    136  H   TYR d   1     -31.425  -0.341 -17.051  0.00  0.00     0.217 HD
ENDBRANCH 129 135
ENDBRANCH 122 125
ENDBRANCH  93 122
ENDBRANCH  91  93
ENDBRANCH  86  89
ENDBRANCH  84  86
ENDBRANCH  80  82
BRANCH  80 137
ATOM    137  CB  GLN d   1     -29.176   1.527 -20.602  0.00  0.00    -0.030 C 
ATOM    138  H   GLN d   1     -28.621   0.789 -20.023  0.00  0.00     0.037 H 
ATOM    139  H   GLN d   1     -30.212   1.250 -20.799  0.00  0.00     0.037 H 
BRANCH 137 140
ATOM    140  CG  GLN d   1     -29.201   2.810 -19.789  0.00  0.00     0.011 C 
ATOM    141  H   GLN d   1     -29.895   2.669 -18.961  0.00  0.00     0.047 H 
ATOM    142  H   GLN d   1     -29.500   3.622 -20.452  0.00  0.00     0.047 H 
BRANCH 140 143
ATOM    143  CD  GLN d   1     -27.845   3.158 -19.207  0.00  0.00     0.215 C 
ATOM    144  OE1 GLN d   1     -27.097   2.279 -18.779  0.00  0.00    -0.274 OA
ATOM    145  NE2 GLN d   1     -27.522   4.446 -19.187  0.00  0.00    -0.370 N 
ATOM    146  H   GLN d   1     -26.623   4.740 -18.806  0.00  0.00     0.159 HD
ATOM    147  H   GLN d   1     -28.173   5.141 -19.553  0.00  0.00     0.159 HD
ENDBRANCH 140 143
ENDBRANCH 137 140
ENDBRANCH  80 137
ENDBRANCH  78  80
ENDBRANCH   1  76
BRANCH   1 148
ATOM    148  CB  VAL d   1     -28.476   4.817 -25.336  0.00  0.00    -0.033 C 
ATOM    149  H   VAL d   1     -27.443   4.646 -25.639  0.00  0.00     0.042 H 
BRANCH 148 150
ATOM    150  CG1 VAL d   1     -29.304   3.614 -25.763  0.00  0.00    -0.071 C 
ATOM    151  H   VAL d   1     -28.903   2.714 -25.296  0.00  0.00     0.028 H 
ATOM    152  H   VAL d   1     -30.338   3.757 -25.450  0.00  0.00     0.028 H 
ATOM    153  H   VAL d   1     -29.262   3.512 -26.847  0.00  0.00     0.028 H 
ENDBRANCH 148 150
BRANCH 148 154
ATOM    154  CG2 VAL d   1     -28.970   6.083 -26.020  0.00  0.00    -0.071 C 
ATOM    155  H   VAL d   1     -29.997   6.283 -25.713  0.00  0.00     0.028 H 
ATOM    156  H   VAL d   1     -28.334   6.921 -25.734  0.00  0.00     0.028 H 
ATOM    157  H   VAL d   1     -28.932   5.949 -27.101  0.00  0.00     0.028 H 
ENDBRANCH 148 154
ENDBRANCH   1 148
TORSDOF 42
