REMARK WARNING: 32 MAX_TORS EXCEEDED!!!
REMARK  36 active torsions:
REMARK  status: ('A' for Active; 'I' for Inactive)
REMARK    1  A    between atoms: N_1  and  CA_2 
REMARK    2  A    between atoms: CA_2  and  C_3 
REMARK    3  A    between atoms: CA_2  and  CB_5 
REMARK       I    between atoms: C_3  and  N_11 
REMARK    4  A    between atoms: CB_5  and  CG_6 
REMARK    5  A    between atoms: N_11  and  CA_12 
REMARK    6  A    between atoms: CA_12  and  C_13 
REMARK    7  A    between atoms: CA_12  and  CB_15 
REMARK       I    between atoms: C_13  and  N_19 
REMARK    8  A    between atoms: CB_15  and  CG_16 
REMARK    9  A    between atoms: CG_16  and  CD1_17 
REMARK   10  A    between atoms: CG_16  and  CD2_18 
REMARK   11  A    between atoms: N_19  and  CA_20 
REMARK   12  A    between atoms: CA_20  and  C_21 
REMARK   13  A    between atoms: CA_20  and  CB_23 
REMARK       I    between atoms: C_21  and  N_28 
REMARK   14  A    between atoms: CB_23  and  CG_24 
REMARK   15  A    between atoms: CG_24  and  CD_25 
REMARK   16  A    between atoms: N_28  and  CA_29 
REMARK   17  A    between atoms: CA_29  and  C_30 
REMARK   18  A    between atoms: CA_29  and  CB_32 
REMARK       I    between atoms: C_30  and  N_35 
REMARK   19  A    between atoms: CB_32  and  CG1_33 
REMARK   20  A    between atoms: CB_32  and  CG2_34 
REMARK   21  A    between atoms: N_35  and  CA_36 
REMARK   22  A    between atoms: CA_36  and  C_37 
REMARK   23  A    between atoms: CA_36  and  CB_39 
REMARK       I    between atoms: C_37  and  N_44 
REMARK   24  A    between atoms: CB_39  and  CG_40 
REMARK   25  A    between atoms: CG_40  and  CD_41 
REMARK       I    between atoms: CD_41  and  NE2_43 
REMARK   26  A    between atoms: N_44  and  CA_45 
REMARK   27  A    between atoms: CA_45  and  C_46 
REMARK       I    between atoms: C_46  and  N_48 
REMARK   28  A    between atoms: N_48  and  CA_49 
REMARK   29  A    between atoms: CA_49  and  C_50 
REMARK   30  A    between atoms: CA_49  and  CB_52 
REMARK       I    between atoms: C_50  and  N_60 
REMARK   31  A    between atoms: CB_52  and  CG_53 
REMARK   32  A    between atoms: CZ_58  and  OH_59 
REMARK   33  A    between atoms: N_60  and  CA_61 
REMARK   34  A    between atoms: CA_61  and  C_62 
REMARK   35  A    between atoms: CA_61  and  CB_64 
REMARK   36  A    between atoms: CB_64  and  CG_65 
ROOT
ATOM      1  C   VAL d   1      -1.004   3.369 -17.212  0.00  0.00     0.241 C 
ATOM      2  O   VAL d   1      -2.198   3.077 -17.168  0.00  0.00    -0.271 OA
ATOM      3  N   GLN d   1      -0.082   2.564 -17.731  0.00  0.00    -0.346 N 
ATOM      4  H   GLN d   1       0.900   2.837 -17.688  0.00  0.00     0.163 HD
ENDROOT
BRANCH   3   5
ATOM      5  CA  GLN d   1      -0.443   1.299 -18.361  0.00  0.00     0.090 C 
ATOM      6  H   GLN d   1      -1.517   1.327 -18.546  0.00  0.00     0.087 H 
BRANCH   5   7
ATOM      7  C   GLN d   1      -0.168   0.103 -17.456  0.00  0.00     0.240 C 
ATOM      8  O   GLN d   1       0.976  -0.154 -17.080  0.00  0.00    -0.271 OA
ATOM      9  N   GLY d   1      -1.224  -0.626 -17.112  0.00  0.00    -0.351 N 
ATOM     10  H   GLY d   1      -2.148  -0.347 -17.443  0.00  0.00     0.163 HD
BRANCH   9  11
ATOM     11  CA  GLY d   1      -1.100  -1.808 -16.279  0.00  0.00     0.069 C 
ATOM     12  H   GLY d   1      -1.974  -1.860 -15.630  0.00  0.00     0.078 H 
ATOM     13  H   GLY d   1      -0.173  -1.729 -15.712  0.00  0.00     0.078 H 
BRANCH  11  14
ATOM     14  C   GLY d   1      -1.045  -3.080 -17.101  0.00  0.00     0.236 C 
ATOM     15  O   GLY d   1      -2.068  -3.558 -17.591  0.00  0.00    -0.272 OA
ATOM     16  N   TYR d   1       0.156  -3.628 -17.253  0.00  0.00    -0.346 N 
ATOM     17  H   TYR d   1       0.962  -3.189 -16.807  0.00  0.00     0.163 HD
BRANCH  16  18
ATOM     18  CA  TYR d   1       0.354  -4.840 -18.041  0.00  0.00     0.093 C 
ATOM     19  H   TYR d   1      -0.401  -4.845 -18.827  0.00  0.00     0.088 H 
BRANCH  18  20
ATOM     20  C   TYR d   1       0.169  -6.096 -17.197  0.00  0.00     0.241 C 
ATOM     21  O   TYR d   1       0.745  -6.218 -16.116  0.00  0.00    -0.271 OA
ATOM     22  N   TRP d   1      -0.637  -7.028 -17.696  0.00  0.00    -0.344 N 
ATOM     23  H   TRP d   1      -1.118  -6.851 -18.578  0.00  0.00     0.163 HD
BRANCH  22  24
ATOM     24  CA  TRP d   1      -0.849  -8.297 -17.012  0.00  0.00     0.100 C 
ATOM     25  H   TRP d   1      -1.207  -8.078 -16.006  0.00  0.00     0.090 H 
BRANCH  24  26
ATOM     26  C   TRP d   1       0.456  -9.079 -16.909  0.00  0.00     0.197 C 
ATOM     27  O   TRP d   1       1.338  -8.947 -17.757  0.00  0.00    -0.646 OA
ATOM     28  OXT TRP d   1       0.658  -9.859 -15.979  0.00  0.00    -0.646 OA
ENDBRANCH  24  26
BRANCH  24  29
ATOM     29  CB  TRP d   1      -1.906  -9.136 -17.735  0.00  0.00    -0.011 C 
ATOM     30  H   TRP d   1      -1.890 -10.130 -17.289  0.00  0.00     0.044 H 
ATOM     31  H   TRP d   1      -1.659  -9.122 -18.797  0.00  0.00     0.044 H 
BRANCH  29  32
ATOM     32  CG  TRP d   1      -3.303  -8.609 -17.596  0.00  0.00    -0.028 A 
ATOM     33  CD1 TRP d   1      -3.684  -7.435 -17.015  0.00  0.00    -0.015 A 
ATOM     34  NE1 TRP d   1      -5.050  -7.298 -17.074  0.00  0.00    -0.365 N 
ATOM     35  H   TRP d   1      -3.003  -6.710 -16.569  0.00  0.00     0.112 H 
ATOM     36  CE2 TRP d   1      -5.579  -8.396 -17.699  0.00  0.00     0.042 A 
ATOM     37  H   TRP d   1      -5.583  -6.508 -16.712  0.00  0.00     0.165 HD
ATOM     38  CD2 TRP d   1      -4.508  -9.245 -18.041  0.00  0.00    -0.002 A 
ATOM     39  CZ2 TRP d   1      -6.905  -8.712 -17.991  0.00  0.00    -0.056 A 
ATOM     40  CE3 TRP d   1      -4.784 -10.448 -18.698  0.00  0.00    -0.070 A 
ATOM     41  CZ3 TRP d   1      -6.101 -10.760 -18.987  0.00  0.00    -0.082 A 
ATOM     42  H   TRP d   1      -3.978 -11.127 -18.977  0.00  0.00     0.084 H 
ATOM     43  CH2 TRP d   1      -7.145  -9.896 -18.633  0.00  0.00    -0.081 A 
ATOM     44  H   TRP d   1      -6.330 -11.695 -19.499  0.00  0.00     0.083 H 
ATOM     45  H   TRP d   1      -8.171 -10.173 -18.874  0.00  0.00     0.083 H 
ATOM     46  H   TRP d   1      -7.720  -8.041 -17.718  0.00  0.00     0.086 H 
ENDBRANCH  29  32
ENDBRANCH  24  29
ENDBRANCH  22  24
ENDBRANCH  18  20
BRANCH  18  47
ATOM     47  CB  TYR d   1       1.747  -4.844 -18.674  0.00  0.00    -0.014 C 
ATOM     48  H   TYR d   1       1.833  -5.759 -19.260  0.00  0.00     0.043 H 
ATOM     49  H   TYR d   1       2.471  -4.767 -17.863  0.00  0.00     0.043 H 
BRANCH  47  50
ATOM     50  CG  TYR d   1       2.000  -3.686 -19.612  0.00  0.00    -0.056 A 
ATOM     51  CD1 TYR d   1       1.709  -3.788 -20.965  0.00  0.00    -0.074 A 
ATOM     52  CE1 TYR d   1       1.938  -2.733 -21.827  0.00  0.00    -0.051 A 
ATOM     53  H   TYR d   1       1.292  -4.717 -21.355  0.00  0.00     0.084 H 
ATOM     54  CZ  TYR d   1       2.466  -1.557 -21.338  0.00  0.00     0.065 A 
ATOM     55  H   TYR d   1       1.703  -2.830 -22.887  0.00  0.00     0.087 H 
ATOM     56  CE2 TYR d   1       2.765  -1.431 -19.998  0.00  0.00    -0.051 A 
ATOM     57  CD2 TYR d   1       2.532  -2.492 -19.144  0.00  0.00    -0.074 A 
ATOM     58  H   TYR d   1       3.183  -0.500 -19.615  0.00  0.00     0.087 H 
ATOM     59  H   TYR d   1       2.770  -2.390 -18.085  0.00  0.00     0.084 H 
BRANCH  54  60
ATOM     60  OH  TYR d   1       2.697  -0.503 -22.192  0.00  0.00    -0.361 OA
ATOM     61  H   TYR d   1       2.437  -0.751 -23.082  0.00  0.00     0.217 HD
ENDBRANCH  54  60
ENDBRANCH  47  50
ENDBRANCH  18  47
ENDBRANCH  16  18
ENDBRANCH  11  14
ENDBRANCH   9  11
ENDBRANCH   5   7
BRANCH   5  62
ATOM     62  CB  GLN d   1       0.300   1.136 -19.689  0.00  0.00    -0.030 C 
ATOM     63  H   GLN d   1      -0.105   0.252 -20.181  0.00  0.00     0.037 H 
ATOM     64  H   GLN d   1       1.363   1.065 -19.459  0.00  0.00     0.037 H 
BRANCH  62  65
ATOM     65  CG  GLN d   1       0.121   2.305 -20.642  0.00  0.00     0.011 C 
ATOM     66  H   GLN d   1       0.643   2.065 -21.569  0.00  0.00     0.047 H 
ATOM     67  H   GLN d   1       0.517   3.197 -20.156  0.00  0.00     0.047 H 
BRANCH  65  68
ATOM     68  CD  GLN d   1      -1.334   2.565 -20.980  0.00  0.00     0.215 C 
ATOM     69  OE1 GLN d   1      -2.162   1.654 -20.958  0.00  0.00    -0.274 OA
ATOM     70  NE2 GLN d   1      -1.654   3.816 -21.291  0.00  0.00    -0.370 N 
ATOM     71  H   GLN d   1      -2.618   4.053 -21.524  0.00  0.00     0.159 HD
ATOM     72  H   GLN d   1      -0.935   4.540 -21.297  0.00  0.00     0.159 HD
ENDBRANCH  65  68
ENDBRANCH  62  65
ENDBRANCH   5  62
ENDBRANCH   3   5
BRANCH   1  73
ATOM     73  CA  VAL d   1      -0.508   4.701 -16.660  0.00  0.00     0.092 C 
ATOM     74  H   VAL d   1       0.495   4.904 -17.034  0.00  0.00     0.088 H 
BRANCH  73  75
ATOM     75  N   VAL d   1      -1.373   5.786 -17.109  0.00  0.00    -0.346 N 
ATOM     76  C   GLU d   1      -1.278   6.288 -18.336  0.00  0.00     0.241 C 
ATOM     77  O   GLU d   1      -0.443   5.902 -19.154  0.00  0.00    -0.271 OA
ATOM     78  H   VAL d   1      -2.067   6.168 -16.467  0.00  0.00     0.163 HD
BRANCH  76  79
ATOM     79  CA  GLU d   1      -2.273   7.388 -18.695  0.00  0.00     0.090 C 
ATOM     80  H   GLU d   1      -2.558   7.253 -19.738  0.00  0.00     0.087 H 
BRANCH  79  81
ATOM     81  N   GLU d   1      -3.479   7.294 -17.883  0.00  0.00    -0.346 N 
ATOM     82  C   LEU d   1      -4.578   6.702 -18.337  0.00  0.00     0.241 C 
ATOM     83  O   LEU d   1      -4.643   6.168 -19.444  0.00  0.00    -0.271 OA
ATOM     84  H   GLU d   1      -3.479   7.692 -16.944  0.00  0.00     0.163 HD
BRANCH  82  85
ATOM     85  CA  LEU d   1      -5.785   6.710 -17.407  0.00  0.00     0.089 C 
ATOM     86  H   LEU d   1      -5.626   7.452 -16.625  0.00  0.00     0.087 H 
BRANCH  85  87
ATOM     87  N   LEU d   1      -6.986   7.067 -18.149  0.00  0.00    -0.346 N 
ATOM     88  C   HIS d   1      -7.099   8.226 -18.790  0.00  0.00     0.249 C 
ATOM     89  O   HIS d   1      -6.242   9.109 -18.740  0.00  0.00    -0.271 OA
ATOM     90  H   LEU d   1      -7.764   6.408 -18.178  0.00  0.00     0.163 HD
BRANCH  88  91
ATOM     91  CA  HIS d   1      -8.370   8.413 -19.612  0.00  0.00     0.181 C 
ATOM     92  H   HIS d   1      -9.032   7.575 -19.393  0.00  0.00     0.099 H 
BRANCH  91  93
ATOM     93  N   HIS d   1      -9.096   9.624 -19.248  0.00  0.00    -0.066 N 
ATOM     94  H   HIS d   1      -9.316   9.601 -18.252  0.00  0.00     0.275 HD
ATOM     95  H   HIS d   1      -8.518  10.440 -19.451  0.00  0.00     0.275 HD
ATOM     96  H   HIS d   1      -9.960   9.676 -19.787  0.00  0.00     0.275 HD
ENDBRANCH  91  93
BRANCH  91  97
ATOM     97  CB  HIS d   1      -8.024   8.417 -21.103  0.00  0.00     0.011 C 
ATOM     98  H   HIS d   1      -7.172   7.751 -21.240  0.00  0.00     0.046 H 
ATOM     99  H   HIS d   1      -7.826   9.450 -21.388  0.00  0.00     0.046 H 
BRANCH  97 100
ATOM    100  CG  HIS d   1      -9.128   7.916 -21.982  0.00  0.00     0.053 A 
ATOM    101  ND1 HIS d   1      -9.457   6.582 -22.073  0.00  0.00    -0.247 NA
ATOM    102  CE1 HIS d   1     -10.460   6.434 -22.920  0.00  0.00     0.064 A 
ATOM    103  NE2 HIS d   1     -10.792   7.625 -23.383  0.00  0.00    -0.359 N 
ATOM    104  H   HIS d   1     -10.933   5.490 -23.190  0.00  0.00     0.143 H 
ATOM    105  CD2 HIS d   1      -9.974   8.570 -22.814  0.00  0.00     0.002 A 
ATOM    106  H   HIS d   1     -11.536   7.813 -24.055  0.00  0.00     0.166 HD
ATOM    107  H   HIS d   1     -10.000   9.644 -22.997  0.00  0.00     0.114 H 
ENDBRANCH  97 100
ENDBRANCH  91  97
ENDBRANCH  88  91
ENDBRANCH  85  87
BRANCH  85 108
ATOM    108  CB  LEU d   1      -5.951   5.337 -16.755  0.00  0.00    -0.035 C 
ATOM    109  H   LEU d   1      -6.173   4.643 -17.565  0.00  0.00     0.037 H 
ATOM    110  H   LEU d   1      -6.721   5.456 -15.993  0.00  0.00     0.037 H 
BRANCH 108 111
ATOM    111  CG  LEU d   1      -4.725   4.771 -16.035  0.00  0.00    -0.059 C 
ATOM    112  H   LEU d   1      -3.921   4.657 -16.763  0.00  0.00     0.038 H 
BRANCH 111 113
ATOM    113  CD1 LEU d   1      -4.252   5.728 -14.953  0.00  0.00    -0.073 C 
ATOM    114  H   LEU d   1      -3.987   6.684 -15.405  0.00  0.00     0.028 H 
ATOM    115  H   LEU d   1      -5.051   5.877 -14.227  0.00  0.00     0.028 H 
ATOM    116  H   LEU d   1      -3.380   5.307 -14.453  0.00  0.00     0.028 H 
ENDBRANCH 111 113
BRANCH 111 117
ATOM    117  CD2 LEU d   1      -5.031   3.400 -15.450  0.00  0.00    -0.073 C 
ATOM    118  H   LEU d   1      -5.851   3.485 -14.737  0.00  0.00     0.028 H 
ATOM    119  H   LEU d   1      -5.315   2.719 -16.252  0.00  0.00     0.028 H 
ATOM    120  H   LEU d   1      -4.146   3.017 -14.943  0.00  0.00     0.028 H 
ENDBRANCH 111 117
ENDBRANCH 108 111
ENDBRANCH  85 108
ENDBRANCH  82  85
ENDBRANCH  79  81
BRANCH  79 121
ATOM    121  CB  GLU d   1      -1.629   8.767 -18.534  0.00  0.00    -0.029 C 
ATOM    122  H   GLU d   1      -1.144   8.782 -17.558  0.00  0.00     0.037 H 
ATOM    123  H   GLU d   1      -2.421   9.506 -18.654  0.00  0.00     0.037 H 
BRANCH 121 124
ATOM    124  CG  GLU d   1      -0.562   9.085 -19.567  0.00  0.00     0.018 C 
ATOM    125  H   GLU d   1      -0.985   8.904 -20.555  0.00  0.00     0.049 H 
ATOM    126  H   GLU d   1       0.303   8.454 -19.363  0.00  0.00     0.049 H 
BRANCH 124 127
ATOM    127  CD  GLU d   1      -0.112  10.532 -19.508  0.00  0.00     0.172 C 
ATOM    128  OE1 GLU d   1      -0.468  11.226 -18.533  0.00  0.00    -0.648 OA
ATOM    129  OE2 GLU d   1       0.593  10.976 -20.438  0.00  0.00    -0.648 OA
ENDBRANCH 124 127
ENDBRANCH 121 124
ENDBRANCH  79 121
ENDBRANCH  76  79
ENDBRANCH  73  75
BRANCH  73 130
ATOM    130  CB  VAL d   1      -0.449   4.626 -15.124  0.00  0.00    -0.033 C 
ATOM    131  H   VAL d   1      -1.431   4.334 -14.751  0.00  0.00     0.042 H 
BRANCH 130 132
ATOM    132  CG1 VAL d   1       0.563   3.580 -14.685  0.00  0.00    -0.071 C 
ATOM    133  H   VAL d   1       0.271   2.606 -15.078  0.00  0.00     0.028 H 
ATOM    134  H   VAL d   1       1.548   3.847 -15.067  0.00  0.00     0.028 H 
ATOM    135  H   VAL d   1       0.593   3.539 -13.596  0.00  0.00     0.028 H 
ENDBRANCH 130 132
BRANCH 130 136
ATOM    136  CG2 VAL d   1      -0.098   5.986 -14.541  0.00  0.00    -0.071 C 
ATOM    137  H   VAL d   1       0.874   6.302 -14.920  0.00  0.00     0.028 H 
ATOM    138  H   VAL d   1      -0.857   6.712 -14.833  0.00  0.00     0.028 H 
ATOM    139  H   VAL d   1      -0.060   5.915 -13.454  0.00  0.00     0.028 H 
ENDBRANCH 130 136
ENDBRANCH  73 130
ENDBRANCH   1  73
TORSDOF 36
