REMARK  10 active torsions:
REMARK  status: ('A' for Active; 'I' for Inactive)
REMARK    1  A    between atoms: N1_2  and  C13_22 
REMARK    2  A    between atoms: C20_29  and  N1_2 
REMARK    3  A    between atoms: C2_4  and  N5_11 
REMARK    4  A    between atoms: C9_18  and  C4_8 
REMARK    5  A    between atoms: N4_9  and  C7_14 
REMARK    6  A    between atoms: C7_14  and  C8_16 
REMARK    7  A    between atoms: C7_14  and  C14_23 
REMARK    8  A    between atoms: C10_19  and  C9_18 
REMARK    9  A    between atoms: C18_27  and  C15_24 
REMARK   10  A    between atoms: C18_27  and  C20_29 
ROOT
ATOM      1  N6  3RW d   1      38.954 -30.544 -11.040  0.00  0.00    -0.267 NA
ATOM      2  N7  3RW d   1      37.625 -28.155 -10.869  0.00  0.00    -0.225 NA
ATOM      3  C10 3RW d   1      36.940 -29.269 -11.245  0.00  0.00     0.127 A 
ATOM      4  C11 3RW d   1      37.633 -30.480 -11.329  0.00  0.00     0.034 A 
ATOM      5  C12 3RW d   1      39.629 -29.426 -10.665  0.00  0.00     0.046 A 
ATOM      6  C13 3RW d   1      38.949 -28.197 -10.573  0.00  0.00     0.141 A 
ATOM      7  H   3RW d   1      37.103 -31.384 -11.631  0.00  0.00     0.118 H 
ATOM      8  H   3RW d   1      40.693 -29.481 -10.436  0.00  0.00     0.120 H 
ENDROOT
BRANCH   3   9
ATOM      9  C9  3RW d   1      35.460 -29.146 -11.566  0.00  0.00     0.214 C 
ATOM     10  O1  3RW d   1      34.667 -30.023 -11.234  0.00  0.00    -0.285 OA
BRANCH   9  11
ATOM     11  C4  3RW d   1      34.973 -27.889 -12.262  0.00  0.00     0.050 A 
ATOM     12  C3  3RW d   1      35.651 -26.779 -12.740  0.00  0.00    -0.003 A 
ATOM     13  N4  3RW d   1      34.783 -25.878 -13.262  0.00  0.00    -0.336 N 
ATOM     14  H   3RW d   1      36.733 -26.648 -12.702  0.00  0.00     0.113 H 
ATOM     15  C6  3RW d   1      33.501 -26.318 -13.172  0.00  0.00     0.146 A 
ATOM     16  N3  3RW d   1      32.283 -25.774 -13.542  0.00  0.00    -0.223 NA
ATOM     17  C5  3RW d   1      33.522 -27.666 -12.522  0.00  0.00     0.071 A 
ATOM     18  C1  3RW d   1      31.134 -26.438 -13.325  0.00  0.00     0.091 A 
ATOM     19  N2  3RW d   1      31.095 -27.649 -12.741  0.00  0.00    -0.224 NA
ATOM     20  H   3RW d   1      30.197 -25.976 -13.635  0.00  0.00     0.146 H 
ATOM     21  C2  3RW d   1      32.192 -28.317 -12.318  0.00  0.00     0.137 A 
BRANCH  13  22
ATOM     22  C7  3RW d   1      35.157 -24.575 -13.882  0.00  0.00     0.011 C 
ATOM     23  H   3RW d   1      34.569 -24.432 -14.789  0.00  0.00     0.072 H 
BRANCH  22  24
ATOM     24  C8  3RW d   1      34.844 -23.418 -12.944  0.00  0.00    -0.057 C 
ATOM     25  H   3RW d   1      33.776 -23.409 -12.724  0.00  0.00     0.030 H 
ATOM     26  H   3RW d   1      35.406 -23.540 -12.018  0.00  0.00     0.030 H 
ATOM     27  H   3RW d   1      35.126 -22.479 -13.420  0.00  0.00     0.030 H 
ENDBRANCH  22  24
BRANCH  22  28
ATOM     28  C14 3RW d   1      36.639 -24.592 -14.247  0.00  0.00    -0.057 C 
ATOM     29  H   3RW d   1      37.232 -24.750 -13.346  0.00  0.00     0.030 H 
ATOM     30  H   3RW d   1      36.828 -25.399 -14.954  0.00  0.00     0.030 H 
ATOM     31  H   3RW d   1      36.911 -23.639 -14.700  0.00  0.00     0.030 H 
ENDBRANCH  22  28
ENDBRANCH  13  22
BRANCH  21  32
ATOM     32  N5  3RW d   1      32.049 -29.519 -11.736  0.00  0.00    -0.383 N 
ATOM     33  H   3RW d   1      32.870 -30.029 -11.411  0.00  0.00     0.157 HD
ATOM     34  H   3RW d   1      31.119 -29.922 -11.619  0.00  0.00     0.157 HD
ENDBRANCH  21  32
ENDBRANCH   9  11
ENDBRANCH   3   9
BRANCH   6  35
ATOM     35  N1  3RW d   1      39.555 -27.033 -10.183  0.00  0.00    -0.373 N 
ATOM     36  H   3RW d   1      38.967 -26.302  -9.783  0.00  0.00     0.161 HD
BRANCH  35  37
ATOM     37  C20 3RW d   1      40.993 -26.766 -10.302  0.00  0.00    -0.002 C 
ATOM     38  H   3RW d   1      41.498 -27.732 -10.322  0.00  0.00     0.064 H 
ATOM     39  H   3RW d   1      41.273 -26.132  -9.461  0.00  0.00     0.064 H 
BRANCH  37  40
ATOM     40  C18 3RW d   1      41.395 -26.014 -11.594  0.00  0.00    -0.025 C 
ATOM     41  H   3RW d   1      40.882 -25.052 -11.598  0.00  0.00     0.042 H 
ATOM     42  H   3RW d   1      42.480 -25.907 -11.598  0.00  0.00     0.042 H 
BRANCH  40  43
ATOM     43  C15 3RW d   1      40.991 -26.769 -12.856  0.00  0.00    -0.039 A 
ATOM     44  C16 3RW d   1      40.003 -26.227 -13.699  0.00  0.00    -0.074 A 
ATOM     45  C19 3RW d   1      39.648 -26.942 -14.835  0.00  0.00    -0.066 A 
ATOM     46  H   3RW d   1      39.530 -25.273 -13.467  0.00  0.00     0.084 H 
ATOM     47  C21 3RW d   1      40.271 -28.172 -15.100  0.00  0.00     0.002 A 
ATOM     48  H   3RW d   1      38.892 -26.552 -15.516  0.00  0.00     0.085 H 
ATOM     49  N8  3RW d   1      41.207 -28.687 -14.281  0.00  0.00    -0.273 NA
ATOM     50  H   3RW d   1      39.989 -28.726 -15.995  0.00  0.00     0.114 H 
ATOM     51  C17 3RW d   1      41.576 -28.015 -13.170  0.00  0.00     0.008 A 
ATOM     52  H   3RW d   1      42.333 -28.438 -12.509  0.00  0.00     0.115 H 
ENDBRANCH  40  43
ENDBRANCH  37  40
ENDBRANCH  35  37
ENDBRANCH   6  35
TORSDOF 10
