REMARK  16 active torsions:
REMARK  status: ('A' for Active; 'I' for Inactive)
REMARK    1  A    between atoms: O61_1  and  C61_2 
REMARK    2  A    between atoms: C61_2  and  C51_3 
REMARK    3  A    between atoms: C31_7  and  O31_8 
REMARK    4  A    between atoms: C41_9  and  O41_10 
REMARK    5  A    between atoms: O41_10  and  C12_11 
REMARK    6  A    between atoms: C22_12  and  O22_13 
REMARK    7  A    between atoms: C32_14  and  O32_15 
REMARK    8  A    between atoms: C52_17  and  C62_18 
REMARK    9  A    between atoms: C62_18  and  O62_19 
REMARK   10  A    between atoms: C42_20  and  O42_21 
REMARK   11  A    between atoms: O42_21  and  C13_22 
REMARK   12  A    between atoms: C23_23  and  O23_24 
REMARK   13  A    between atoms: C33_25  and  O33_26 
REMARK   14  A    between atoms: C43_27  and  O43_28 
REMARK   15  A    between atoms: C53_30  and  C63_31 
REMARK   16  A    between atoms: C63_31  and  O63_32 
ROOT
ATOM      1  C12 G2I d   1     -10.140  33.138 -23.228  0.00  0.00     0.159 C 
ATOM      2  C22 G2I d   1      -9.307  32.807 -21.941  0.00  0.00     0.110 C 
ATOM      3  C32 G2I d   1      -8.017  33.682 -22.018  0.00  0.00     0.092 C 
ATOM      4  O52 G2I d   1      -9.329  32.890 -24.405  0.00  0.00    -0.348 OA
ATOM      5  C52 G2I d   1      -8.219  33.759 -24.540  0.00  0.00     0.089 C 
ATOM      6  C42 G2I d   1      -7.238  33.407 -23.430  0.00  0.00     0.096 C 
ATOM      7  H   G2I d   1     -10.472  34.173 -23.142  0.00  0.00     0.133 H 
ATOM      8  H   G2I d   1      -8.996  31.772 -21.796  0.00  0.00     0.094 H 
ATOM      9  H   G2I d   1      -8.272  34.741 -21.979  0.00  0.00     0.091 H 
ATOM     10  H   G2I d   1      -8.364  34.822 -24.348  0.00  0.00     0.090 H 
ATOM     11  H   G2I d   1      -6.787  32.416 -23.478  0.00  0.00     0.091 H 
ENDROOT
BRANCH   1  12
ATOM     12  O41 G2I d   1     -11.205  32.242 -23.360  0.00  0.00    -0.350 OA
BRANCH  12  13
ATOM     13  C41 G2I d   1     -12.213  32.713 -24.315  0.00  0.00     0.075 C 
ATOM     14  C51 G2I d   1     -13.470  33.211 -23.500  0.00  0.00     0.017 C 
ATOM     15  C71 G2I d   1     -14.676  33.368 -24.519  0.00  0.00     0.089 C 
ATOM     16  H   G2I d   1     -13.649  32.454 -22.737  0.00  0.00     0.049 H 
ATOM     17  N11 G2I d   1     -15.056  32.011 -25.050  0.00  0.00    -0.072 N 
ATOM     18  H   G2I d   1     -14.375  34.013 -25.345  0.00  0.00     0.076 H 
ATOM     19  H   G2I d   1     -15.530  33.813 -24.009  0.00  0.00     0.076 H 
ATOM     20  C21 G2I d   1     -13.945  31.699 -26.056  0.00  0.00     0.107 C 
ATOM     21  H   G2I d   1     -15.983  32.002 -25.475  0.00  0.00     0.277 HD
ATOM     22  H   G2I d   1     -15.127  31.308 -24.314  0.00  0.00     0.277 HD
ATOM     23  C31 G2I d   1     -12.661  31.426 -25.141  0.00  0.00     0.084 C 
ATOM     24  H   G2I d   1     -13.784  32.515 -26.761  0.00  0.00     0.079 H 
ATOM     25  H   G2I d   1     -14.189  30.847 -26.691  0.00  0.00     0.079 H 
ATOM     26  H   G2I d   1     -12.972  30.609 -24.490  0.00  0.00     0.089 H 
ATOM     27  H   G2I d   1     -11.831  33.511 -24.952  0.00  0.00     0.088 H 
BRANCH  14  28
ATOM     28  C61 G2I d   1     -13.297  34.511 -22.683  0.00  0.00     0.024 C 
ATOM     29  H   G2I d   1     -14.276  34.896 -22.397  0.00  0.00     0.074 H 
ATOM     30  H   G2I d   1     -12.717  34.303 -21.784  0.00  0.00     0.074 H 
BRANCH  28  31
ATOM     31  O61 G2I d   1     -12.610  35.487 -23.486  0.00  0.00    -0.400 OA
ATOM     32  H   G2I d   1     -13.124  35.669 -24.276  0.00  0.00     0.209 HD
ENDBRANCH  28  31
ENDBRANCH  14  28
BRANCH  23  33
ATOM     33  O31 G2I d   1     -11.533  31.107 -25.902  0.00  0.00    -0.391 OA
ATOM     34  H   G2I d   1     -10.788  30.951 -25.317  0.00  0.00     0.210 HD
ENDBRANCH  23  33
ENDBRANCH  12  13
ENDBRANCH   1  12
BRANCH   2  35
ATOM     35  O22 G2I d   1     -10.162  33.239 -20.954  0.00  0.00    -0.388 OA
ATOM     36  H   G2I d   1     -10.987  32.752 -21.012  0.00  0.00     0.210 HD
ENDBRANCH   2  35
BRANCH   3  37
ATOM     37  O32 G2I d   1      -7.160  33.338 -20.873  0.00  0.00    -0.390 OA
ATOM     38  H   G2I d   1      -6.360  33.867 -20.903  0.00  0.00     0.210 HD
ENDBRANCH   3  37
BRANCH   5  39
ATOM     39  C62 G2I d   1      -7.814  33.846 -26.124  0.00  0.00     0.043 C 
ATOM     40  H   G2I d   1      -7.184  34.703 -26.362  0.00  0.00     0.078 H 
ATOM     41  H   G2I d   1      -8.670  34.005 -26.780  0.00  0.00     0.078 H 
BRANCH  39  42
ATOM     42  O62 G2I d   1      -7.184  32.626 -26.328  0.00  0.00    -0.398 OA
ATOM     43  H   G2I d   1      -7.798  31.914 -26.135  0.00  0.00     0.209 HD
ENDBRANCH  39  42
ENDBRANCH   5  39
BRANCH   6  44
ATOM     44  O42 G2I d   1      -6.473  34.519 -23.531  0.00  0.00    -0.348 OA
BRANCH  44  45
ATOM     45  C13 G2I d   1      -5.139  34.351 -23.117  0.00  0.00     0.159 C 
ATOM     46  C23 G2I d   1      -4.045  35.345 -23.813  0.00  0.00     0.110 C 
ATOM     47  C33 G2I d   1      -2.632  35.276 -23.291  0.00  0.00     0.092 C 
ATOM     48  H   G2I d   1      -4.414  36.334 -23.540  0.00  0.00     0.094 H 
ATOM     49  C43 G2I d   1      -2.711  35.368 -21.757  0.00  0.00     0.090 C 
ATOM     50  H   G2I d   1      -2.191  34.353 -23.666  0.00  0.00     0.091 H 
ATOM     51  C53 G2I d   1      -3.740  34.266 -21.163  0.00  0.00     0.089 C 
ATOM     52  H   G2I d   1      -3.008  36.365 -21.431  0.00  0.00     0.091 H 
ATOM     53  O53 G2I d   1      -5.033  34.594 -21.715  0.00  0.00    -0.348 OA
ATOM     54  H   G2I d   1      -3.373  33.281 -21.450  0.00  0.00     0.090 H 
ATOM     55  H   G2I d   1      -4.906  33.329 -23.416  0.00  0.00     0.133 H 
BRANCH  46  56
ATOM     56  O23 G2I d   1      -4.011  35.174 -25.060  0.00  0.00    -0.388 OA
ATOM     57  H   G2I d   1      -3.363  35.768 -25.446  0.00  0.00     0.210 HD
ENDBRANCH  46  56
BRANCH  47  58
ATOM     58  O33 G2I d   1      -1.806  36.377 -23.720  0.00  0.00    -0.390 OA
ATOM     59  H   G2I d   1      -0.924  36.275 -23.356  0.00  0.00     0.210 HD
ENDBRANCH  47  58
BRANCH  49  60
ATOM     60  O43 G2I d   1      -1.470  34.917 -21.370  0.00  0.00    -0.390 OA
ATOM     61  H   G2I d   1      -0.793  35.486 -21.744  0.00  0.00     0.210 HD
ENDBRANCH  49  60
BRANCH  51  62
ATOM     62  C63 G2I d   1      -3.829  34.179 -19.594  0.00  0.00     0.043 C 
ATOM     63  H   G2I d   1      -3.783  35.184 -19.173  0.00  0.00     0.078 H 
ATOM     64  H   G2I d   1      -2.997  33.584 -19.217  0.00  0.00     0.078 H 
BRANCH  62  65
ATOM     65  O63 G2I d   1      -5.047  33.570 -19.219  0.00  0.00    -0.398 OA
ATOM     66  H   G2I d   1      -5.780  34.093 -19.551  0.00  0.00     0.209 HD
ENDBRANCH  62  65
ENDBRANCH  51  62
ENDBRANCH  44  45
ENDBRANCH   6  44
TORSDOF 16
