REMARK  22 active torsions:
REMARK  status: ('A' for Active; 'I' for Inactive)
REMARK    1  A    between atoms: O24_1  and  C24_2 
REMARK    2  A    between atoms: C34_3  and  O34_4 
REMARK    3  A    between atoms: C44_5  and  O44_6 
REMARK    4  A    between atoms: C54_7  and  C64_8 
REMARK    5  A    between atoms: C64_8  and  O64_9 
REMARK    6  A    between atoms: C14_11  and  O43_12 
REMARK    7  A    between atoms: O43_12  and  C43_13 
REMARK    8  A    between atoms: C53_14  and  C63_16 
REMARK    9  A    between atoms: C63_16  and  O63_17 
REMARK   10  A    between atoms: C33_18  and  O33_19 
REMARK   11  A    between atoms: C23_20  and  O23_21 
REMARK   12  A    between atoms: C13_22  and  O42_23 
REMARK   13  A    between atoms: O42_23  and  C42_24 
REMARK   14  A    between atoms: C52_25  and  C62_27 
REMARK   15  A    between atoms: C62_27  and  O62_28 
REMARK   16  A    between atoms: C32_29  and  O32_30 
REMARK   17  A    between atoms: C22_31  and  O22_32 
REMARK   18  A    between atoms: C12_33  and  O41_34 
REMARK   19  A    between atoms: O41_34  and  C41_35 
REMARK   20  A    between atoms: C31_36  and  O31_37 
REMARK   21  A    between atoms: C51_41  and  C61_42 
REMARK   22  A    between atoms: C61_42  and  O61_43 
ROOT
ATOM      1  O42 G3I d   1      -6.526  34.392 -23.557  0.00  0.00    -0.348 OA
ENDROOT
BRANCH   1   2
ATOM      2  C13 G3I d   1      -5.163  34.192 -23.138  0.00  0.00     0.159 C 
ATOM      3  O53 G3I d   1      -5.053  34.281 -21.679  0.00  0.00    -0.348 OA
ATOM      4  C53 G3I d   1      -3.760  34.055 -21.090  0.00  0.00     0.089 C 
ATOM      5  C43 G3I d   1      -2.722  35.159 -21.685  0.00  0.00     0.096 C 
ATOM      6  H   G3I d   1      -3.258  33.119 -21.334  0.00  0.00     0.090 H 
ATOM      7  C33 G3I d   1      -2.689  35.146 -23.259  0.00  0.00     0.092 C 
ATOM      8  H   G3I d   1      -3.026  36.133 -21.302  0.00  0.00     0.091 H 
ATOM      9  C23 G3I d   1      -4.132  35.184 -23.795  0.00  0.00     0.110 C 
ATOM     10  H   G3I d   1      -2.225  34.258 -23.688  0.00  0.00     0.091 H 
ATOM     11  H   G3I d   1      -4.447  36.162 -23.433  0.00  0.00     0.094 H 
ATOM     12  H   G3I d   1      -4.902  33.192 -23.484  0.00  0.00     0.133 H 
BRANCH   4  13
ATOM     13  C63 G3I d   1      -4.032  34.005 -19.518  0.00  0.00     0.043 C 
ATOM     14  H   G3I d   1      -4.369  34.982 -19.172  0.00  0.00     0.078 H 
ATOM     15  H   G3I d   1      -3.113  33.741 -18.994  0.00  0.00     0.078 H 
BRANCH  13  16
ATOM     16  O63 G3I d   1      -5.018  33.044 -19.257  0.00  0.00    -0.398 OA
ATOM     17  H   G3I d   1      -5.825  33.282 -19.719  0.00  0.00     0.209 HD
ENDBRANCH  13  16
ENDBRANCH   4  13
BRANCH   5  18
ATOM     18  O43 G3I d   1      -1.433  34.746 -21.339  0.00  0.00    -0.348 OA
BRANCH  18  19
ATOM     19  C14 G3I d   1      -0.688  35.695 -20.535  0.00  0.00     0.159 C 
ATOM     20  C24 G3I d   1       0.245  34.788 -19.709  0.00  0.00     0.110 C 
ATOM     21  C34 G3I d   1       1.279  35.660 -18.947  0.00  0.00     0.092 C 
ATOM     22  H   G3I d   1       0.793  34.172 -20.422  0.00  0.00     0.094 H 
ATOM     23  C44 G3I d   1       2.068  36.624 -19.822  0.00  0.00     0.090 C 
ATOM     24  H   G3I d   1       0.667  36.181 -18.211  0.00  0.00     0.091 H 
ATOM     25  C54 G3I d   1       1.230  37.382 -20.932  0.00  0.00     0.089 C 
ATOM     26  H   G3I d   1       2.787  36.109 -20.459  0.00  0.00     0.091 H 
ATOM     27  O54 G3I d   1      -0.034  36.719 -21.340  0.00  0.00    -0.348 OA
ATOM     28  H   G3I d   1       0.861  38.316 -20.509  0.00  0.00     0.090 H 
ATOM     29  H   G3I d   1      -1.305  36.313 -19.883  0.00  0.00     0.133 H 
BRANCH  20  30
ATOM     30  O24 G3I d   1      -0.398  33.683 -18.923  0.00  0.00    -0.388 OA
ATOM     31  H   G3I d   1      -1.016  33.210 -19.485  0.00  0.00     0.210 HD
ENDBRANCH  20  30
BRANCH  21  32
ATOM     32  O34 G3I d   1       2.294  34.870 -18.456  0.00  0.00    -0.390 OA
ATOM     33  H   G3I d   1       2.927  35.419 -17.987  0.00  0.00     0.210 HD
ENDBRANCH  21  32
BRANCH  23  34
ATOM     34  O44 G3I d   1       2.680  37.487 -18.849  0.00  0.00    -0.390 OA
ATOM     35  H   G3I d   1       3.238  36.966 -18.267  0.00  0.00     0.210 HD
ENDBRANCH  23  34
BRANCH  25  36
ATOM     36  C64 G3I d   1       2.175  37.648 -22.100  0.00  0.00     0.043 C 
ATOM     37  H   G3I d   1       3.049  37.010 -21.964  0.00  0.00     0.078 H 
ATOM     38  H   G3I d   1       2.405  38.713 -22.097  0.00  0.00     0.078 H 
BRANCH  36  39
ATOM     39  O64 G3I d   1       1.591  37.324 -23.427  0.00  0.00    -0.398 OA
ATOM     40  H   G3I d   1       1.357  36.393 -23.454  0.00  0.00     0.209 HD
ENDBRANCH  36  39
ENDBRANCH  25  36
ENDBRANCH  18  19
ENDBRANCH   5  18
BRANCH   7  41
ATOM     41  O33 G3I d   1      -1.960  36.337 -23.597  0.00  0.00    -0.390 OA
ATOM     42  H   G3I d   1      -1.081  36.292 -23.215  0.00  0.00     0.210 HD
ENDBRANCH   7  41
BRANCH   9  43
ATOM     43  O23 G3I d   1      -4.241  35.226 -25.132  0.00  0.00    -0.388 OA
ATOM     44  H   G3I d   1      -5.169  35.247 -25.376  0.00  0.00     0.210 HD
ENDBRANCH   9  43
ENDBRANCH   1   2
BRANCH   1  45
ATOM     45  C42 G3I d   1      -7.281  33.230 -23.483  0.00  0.00     0.096 C 
ATOM     46  C52 G3I d   1      -8.260  33.599 -24.621  0.00  0.00     0.089 C 
ATOM     47  O52 G3I d   1      -9.364  32.757 -24.568  0.00  0.00    -0.348 OA
ATOM     48  H   G3I d   1      -8.415  34.654 -24.396  0.00  0.00     0.090 H 
ATOM     49  C12 G3I d   1     -10.139  32.972 -23.393  0.00  0.00     0.159 C 
ATOM     50  C22 G3I d   1      -9.367  32.577 -22.107  0.00  0.00     0.110 C 
ATOM     51  H   G3I d   1     -10.409  34.025 -23.313  0.00  0.00     0.133 H 
ATOM     52  C32 G3I d   1      -8.088  33.370 -22.091  0.00  0.00     0.092 C 
ATOM     53  H   G3I d   1      -9.129  31.515 -22.046  0.00  0.00     0.094 H 
ATOM     54  H   G3I d   1      -8.330  34.432 -22.063  0.00  0.00     0.091 H 
ATOM     55  H   G3I d   1      -6.789  32.259 -23.543  0.00  0.00     0.091 H 
BRANCH  46  56
ATOM     56  C62 G3I d   1      -7.810  33.575 -26.121  0.00  0.00     0.043 C 
ATOM     57  H   G3I d   1      -7.274  34.488 -26.380  0.00  0.00     0.078 H 
ATOM     58  H   G3I d   1      -8.673  33.520 -26.784  0.00  0.00     0.078 H 
BRANCH  56  59
ATOM     59  O62 G3I d   1      -6.985  32.448 -26.278  0.00  0.00    -0.398 OA
ATOM     60  H   G3I d   1      -6.686  32.396 -27.189  0.00  0.00     0.209 HD
ENDBRANCH  56  59
ENDBRANCH  46  56
BRANCH  49  61
ATOM     61  O41 G3I d   1     -11.234  32.097 -23.508  0.00  0.00    -0.350 OA
BRANCH  61  62
ATOM     62  C41 G3I d   1     -12.256  32.475 -24.392  0.00  0.00     0.075 C 
ATOM     63  C31 G3I d   1     -12.608  31.180 -25.207  0.00  0.00     0.084 C 
ATOM     64  C21 G3I d   1     -13.945  31.297 -26.030  0.00  0.00     0.107 C 
ATOM     65  H   G3I d   1     -12.816  30.367 -24.512  0.00  0.00     0.089 H 
ATOM     66  N11 G3I d   1     -15.107  31.738 -25.087  0.00  0.00    -0.072 N 
ATOM     67  H   G3I d   1     -14.184  30.329 -26.469  0.00  0.00     0.079 H 
ATOM     68  H   G3I d   1     -13.819  32.038 -26.819  0.00  0.00     0.079 H 
ATOM     69  C71 G3I d   1     -14.652  33.096 -24.585  0.00  0.00     0.089 C 
ATOM     70  H   G3I d   1     -15.272  31.075 -24.330  0.00  0.00     0.277 HD
ATOM     71  H   G3I d   1     -16.007  31.777 -25.565  0.00  0.00     0.277 HD
ATOM     72  C51 G3I d   1     -13.527  32.911 -23.541  0.00  0.00     0.017 C 
ATOM     73  H   G3I d   1     -15.494  33.613 -24.124  0.00  0.00     0.076 H 
ATOM     74  H   G3I d   1     -14.277  33.685 -25.422  0.00  0.00     0.076 H 
ATOM     75  H   G3I d   1     -13.687  32.138 -22.790  0.00  0.00     0.049 H 
ATOM     76  H   G3I d   1     -11.960  33.299 -25.041  0.00  0.00     0.088 H 
BRANCH  63  77
ATOM     77  O31 G3I d   1     -11.475  30.836 -26.006  0.00  0.00    -0.391 OA
ATOM     78  H   G3I d   1     -10.720  30.673 -25.436  0.00  0.00     0.210 HD
ENDBRANCH  63  77
BRANCH  72  79
ATOM     79  C61 G3I d   1     -13.424  34.170 -22.697  0.00  0.00     0.024 C 
ATOM     80  H   G3I d   1     -12.863  33.952 -21.788  0.00  0.00     0.074 H 
ATOM     81  H   G3I d   1     -14.425  34.514 -22.435  0.00  0.00     0.074 H 
BRANCH  79  82
ATOM     82  O61 G3I d   1     -12.736  35.211 -23.454  0.00  0.00    -0.400 OA
ATOM     83  H   G3I d   1     -13.230  35.402 -24.255  0.00  0.00     0.209 HD
ENDBRANCH  79  82
ENDBRANCH  72  79
ENDBRANCH  61  62
ENDBRANCH  49  61
BRANCH  50  84
ATOM     84  O22 G3I d   1     -10.199  32.971 -21.038  0.00  0.00    -0.388 OA
ATOM     85  H   G3I d   1     -11.010  32.458 -21.060  0.00  0.00     0.210 HD
ENDBRANCH  50  84
BRANCH  52  86
ATOM     86  O32 G3I d   1      -7.344  33.229 -20.850  0.00  0.00    -0.390 OA
ATOM     87  H   G3I d   1      -6.660  33.902 -20.810  0.00  0.00     0.210 HD
ENDBRANCH  52  86
ENDBRANCH   1  45
TORSDOF 22
