REMARK  10 active torsions:
REMARK  status: ('A' for Active; 'I' for Inactive)
REMARK    1  A    between atoms: O2B_1  and  C2B_2 
REMARK    2  A    between atoms: C3B_3  and  O3B_4 
REMARK    3  A    between atoms: C4B_5  and  O4B_6 
REMARK    4  A    between atoms: C5B_7  and  C6B_8 
REMARK    5  A    between atoms: C6B_8  and  O6B_9 
REMARK    6  A    between atoms: C1B_11  and  O3A_12 
REMARK    7  A    between atoms: O3A_12  and  C3A_13 
REMARK    8  A    between atoms: C4A_14  and  O4A_15 
REMARK    9  A    between atoms: C2A_19  and  C6A_20 
REMARK   10  A    between atoms: C6A_20  and  O6A_21 
ROOT
ATOM      1  O3A 9MR d   1     -14.554  35.956 -31.256  0.00  0.00    -0.350 OA
ENDROOT
BRANCH   1   2
ATOM      2  C1B 9MR d   1     -14.613  36.233 -32.491  0.00  0.00     0.159 C 
ATOM      3  C2B 9MR d   1     -14.126  35.842 -33.931  0.00  0.00     0.110 C 
ATOM      4  C3B 9MR d   1     -14.564  36.974 -34.965  0.00  0.00     0.092 C 
ATOM      5  H   9MR d   1     -14.536  34.929 -34.363  0.00  0.00     0.094 H 
ATOM      6  C4B 9MR d   1     -15.937  37.724 -34.688  0.00  0.00     0.090 C 
ATOM      7  H   9MR d   1     -13.678  37.547 -34.694  0.00  0.00     0.091 H 
ATOM      8  C5B 9MR d   1     -15.976  38.007 -33.174  0.00  0.00     0.089 C 
ATOM      9  H   9MR d   1     -16.853  37.283 -35.083  0.00  0.00     0.091 H 
ATOM     10  O5B 9MR d   1     -15.959  36.742 -32.481  0.00  0.00    -0.348 OA
ATOM     11  H   9MR d   1     -15.084  38.627 -33.082  0.00  0.00     0.090 H 
ATOM     12  H   9MR d   1     -13.550  36.443 -32.609  0.00  0.00     0.133 H 
BRANCH   3  13
ATOM     13  O2B 9MR d   1     -12.706  35.747 -33.709  0.00  0.00    -0.388 OA
ATOM     14  H   9MR d   1     -12.528  35.046 -33.078  0.00  0.00     0.210 HD
ENDBRANCH   3  13
BRANCH   4  15
ATOM     15  O3B 9MR d   1     -14.511  36.796 -36.434  0.00  0.00    -0.390 OA
ATOM     16  H   9MR d   1     -14.818  37.598 -36.864  0.00  0.00     0.210 HD
ENDBRANCH   4  15
BRANCH   6  17
ATOM     17  O4B 9MR d   1     -15.411  38.917 -35.068  0.00  0.00    -0.390 OA
ATOM     18  H   9MR d   1     -15.114  38.859 -35.979  0.00  0.00     0.210 HD
ENDBRANCH   6  17
BRANCH   8  19
ATOM     19  C6B 9MR d   1     -16.798  39.138 -32.466  0.00  0.00     0.043 C 
ATOM     20  H   9MR d   1     -16.245  40.077 -32.467  0.00  0.00     0.078 H 
ATOM     21  H   9MR d   1     -16.987  38.884 -31.423  0.00  0.00     0.078 H 
BRANCH  19  22
ATOM     22  O6B 9MR d   1     -17.952  39.263 -33.144  0.00  0.00    -0.398 OA
ATOM     23  H   9MR d   1     -18.487  39.950 -32.739  0.00  0.00     0.209 HD
ENDBRANCH  19  22
ENDBRANCH   8  19
ENDBRANCH   1   2
BRANCH   1  24
ATOM     24  C3A 9MR d   1     -14.596  35.891 -29.825  0.00  0.00     0.075 C 
ATOM     25  C4A 9MR d   1     -15.963  35.200 -29.619  0.00  0.00     0.084 C 
ATOM     26  C5M 9MR d   1     -16.248  34.661 -28.200  0.00  0.00     0.107 C 
ATOM     27  H   9MR d   1     -15.891  34.312 -30.247  0.00  0.00     0.089 H 
ATOM     28  N5A 9MR d   1     -15.009  34.255 -27.432  0.00  0.00    -0.072 N 
ATOM     29  H   9MR d   1     -16.864  33.769 -28.312  0.00  0.00     0.079 H 
ATOM     30  H   9MR d   1     -16.725  35.465 -27.640  0.00  0.00     0.079 H 
ATOM     31  C1A 9MR d   1     -13.635  34.869 -27.737  0.00  0.00     0.089 C 
ATOM     32  H   9MR d   1     -14.891  33.269 -27.666  0.00  0.00     0.277 HD
ATOM     33  H   9MR d   1     -15.204  34.559 -26.478  0.00  0.00     0.277 HD
ATOM     34  C2A 9MR d   1     -13.589  34.860 -29.287  0.00  0.00     0.017 C 
ATOM     35  H   9MR d   1     -12.813  34.313 -27.286  0.00  0.00     0.076 H 
ATOM     36  H   9MR d   1     -13.514  35.867 -27.315  0.00  0.00     0.076 H 
ATOM     37  H   9MR d   1     -13.961  33.916 -29.686  0.00  0.00     0.049 H 
ATOM     38  H   9MR d   1     -14.415  36.860 -29.359  0.00  0.00     0.088 H 
BRANCH  25  39
ATOM     39  O4A 9MR d   1     -17.033  36.021 -30.053  0.00  0.00    -0.391 OA
ATOM     40  H   9MR d   1     -16.928  36.214 -30.988  0.00  0.00     0.210 HD
ENDBRANCH  25  39
BRANCH  34  41
ATOM     41  C6A 9MR d   1     -12.211  34.597 -29.966  0.00  0.00     0.024 C 
ATOM     42  H   9MR d   1     -12.370  34.591 -31.044  0.00  0.00     0.074 H 
ATOM     43  H   9MR d   1     -11.829  33.651 -29.584  0.00  0.00     0.074 H 
BRANCH  41  44
ATOM     44  O6A 9MR d   1     -11.280  35.564 -29.688  0.00  0.00    -0.400 OA
ATOM     45  H   9MR d   1     -10.456  35.350 -30.131  0.00  0.00     0.209 HD
ENDBRANCH  41  44
ENDBRANCH  34  41
ENDBRANCH   1  24
TORSDOF 10
