REMARK  1 active torsions:
REMARK  status: ('A' for Active; 'I' for Inactive)
REMARK    1  A    between atoms: N_1  and  C1_2 
ROOT
ATOM      1  C1  SZ1 d   1      -1.398 -14.126  16.895  0.00  0.00     0.100 C 
ATOM      2  C2  SZ1 d   1      -1.532 -13.640  15.452  0.00  0.00    -0.039 C 
ATOM      3  C3  SZ1 d   1      -0.639 -14.424  14.495  0.00  0.00    -0.063 C 
ATOM      4  C4  SZ1 d   1      -1.275 -15.738  14.064  0.00  0.00    -0.065 C 
ATOM      5  C5  SZ1 d   1      -1.466 -16.656  15.262  0.00  0.00    -0.065 C 
ATOM      6  C6  SZ1 d   1      -2.671 -16.254  16.093  0.00  0.00    -0.063 C 
ATOM      7  C7  SZ1 d   1      -2.323 -15.299  17.238  0.00  0.00    -0.039 C 
ATOM      8  H4  SZ1 d   1      -0.358 -14.452  17.046  0.00  0.00     0.083 H 
ATOM      9  H5  SZ1 d   1      -1.251 -12.577  15.408  0.00  0.00     0.036 H 
ATOM     10  H6  SZ1 d   1      -2.579 -13.756  15.135  0.00  0.00     0.036 H 
ATOM     11  H7  SZ1 d   1       0.315 -14.640  14.997  0.00  0.00     0.033 H 
ATOM     12  H8  SZ1 d   1      -0.452 -13.810  13.601  0.00  0.00     0.033 H 
ATOM     13  H9  SZ1 d   1      -0.622 -16.232  13.330  0.00  0.00     0.033 H 
ATOM     14  H10 SZ1 d   1      -2.254 -15.533  13.605  0.00  0.00     0.033 H 
ATOM     15  H11 SZ1 d   1      -0.567 -16.610  15.893  0.00  0.00     0.033 H 
ATOM     16  H12 SZ1 d   1      -1.609 -17.686  14.902  0.00  0.00     0.033 H 
ATOM     17  H13 SZ1 d   1      -3.120 -17.163  16.520  0.00  0.00     0.033 H 
ATOM     18  H14 SZ1 d   1      -3.400 -15.759  15.435  0.00  0.00     0.033 H 
ATOM     19  H15 SZ1 d   1      -3.265 -14.880  17.622  0.00  0.00     0.036 H 
ATOM     20  H16 SZ1 d   1      -1.835 -15.889  18.028  0.00  0.00     0.036 H 
ENDROOT
BRANCH   1  21
ATOM     21  N   SZ1 d   1      -1.692 -13.036  17.819  0.00  0.00    -0.075 N 
ATOM     22  H1  SZ1 d   1      -1.095 -12.251  17.613  0.00  0.00     0.274 HD
ATOM     23  H2  SZ1 d   1      -1.528 -13.344  18.765  0.00  0.00     0.274 HD
ATOM     24  H3  SZ1 d   1      -2.656 -12.760  17.718  0.00  0.00     0.274 HD
ENDBRANCH   1  21
TORSDOF 1
