REMARK  4 active torsions:
REMARK  status: ('A' for Active; 'I' for Inactive)
REMARK    1  A    between atoms: C1_3  and  N_1 
REMARK    2  A    between atoms: C6_8  and  O_2 
REMARK    3  A    between atoms: O_2  and  C7_9 
REMARK    4  A    between atoms: C2_4  and  C1_3 
ROOT
ATOM      1  C2  SZ4 d   1      -1.761 -14.102  16.929  0.00  0.00    -0.030 A 
ATOM      2  C3  SZ4 d   1      -1.287 -13.497  15.767  0.00  0.00    -0.075 A 
ATOM      3  C4  SZ4 d   1      -1.242 -14.210  14.572  0.00  0.00    -0.080 A 
ATOM      4  C5  SZ4 d   1      -1.668 -15.534  14.532  0.00  0.00    -0.051 A 
ATOM      5  C6  SZ4 d   1      -2.138 -16.144  15.689  0.00  0.00     0.068 A 
ATOM      6  C8  SZ4 d   1      -2.182 -15.428  16.887  0.00  0.00    -0.043 A 
ATOM      7  H6  SZ4 d   1      -0.952 -12.466  15.793  0.00  0.00     0.084 H 
ATOM      8  H7  SZ4 d   1      -0.874 -13.733  13.671  0.00  0.00     0.083 H 
ATOM      9  H8  SZ4 d   1      -1.633 -16.088  13.601  0.00  0.00     0.087 H 
ATOM     10  H12 SZ4 d   1      -2.546 -15.907  17.789  0.00  0.00     0.088 H 
ENDROOT
BRANCH   1  11
ATOM     11  C1  SZ4 d   1      -1.808 -13.333  18.235  0.00  0.00     0.103 C 
ATOM     12  H4  SZ4 d   1      -1.031 -13.725  18.907  0.00  0.00     0.082 H 
ATOM     13  H5  SZ4 d   1      -1.613 -12.270  18.029  0.00  0.00     0.082 H 
BRANCH  11  14
ATOM     14  N   SZ4 d   1      -3.099 -13.456  18.887  0.00  0.00    -0.075 N 
ATOM     15  H1  SZ4 d   1      -3.091 -12.933  19.749  0.00  0.00     0.274 HD
ATOM     16  H2  SZ4 d   1      -3.284 -14.427  19.085  0.00  0.00     0.274 HD
ATOM     17  H3  SZ4 d   1      -3.818 -13.093  18.280  0.00  0.00     0.274 HD
ENDBRANCH  11  14
ENDBRANCH   1  11
BRANCH   5  18
ATOM     18  O   SZ4 d   1      -2.550 -17.452  15.623  0.00  0.00    -0.356 OA
BRANCH  18  19
ATOM     19  C7  SZ4 d   1      -3.058 -18.125  16.778  0.00  0.00     0.010 C 
ATOM     20  H9  SZ4 d   1      -3.330 -19.157  16.511  0.00  0.00     0.066 H 
ATOM     21  H10 SZ4 d   1      -3.948 -17.596  17.149  0.00  0.00     0.066 H 
ATOM     22  H11 SZ4 d   1      -2.287 -18.140  17.562  0.00  0.00     0.066 H 
ENDBRANCH  18  19
ENDBRANCH   5  18
TORSDOF 4
