REMARK  2 active torsions:
REMARK  status: ('A' for Active; 'I' for Inactive)
REMARK    1  A    between atoms: C1_1  and  C_7 
REMARK    2  A    between atoms: C_7  and  N1_8 
ROOT
ATOM      1  C1  BEN d   1      -1.794 -14.350  16.848  0.00  0.00     0.007 A 
ATOM      2  C2  BEN d   1      -1.992 -15.730  16.776  0.00  0.00    -0.069 A 
ATOM      3  C3  BEN d   1      -1.685 -16.426  15.609  0.00  0.00    -0.082 A 
ATOM      4  C4  BEN d   1      -1.171 -15.763  14.503  0.00  0.00    -0.083 A 
ATOM      5  C5  BEN d   1      -0.965 -14.396  14.568  0.00  0.00    -0.082 A 
ATOM      6  C6  BEN d   1      -1.273 -13.696  15.730  0.00  0.00    -0.069 A 
ATOM      7  H1  BEN d   1      -2.387 -16.263  17.633  0.00  0.00     0.085 H 
ATOM      8  H2  BEN d   1      -1.849 -17.497  15.564  0.00  0.00     0.083 H 
ATOM      9  H3  BEN d   1      -0.933 -16.310  13.598  0.00  0.00     0.083 H 
ATOM     10  H4  BEN d   1      -0.562 -13.869  13.711  0.00  0.00     0.083 H 
ATOM     11  H5  BEN d   1      -1.106 -12.626  15.768  0.00  0.00     0.085 H 
ENDROOT
BRANCH   1  12
ATOM     12  C   BEN d   1      -2.126 -13.581  18.102  0.00  0.00     0.102 C 
ATOM     13  N2  BEN d   1      -1.657 -12.345  18.306  0.00  0.00    -0.385 N 
ATOM     14  H8  BEN d   1      -1.054 -11.900  17.599  0.00  0.00     0.157 HD
ATOM     15  H9  BEN d   1      -1.898 -11.839  19.170  0.00  0.00     0.157 HD
BRANCH  12  16
ATOM     16  N1  BEN d   1      -2.861 -14.076  19.005  0.00  0.00    -0.385 N 
ATOM     17  H6  BEN d   1      -3.073 -13.531  19.853  0.00  0.00     0.157 HD
ATOM     18  H7  BEN d   1      -3.247 -15.024  18.892  0.00  0.00     0.157 HD
ENDBRANCH  12  16
ENDBRANCH   1  12
TORSDOF 2
