REMARK  1 active torsions:
REMARK  status: ('A' for Active; 'I' for Inactive)
REMARK    1  A    between atoms: C4_4  and  N4_7 
ROOT
ATOM      1  N1  4AP d   1      -1.638 -15.882  14.730  0.00  0.00    -0.273 NA
ATOM      2  C2  4AP d   1      -0.973 -14.716  14.638  0.00  0.00     0.004 A 
ATOM      3  C3  4AP d   1      -0.956 -13.826  15.711  0.00  0.00    -0.041 A 
ATOM      4  C4  4AP d   1      -1.634 -14.147  16.882  0.00  0.00     0.028 A 
ATOM      5  C5  4AP d   1      -2.310 -15.361  16.950  0.00  0.00    -0.041 A 
ATOM      6  C6  4AP d   1      -2.298 -16.216  15.851  0.00  0.00     0.004 A 
ATOM      7  H1  4AP d   1      -0.447 -14.467  13.723  0.00  0.00     0.114 H 
ATOM      8  H2  4AP d   1      -0.417 -12.889  15.633  0.00  0.00     0.089 H 
ATOM      9  H3  4AP d   1      -2.842 -15.639  17.852  0.00  0.00     0.089 H 
ATOM     10  H4  4AP d   1      -2.827 -17.161  15.901  0.00  0.00     0.114 H 
ENDROOT
BRANCH   4  11
ATOM     11  N4  4AP d   1      -1.637 -13.302  17.942  0.00  0.00    -0.399 N 
ATOM     12  H5  4AP d   1      -1.135 -12.404  17.887  0.00  0.00     0.156 HD
ATOM     13  H6  4AP d   1      -2.141 -13.558  18.803  0.00  0.00     0.156 HD
ENDBRANCH   4  11
TORSDOF 1
