REMARK  2 active torsions:
REMARK  status: ('A' for Active; 'I' for Inactive)
REMARK    1  A    between atoms: C1_3  and  N_1 
REMARK    2  A    between atoms: C4_6  and  O_2 
ROOT
ATOM      1  C1  SZ3 d   1      -1.359 -13.941  17.097  0.00  0.00     0.100 C 
ATOM      2  C2  SZ3 d   1      -1.575 -13.340  15.716  0.00  0.00    -0.036 C 
ATOM      3  C3  SZ3 d   1      -1.137 -14.256  14.581  0.00  0.00    -0.039 C 
ATOM      4  C4  SZ3 d   1      -1.516 -15.722  14.825  0.00  0.00     0.035 C 
ATOM      5  C5  SZ3 d   1      -1.628 -16.292  16.246  0.00  0.00    -0.039 C 
ATOM      6  C6  SZ3 d   1      -2.126 -15.251  17.238  0.00  0.00    -0.036 C 
ATOM      7  H5  SZ3 d   1      -0.286 -14.133  17.241  0.00  0.00     0.083 H 
ATOM      8  H6  SZ3 d   1      -1.001 -12.404  15.650  0.00  0.00     0.036 H 
ATOM      9  H7  SZ3 d   1      -2.646 -13.122  15.594  0.00  0.00     0.036 H 
ATOM     10  H8  SZ3 d   1      -0.044 -14.188  14.475  0.00  0.00     0.036 H 
ATOM     11  H9  SZ3 d   1      -1.617 -13.918  13.651  0.00  0.00     0.036 H 
ATOM     12  H10 SZ3 d   1      -2.597 -15.570  14.691  0.00  0.00     0.082 H 
ATOM     13  H11 SZ3 d   1      -0.636 -16.643  16.567  0.00  0.00     0.036 H 
ATOM     14  H12 SZ3 d   1      -2.331 -17.138  16.235  0.00  0.00     0.036 H 
ATOM     15  H13 SZ3 d   1      -3.194 -15.063  17.054  0.00  0.00     0.036 H 
ATOM     16  H14 SZ3 d   1      -1.992 -15.636  18.259  0.00  0.00     0.036 H 
ENDROOT
BRANCH   1  17
ATOM     17  N   SZ3 d   1      -1.823 -13.010  18.114  0.00  0.00    -0.075 N 
ATOM     18  H1  SZ3 d   1      -1.321 -12.140  18.028  0.00  0.00     0.274 HD
ATOM     19  H2  SZ3 d   1      -1.661 -13.403  19.028  0.00  0.00     0.274 HD
ATOM     20  H3  SZ3 d   1      -2.809 -12.842  17.991  0.00  0.00     0.274 HD
ENDBRANCH   1  17
BRANCH   4  21
ATOM     21  O   SZ3 d   1      -1.359 -16.654  13.734  0.00  0.00    -0.396 OA
ATOM     22  H4  SZ3 d   1      -1.899 -16.378  13.003  0.00  0.00     0.210 HD
ENDBRANCH   4  21
TORSDOF 2
