REMARK  3 active torsions:
REMARK  status: ('A' for Active; 'I' for Inactive)
REMARK    1  A    between atoms: N_1  and  CA_2 
REMARK    2  A    between atoms: CA_2  and  CB_3 
REMARK    3  A    between atoms: CB_3  and  CG_4 
ROOT
ATOM      1  CB  HSM d   1      -1.451 -13.541  15.997  0.00  0.00    -0.001 C 
ATOM      2  H6  HSM d   1      -0.419 -13.188  16.136  0.00  0.00     0.044 H 
ATOM      3  H7  HSM d   1      -2.059 -12.734  15.562  0.00  0.00     0.044 H 
ENDROOT
BRANCH   1   4
ATOM      4  CA  HSM d   1      -2.036 -13.946  17.347  0.00  0.00     0.085 C 
ATOM      5  H4  HSM d   1      -3.110 -14.149  17.226  0.00  0.00     0.075 H 
ATOM      6  H5  HSM d   1      -1.528 -14.856  17.700  0.00  0.00     0.075 H 
BRANCH   4   7
ATOM      7  N   HSM d   1      -1.862 -12.896  18.331  0.00  0.00    -0.079 N 
ATOM      8  H1  HSM d   1      -2.257 -13.191  19.210  0.00  0.00     0.274 HD
ATOM      9  H2  HSM d   1      -2.329 -12.060  18.016  0.00  0.00     0.274 HD
ATOM     10  H3  HSM d   1      -0.879 -12.707  18.451  0.00  0.00     0.274 HD
ENDBRANCH   4   7
ENDBRANCH   1   4
BRANCH   1  11
ATOM     11  CG  HSM d   1      -1.454 -14.730  15.068  0.00  0.00     0.052 A 
ATOM     12  ND1 HSM d   1      -2.386 -15.706  15.030  0.00  0.00    -0.247 NA
ATOM     13  CE1 HSM d   1      -2.033 -16.591  14.071  0.00  0.00     0.064 A 
ATOM     14  NE2 HSM d   1      -0.877 -16.181  13.506  0.00  0.00    -0.359 N 
ATOM     15  H9  HSM d   1      -2.589 -17.487  13.799  0.00  0.00     0.143 H 
ATOM     16  CD2 HSM d   1      -0.501 -15.028  14.103  0.00  0.00     0.002 A 
ATOM     17  H10 HSM d   1      -0.369 -16.663  12.751  0.00  0.00     0.166 HD
ATOM     18  H8  HSM d   1       0.386 -14.441  13.870  0.00  0.00     0.114 H 
ENDBRANCH   1  11
TORSDOF 3
