REMARK  3 active torsions:
REMARK  status: ('A' for Active; 'I' for Inactive)
REMARK    1  A    between atoms: N1_1  and  CA_2 
REMARK    2  A    between atoms: CA_2  and  CB_3 
REMARK    3  A    between atoms: CB_3  and  CG_4 
ROOT
ATOM      1  CG  TSS d   1      -1.204 -15.306  15.534  0.00  0.00    -0.029 A 
ATOM      2  CD1 TSS d   1      -0.630 -15.316  14.265  0.00  0.00    -0.015 A 
ATOM      3  NE1 TSS d   1      -1.106 -16.360  13.525  0.00  0.00    -0.365 N 
ATOM      4  CE2 TSS d   1      -1.993 -17.087  14.230  0.00  0.00     0.042 A 
ATOM      5  CD2 TSS d   1      -2.114 -16.467  15.558  0.00  0.00    -0.002 A 
ATOM      6  CZ2 TSS d   1      -2.755 -18.219  13.961  0.00  0.00    -0.056 A 
ATOM      7  CH2 TSS d   1      -3.601 -18.729  14.948  0.00  0.00    -0.081 A 
ATOM      8  CZ3 TSS d   1      -3.703 -18.128  16.211  0.00  0.00    -0.082 A 
ATOM      9  CE3 TSS d   1      -2.955 -16.992  16.526  0.00  0.00    -0.070 A 
ATOM     10  H8  TSS d   1       0.100 -14.589  13.911  0.00  0.00     0.112 H 
ATOM     11  H9  TSS d   1      -0.824 -16.564  12.556  0.00  0.00     0.165 HD
ATOM     12  H10 TSS d   1      -2.693 -18.702  12.992  0.00  0.00     0.086 H 
ATOM     13  H11 TSS d   1      -4.193 -19.611  14.733  0.00  0.00     0.083 H 
ATOM     14  H12 TSS d   1      -4.371 -18.551  16.952  0.00  0.00     0.083 H 
ATOM     15  H13 TSS d   1      -3.030 -16.532  17.505  0.00  0.00     0.084 H 
ENDROOT
BRANCH   1  16
ATOM     16  CB  TSS d   1      -0.929 -14.327  16.648  0.00  0.00    -0.017 C 
ATOM     17  H6  TSS d   1      -0.772 -14.886  17.582  0.00  0.00     0.042 H 
ATOM     18  H7  TSS d   1      -0.020 -13.757  16.404  0.00  0.00     0.042 H 
BRANCH  16  19
ATOM     19  CA  TSS d   1      -2.081 -13.356  16.844  0.00  0.00     0.083 C 
ATOM     20  H4  TSS d   1      -2.122 -12.656  15.996  0.00  0.00     0.075 H 
ATOM     21  H5  TSS d   1      -3.027 -13.914  16.906  0.00  0.00     0.075 H 
BRANCH  19  22
ATOM     22  N1  TSS d   1      -1.870 -12.616  18.077  0.00  0.00    -0.079 N 
ATOM     23  H1  TSS d   1      -2.631 -11.969  18.215  0.00  0.00     0.274 HD
ATOM     24  H2  TSS d   1      -1.002 -12.107  18.019  0.00  0.00     0.274 HD
ATOM     25  H3  TSS d   1      -1.831 -13.259  18.852  0.00  0.00     0.274 HD
ENDBRANCH  19  22
ENDBRANCH  16  19
ENDBRANCH   1  16
TORSDOF 3
