REMARK  2 active torsions:
REMARK  status: ('A' for Active; 'I' for Inactive)
REMARK    1  A    between atoms: CD_1  and  C1_3 
REMARK    2  A    between atoms: C4_8  and  NE_9 
REMARK       I    between atoms: NE_9  and  CZ_10 
REMARK       I    between atoms: CZ_10  and  NH2_12 
ROOT
ATOM      1  C1  GBS d   1      -0.962 -14.995  14.764  0.00  0.00     0.041 A 
ATOM      2  C21 GBS d   1      -0.701 -13.927  15.630  0.00  0.00    -0.064 A 
ATOM      3  C22 GBS d   1      -1.909 -15.964  15.126  0.00  0.00    -0.064 A 
ATOM      4  C31 GBS d   1      -1.286 -13.884  16.889  0.00  0.00    -0.056 A 
ATOM      5  C32 GBS d   1      -2.499 -15.931  16.382  0.00  0.00    -0.056 A 
ATOM      6  C4  GBS d   1      -2.152 -14.919  17.310  0.00  0.00     0.049 A 
ATOM      7  H1  GBS d   1      -0.038 -13.129  15.316  0.00  0.00     0.085 H 
ATOM      8  H2  GBS d   1      -2.181 -16.742  14.422  0.00  0.00     0.085 H 
ATOM      9  H3  GBS d   1      -1.077 -13.052  17.552  0.00  0.00     0.087 H 
ATOM     10  H4  GBS d   1      -3.230 -16.684  16.654  0.00  0.00     0.087 H 
ENDROOT
BRANCH   6  11
ATOM     11  NE  GBS d   1      -2.762 -14.898  18.579  0.00  0.00    -0.193 N 
ATOM     12  CZ  GBS d   1      -2.520 -13.759  19.455  0.00  0.00     0.669 C 
ATOM     13  NH1 GBS d   1      -2.175 -12.604  18.956  0.00  0.00    -0.235 N 
ATOM     14  NH2 GBS d   1      -2.605 -14.082  20.843  0.00  0.00    -0.235 N 
ATOM     15  H6  GBS d   1      -2.005 -11.803  19.581  0.00  0.00     0.174 HD
ATOM     16  H7  GBS d   1      -2.072 -12.493  17.937  0.00  0.00     0.174 HD
ATOM     17  H8  GBS d   1      -2.889 -15.028  21.135  0.00  0.00     0.174 HD
ATOM     18  H9  GBS d   1      -2.383 -13.369  21.552  0.00  0.00     0.174 HD
ATOM     19  H5  GBS d   1      -3.368 -15.674  18.882  0.00  0.00     0.184 HD
ENDBRANCH   6  11
BRANCH   1  20
ATOM     20  CD  GBS d   1      -0.263 -15.134  13.486  0.00  0.00     0.209 C 
ATOM     21  OD  GBS d   1      -0.537 -16.278  12.790  0.00  0.00    -0.644 OA
ATOM     22  OXT GBS d   1       0.544 -14.360  12.956  0.00  0.00    -0.644 OA
ENDBRANCH   1  20
TORSDOF 2
