REMARK  5 active torsions:
REMARK  status: ('A' for Active; 'I' for Inactive)
REMARK    1  A    between atoms: C1_1  and  N1_2 
REMARK    2  A    between atoms: C5_9  and  O1_3 
REMARK    3  A    between atoms: O1_3  and  C6_10 
REMARK    4  A    between atoms: N2_5  and  C3_7 
REMARK    5  A    between atoms: C4_8  and  C5_9 
ROOT
ATOM      1  C1  SZ8 d   1      -1.918 -13.692  17.089  0.00  0.00     0.125 C 
ATOM      2  C2  SZ8 d   1      -0.948 -13.618  15.952  0.00  0.00     0.110 C 
ATOM      3  N2  SZ8 d   1      -1.196 -14.806  15.179  0.00  0.00    -0.059 N 
ATOM      4  C4  SZ8 d   1      -1.954 -15.720  15.980  0.00  0.00     0.188 C 
ATOM      5  C7  SZ8 d   1      -2.448 -15.086  17.238  0.00  0.00    -0.001 C 
ATOM      6  H1  SZ8 d   1      -2.787 -13.145  16.696  0.00  0.00     0.086 H 
ATOM      7  H5  SZ8 d   1       0.087 -13.608  16.325  0.00  0.00     0.079 H 
ATOM      8  H6  SZ8 d   1      -1.128 -12.717  15.347  0.00  0.00     0.079 H 
ATOM      9  H7  SZ8 d   1      -0.327 -15.214  15.487  0.00  0.00     0.280 HD
ATOM     10  H11 SZ8 d   1      -1.103 -16.286  16.385  0.00  0.00     0.101 H 
ATOM     11  H15 SZ8 d   1      -3.547 -15.096  17.290  0.00  0.00     0.040 H 
ATOM     12  H16 SZ8 d   1      -2.034 -15.582  18.129  0.00  0.00     0.040 H 
ENDROOT
BRANCH   4  13
ATOM     13  C5  SZ8 d   1      -2.718 -16.879  15.514  0.00  0.00     0.289 C 
ATOM     14  O2  SZ8 d   1      -2.575 -17.323  14.447  0.00  0.00    -0.263 OA
BRANCH  13  15
ATOM     15  O1  SZ8 d   1      -3.593 -17.498  16.430  0.00  0.00    -0.325 OA
BRANCH  15  16
ATOM     16  C6  SZ8 d   1      -4.480 -18.455  15.881  0.00  0.00     0.013 C 
ATOM     17  H12 SZ8 d   1      -5.111 -18.871  16.680  0.00  0.00     0.067 H 
ATOM     18  H13 SZ8 d   1      -3.901 -19.265  15.412  0.00  0.00     0.067 H 
ATOM     19  H14 SZ8 d   1      -5.117 -17.973  15.124  0.00  0.00     0.067 H 
ENDBRANCH  15  16
ENDBRANCH  13  15
ENDBRANCH   4  13
BRANCH   3  20
ATOM     20  C3  SZ8 d   1      -0.765 -15.053  13.807  0.00  0.00     0.067 C 
ATOM     21  H8  SZ8 d   1      -1.105 -16.050  13.490  0.00  0.00     0.068 H 
ATOM     22  H9  SZ8 d   1       0.333 -15.006  13.753  0.00  0.00     0.068 H 
ATOM     23  H10 SZ8 d   1      -1.198 -14.290  13.144  0.00  0.00     0.068 H 
ENDBRANCH   3  20
BRANCH   1  24
ATOM     24  N1  SZ8 d   1      -1.646 -12.960  18.264  0.00  0.00    -0.073 N 
ATOM     25  H2  SZ8 d   1      -1.298 -12.047  18.018  0.00  0.00     0.274 HD
ATOM     26  H3  SZ8 d   1      -0.953 -13.447  18.811  0.00  0.00     0.274 HD
ATOM     27  H4  SZ8 d   1      -2.492 -12.863  18.803  0.00  0.00     0.274 HD
ENDBRANCH   1  24
TORSDOF 5
