REMARK  4 active torsions:
REMARK  status: ('A' for Active; 'I' for Inactive)
REMARK    1  A    between atoms: C5_7  and  N_1 
REMARK    2  A    between atoms: C2_4  and  C1_3 
REMARK    3  A    between atoms: C4_6  and  C5_7 
REMARK    4  A    between atoms: C6_8  and  C7_9 
ROOT
ATOM      1  O   SZ9 d   1      -1.799 -15.827  15.489  0.00  0.00    -0.320 OA
ATOM      2  C2  SZ9 d   1      -1.465 -14.605  14.967  0.00  0.00     0.050 A 
ATOM      3  C3  SZ9 d   1      -1.384 -13.552  15.861  0.00  0.00    -0.045 A 
ATOM      4  C4  SZ9 d   1      -1.688 -14.105  17.097  0.00  0.00    -0.001 A 
ATOM      5  C6  SZ9 d   1      -1.943 -15.549  16.823  0.00  0.00     0.057 A 
ATOM      6  H7  SZ9 d   1      -1.136 -12.514  15.642  0.00  0.00     0.088 H 
ENDROOT
BRANCH   4   7
ATOM      7  C5  SZ9 d   1      -1.746 -13.398  18.432  0.00  0.00     0.106 C 
ATOM      8  H8  SZ9 d   1      -0.997 -13.837  19.108  0.00  0.00     0.082 H 
ATOM      9  H9  SZ9 d   1      -1.528 -12.330  18.287  0.00  0.00     0.082 H 
BRANCH   7  10
ATOM     10  N   SZ9 d   1      -3.061 -13.541  19.019  0.00  0.00    -0.075 N 
ATOM     11  H1  SZ9 d   1      -3.086 -13.066  19.907  0.00  0.00     0.274 HD
ATOM     12  H2  SZ9 d   1      -3.264 -14.519  19.155  0.00  0.00     0.274 HD
ATOM     13  H3  SZ9 d   1      -3.750 -13.138  18.403  0.00  0.00     0.274 HD
ENDBRANCH   7  10
ENDBRANCH   4   7
BRANCH   5  14
ATOM     14  C7  SZ9 d   1      -2.313 -16.725  17.687  0.00  0.00    -0.031 C 
ATOM     15  H10 SZ9 d   1      -2.404 -16.397  18.733  0.00  0.00     0.036 H 
ATOM     16  H11 SZ9 d   1      -1.532 -17.496  17.611  0.00  0.00     0.036 H 
ATOM     17  H12 SZ9 d   1      -3.273 -17.141  17.349  0.00  0.00     0.036 H 
ENDBRANCH   5  14
BRANCH   2  18
ATOM     18  C1  SZ9 d   1      -1.203 -14.414  13.496  0.00  0.00    -0.031 C 
ATOM     19  H4  SZ9 d   1      -0.954 -13.360  13.302  0.00  0.00     0.036 H 
ATOM     20  H5  SZ9 d   1      -2.102 -14.689  12.925  0.00  0.00     0.036 H 
ATOM     21  H6  SZ9 d   1      -0.362 -15.053  13.187  0.00  0.00     0.036 H 
ENDBRANCH   2  18
TORSDOF 4
