REMARK  3 active torsions:
REMARK  status: ('A' for Active; 'I' for Inactive)
REMARK    1  A    between atoms: C1_1  and  N1_2 
REMARK    2  A    between atoms: C2_4  and  C1_1 
REMARK    3  A    between atoms: C4_8  and  C5_9 
ROOT
ATOM      1  S1  SW1 d   1      -1.207 -14.571  14.514  0.00  0.00    -0.079 SA
ATOM      2  C2  SW1 d   1      -1.738 -13.992  16.986  0.00  0.00     0.067 A 
ATOM      3  N2  SW1 d   1      -2.293 -15.228  16.764  0.00  0.00    -0.243 NA
ATOM      4  C3  SW1 d   1      -1.097 -13.480  15.852  0.00  0.00    -0.017 A 
ATOM      5  C4  SW1 d   1      -2.097 -15.672  15.504  0.00  0.00     0.115 A 
ATOM      6  H6  SW1 d   1      -0.592 -12.516  15.816  0.00  0.00     0.098 H 
ENDROOT
BRANCH   5   7
ATOM      7  C5  SW1 d   1      -2.620 -16.986  15.045  0.00  0.00     0.040 A 
ATOM      8  S2  SW1 d   1      -3.909 -17.788  15.852  0.00  0.00    -0.099 SA
ATOM      9  C8  SW1 d   1      -3.826 -19.096  14.724  0.00  0.00    -0.044 A 
ATOM     10  C7  SW1 d   1      -2.828 -18.898  13.775  0.00  0.00    -0.075 A 
ATOM     11  H9  SW1 d   1      -4.476 -19.969  14.753  0.00  0.00     0.095 H 
ATOM     12  C6  SW1 d   1      -2.134 -17.689  13.950  0.00  0.00    -0.063 A 
ATOM     13  H8  SW1 d   1      -2.607 -19.607  12.979  0.00  0.00     0.084 H 
ATOM     14  H7  SW1 d   1      -1.321 -17.348  13.311  0.00  0.00     0.085 H 
ENDBRANCH   5   7
BRANCH   2  15
ATOM     15  C1  SW1 d   1      -1.811 -13.278  18.317  0.00  0.00     0.119 C 
ATOM     16  H1  SW1 d   1      -1.032 -13.674  18.985  0.00  0.00     0.085 H 
ATOM     17  H2  SW1 d   1      -1.649 -12.201  18.162  0.00  0.00     0.085 H 
BRANCH  15  18
ATOM     18  N1  SW1 d   1      -3.110 -13.484  18.922  0.00  0.00    -0.074 N 
ATOM     19  H3  SW1 d   1      -3.148 -13.004  19.808  0.00  0.00     0.274 HD
ATOM     20  H4  SW1 d   1      -3.260 -14.470  19.067  0.00  0.00     0.274 HD
ATOM     21  H5  SW1 d   1      -3.826 -13.121  18.312  0.00  0.00     0.274 HD
ENDBRANCH  15  18
ENDBRANCH   2  15
TORSDOF 3
