REMARK  3 active torsions:
REMARK  status: ('A' for Active; 'I' for Inactive)
REMARK    1  A    between atoms: C1_1  and  N1_2 
REMARK    2  A    between atoms: C2_3  and  C1_1 
REMARK    3  A    between atoms: C6_8  and  N2_4 
ROOT
ATOM      1  C2  SW2 d   1      -1.684 -14.198  16.964  0.00  0.00    -0.031 A 
ATOM      2  C3  SW2 d   1      -1.016 -13.622  15.896  0.00  0.00    -0.075 A 
ATOM      3  C4  SW2 d   1      -0.995 -14.271  14.675  0.00  0.00    -0.080 A 
ATOM      4  C5  SW2 d   1      -1.642 -15.493  14.519  0.00  0.00    -0.057 A 
ATOM      5  C6  SW2 d   1      -2.326 -16.128  15.564  0.00  0.00     0.038 A 
ATOM      6  C11 SW2 d   1      -2.323 -15.429  16.787  0.00  0.00    -0.049 A 
ATOM      7  H6  SW2 d   1      -0.513 -12.669  16.016  0.00  0.00     0.084 H 
ATOM      8  H7  SW2 d   1      -0.472 -13.826  13.836  0.00  0.00     0.083 H 
ATOM      9  H8  SW2 d   1      -1.616 -15.974  13.548  0.00  0.00     0.086 H 
ATOM     10  H13 SW2 d   1      -2.841 -15.867  17.632  0.00  0.00     0.087 H 
ENDROOT
BRANCH   5  11
ATOM     11  N2  SW2 d   1      -2.961 -17.311  15.381  0.00  0.00    -0.333 N 
ATOM     12  C7  SW2 d   1      -2.598 -18.222  14.473  0.00  0.00    -0.015 A 
ATOM     13  C8  SW2 d   1      -3.516 -19.251  14.599  0.00  0.00    -0.066 A 
ATOM     14  H9  SW2 d   1      -1.759 -18.167  13.781  0.00  0.00     0.112 H 
ATOM     15  C9  SW2 d   1      -4.416 -18.895  15.590  0.00  0.00    -0.066 A 
ATOM     16  H10 SW2 d   1      -3.528 -20.175  14.022  0.00  0.00     0.085 H 
ATOM     17  C10 SW2 d   1      -4.051 -17.657  16.069  0.00  0.00    -0.015 A 
ATOM     18  H11 SW2 d   1      -5.263 -19.489  15.930  0.00  0.00     0.085 H 
ATOM     19  H12 SW2 d   1      -4.548 -17.080  16.847  0.00  0.00     0.112 H 
ENDBRANCH   5  11
BRANCH   1  20
ATOM     20  C1  SW2 d   1      -1.703 -13.482  18.301  0.00  0.00     0.103 C 
ATOM     21  H1  SW2 d   1      -1.006 -13.987  18.987  0.00  0.00     0.082 H 
ATOM     22  H2  SW2 d   1      -1.382 -12.440  18.153  0.00  0.00     0.082 H 
BRANCH  20  23
ATOM     23  N1  SW2 d   1      -3.030 -13.488  18.888  0.00  0.00    -0.075 N 
ATOM     24  H3  SW2 d   1      -3.008 -13.006  19.773  0.00  0.00     0.274 HD
ATOM     25  H4  SW2 d   1      -3.330 -14.440  19.031  0.00  0.00     0.274 HD
ATOM     26  H5  SW2 d   1      -3.674 -13.023  18.268  0.00  0.00     0.274 HD
ENDBRANCH  20  23
ENDBRANCH   1  20
TORSDOF 3
