REMARK  6 active torsions:
REMARK  status: ('A' for Active; 'I' for Inactive)
REMARK    1  A    between atoms: CAC_1  and  CA_2 
REMARK    2  A    between atoms: CA_2  and  CB_3 
REMARK    3  A    between atoms: CB_3  and  CBC_4 
REMARK    4  A    between atoms: CB_3  and  CG_5 
REMARK    5  A    between atoms: CB_3  and  OHB_13 
REMARK    6  A    between atoms: CG_5  and  CGC_6 
ROOT
ATOM      1  CB  FLC d   1       4.842  11.096  40.041  0.00  0.00     0.164 C 
ENDROOT
BRANCH   1   2
ATOM      2  CA  FLC d   1       4.814  12.474  40.654  0.00  0.00     0.054 C 
ATOM      3  H   FLC d   1       4.014  12.471  41.394  0.00  0.00     0.054 H 
ATOM      4  H   FLC d   1       5.812  12.661  41.050  0.00  0.00     0.054 H 
BRANCH   2   5
ATOM      5  CAC FLC d   1       4.518  13.575  39.713  0.00  0.00     0.176 C 
ATOM      6  OA1 FLC d   1       3.622  13.451  38.850  0.00  0.00    -0.648 OA
ATOM      7  OA2 FLC d   1       5.171  14.645  39.824  0.00  0.00    -0.648 OA
ENDBRANCH   2   5
ENDBRANCH   1   2
BRANCH   1   8
ATOM      8  CBC FLC d   1       3.500  10.754  39.483  0.00  0.00     0.210 C 
ATOM      9  OB1 FLC d   1       2.482  10.664  40.236  0.00  0.00    -0.646 OA
ATOM     10  OB2 FLC d   1       3.337  10.552  38.240  0.00  0.00    -0.646 OA
ENDBRANCH   1   8
BRANCH   1  11
ATOM     11  CG  FLC d   1       5.221  10.166  41.157  0.00  0.00     0.054 C 
ATOM     12  H   FLC d   1       4.430  10.230  41.904  0.00  0.00     0.054 H 
ATOM     13  H   FLC d   1       6.206  10.476  41.506  0.00  0.00     0.054 H 
BRANCH  11  14
ATOM     14  CGC FLC d   1       5.332   8.730  40.766  0.00  0.00     0.176 C 
ATOM     15  OG1 FLC d   1       5.262   8.348  39.568  0.00  0.00    -0.648 OA
ATOM     16  OG2 FLC d   1       5.511   7.847  41.649  0.00  0.00    -0.648 OA
ENDBRANCH  11  14
ENDBRANCH   1  11
BRANCH   1  17
ATOM     17  OHB FLC d   1       5.815  11.042  39.039  0.00  0.00    -0.378 OA
ATOM     18  H   FLC d   1       5.845  10.156  38.672  0.00  0.00     0.211 HD
ENDBRANCH   1  17
TORSDOF 6
