REMARK  15 active torsions:
REMARK  status: ('A' for Active; 'I' for Inactive)
REMARK    1  A    between atoms: CAK_11  and  CAA_1 
REMARK    2  A    between atoms: CAL_12  and  CAK_11 
REMARK    3  A    between atoms: CAM_13  and  CAL_12 
REMARK    4  A    between atoms: CAN_14  and  CAM_13 
REMARK    5  A    between atoms: CAO_15  and  CAN_14 
REMARK    6  A    between atoms: CAP_16  and  CAO_15 
REMARK    7  A    between atoms: CAQ_17  and  CAP_16 
REMARK    8  A    between atoms: CAR_18  and  CAQ_17 
REMARK    9  A    between atoms: CAS_19  and  CAR_18 
REMARK   10  A    between atoms: OAV_22  and  CAS_19 
REMARK   11  A    between atoms: CAT_20  and  CAW_23 
REMARK   12  A    between atoms: CAY_25  and  CAT_20 
REMARK   13  A    between atoms: CAX_24  and  OAV_22 
REMARK   14  A    between atoms: CAY_25  and  PAZ_26 
REMARK   15  A    between atoms: CAY_25  and  PBA_27 
ROOT
ATOM      1  CAR K9H d   1      35.593   6.675  22.782  0.00  0.00    -0.045 C 
ATOM      2  H   K9H d   1      35.274   7.479  23.445  0.00  0.00     0.036 H 
ATOM      3  H   K9H d   1      34.771   5.989  22.578  0.00  0.00     0.036 H 
ENDROOT
BRANCH   1   4
ATOM      4  CAQ K9H d   1      36.705   5.912  23.448  0.00  0.00    -0.063 C 
ATOM      5  H   K9H d   1      36.339   4.939  23.775  0.00  0.00     0.033 H 
ATOM      6  H   K9H d   1      37.523   5.764  22.743  0.00  0.00     0.033 H 
BRANCH   4   7
ATOM      7  CAP K9H d   1      37.196   6.702  24.643  0.00  0.00    -0.065 C 
ATOM      8  H   K9H d   1      38.260   6.911  24.529  0.00  0.00     0.033 H 
ATOM      9  H   K9H d   1      36.647   7.641  24.709  0.00  0.00     0.033 H 
BRANCH   7  10
ATOM     10  CAO K9H d   1      36.972   5.897  25.905  0.00  0.00    -0.065 C 
ATOM     11  H   K9H d   1      36.425   4.984  25.669  0.00  0.00     0.033 H 
ATOM     12  H   K9H d   1      37.931   5.627  26.346  0.00  0.00     0.033 H 
BRANCH  10  13
ATOM     13  CAN K9H d   1      36.173   6.737  26.885  0.00  0.00    -0.065 C 
ATOM     14  H   K9H d   1      36.791   7.579  27.195  0.00  0.00     0.033 H 
ATOM     15  H   K9H d   1      35.259   7.063  26.389  0.00  0.00     0.033 H 
BRANCH  13  16
ATOM     16  CAM K9H d   1      35.783   5.944  28.134  0.00  0.00    -0.065 C 
ATOM     17  H   K9H d   1      34.781   5.535  28.008  0.00  0.00     0.033 H 
ATOM     18  H   K9H d   1      36.490   5.128  28.283  0.00  0.00     0.033 H 
BRANCH  16  19
ATOM     19  CAL K9H d   1      35.808   6.873  29.353  0.00  0.00    -0.065 C 
ATOM     20  H   K9H d   1      36.797   6.798  29.805  0.00  0.00     0.033 H 
ATOM     21  H   K9H d   1      35.569   7.878  29.007  0.00  0.00     0.033 H 
BRANCH  19  22
ATOM     22  CAK K9H d   1      34.771   6.491  30.432  0.00  0.00    -0.069 C 
ATOM     23  H   K9H d   1      34.294   7.400  30.798  0.00  0.00     0.032 H 
ATOM     24  H   K9H d   1      34.036   5.818  29.990  0.00  0.00     0.032 H 
BRANCH  22  25
ATOM     25  CAA K9H d   1      35.451   5.775  31.618  0.00  0.00    -0.077 C 
ATOM     26  H   K9H d   1      35.938   4.867  31.262  0.00  0.00     0.027 H 
ATOM     27  H   K9H d   1      36.194   6.437  32.063  0.00  0.00     0.027 H 
ATOM     28  H   K9H d   1      34.700   5.516  32.364  0.00  0.00     0.027 H 
ENDBRANCH  22  25
ENDBRANCH  19  22
ENDBRANCH  16  19
ENDBRANCH  13  16
ENDBRANCH  10  13
ENDBRANCH   7  10
ENDBRANCH   4   7
ENDBRANCH   1   4
BRANCH   1  29
ATOM     29  CAS K9H d   1      36.063   7.286  21.460  0.00  0.00     0.026 C 
ATOM     30  H   K9H d   1      36.997   7.804  21.677  0.00  0.00     0.075 H 
ATOM     31  H   K9H d   1      35.243   7.909  21.102  0.00  0.00     0.075 H 
BRANCH  29  32
ATOM     32  OAV K9H d   1      36.357   6.344  20.392  0.00  0.00    -0.350 OA
BRANCH  32  33
ATOM     33  CAX K9H d   1      35.751   6.582  19.181  0.00  0.00     0.086 A 
ATOM     34  CAI K9H d   1      36.453   6.122  18.077  0.00  0.00     0.034 A 
ATOM     35  NAU K9H d   1      35.998   6.271  16.838  0.00  0.00    -0.270 NA
ATOM     36  H   K9H d   1      37.409   5.622  18.231  0.00  0.00     0.119 H 
ATOM     37  CAH K9H d   1      34.841   6.861  16.619  0.00  0.00     0.008 A 
ATOM     38  CAW K9H d   1      34.076   7.369  17.654  0.00  0.00    -0.036 A 
ATOM     39  H   K9H d   1      34.477   6.952  15.596  0.00  0.00     0.115 H 
ATOM     40  CAJ K9H d   1      34.520   7.224  18.973  0.00  0.00    -0.042 A 
ATOM     41  H   K9H d   1      33.930   7.597  19.810  0.00  0.00     0.088 H 
BRANCH  38  42
ATOM     42  CAT K9H d   1      32.740   8.025  17.234  0.00  0.00    -0.012 C 
ATOM     43  H   K9H d   1      32.134   7.995  18.140  0.00  0.00     0.042 H 
ATOM     44  H   K9H d   1      32.443   7.473  16.342  0.00  0.00     0.042 H 
BRANCH  42  45
ATOM     45  CAY K9H d   1      32.685   9.519  16.791  0.00  0.00     0.166 C 
ATOM     46  H   K9H d   1      32.502  10.058  17.720  0.00  0.00     0.084 H 
BRANCH  45  47
ATOM     47  PAZ K9H d   1      34.260  10.356  16.216  0.00  0.00     0.277 P 
ATOM     48  OAB K9H d   1      33.995  11.119  14.819  0.00  0.00    -0.639 OA
ATOM     49  OAD K9H d   1      34.431  11.494  17.403  0.00  0.00    -0.639 OA
ATOM     50  OAE K9H d   1      35.489   9.520  16.177  0.00  0.00    -0.639 OA
ENDBRANCH  45  47
BRANCH  45  51
ATOM     51  PBA K9H d   1      31.310   9.731  15.562  0.00  0.00     0.277 P 
ATOM     52  OAC K9H d   1      30.327  10.785  16.316  0.00  0.00    -0.639 OA
ATOM     53  OAF K9H d   1      31.797  10.478  14.184  0.00  0.00    -0.639 OA
ATOM     54  OAG K9H d   1      30.657   8.453  15.313  0.00  0.00    -0.639 OA
ENDBRANCH  45  51
ENDBRANCH  42  45
ENDBRANCH  38  42
ENDBRANCH  32  33
ENDBRANCH  29  32
ENDBRANCH   1  29
TORSDOF 15
