REMARK WARNING: 32 MAX_TORS EXCEEDED!!!
REMARK  56 active torsions:
REMARK  status: ('A' for Active; 'I' for Inactive)
REMARK    1  A    between atoms: N_1  and  CA_2 
REMARK    2  A    between atoms: CA_2  and  C_3 
REMARK    3  A    between atoms: CA_2  and  CB_5 
REMARK       I    between atoms: C_3  and  N_6 
REMARK    4  A    between atoms: N_6  and  CA_7 
REMARK    5  A    between atoms: CA_7  and  C_8 
REMARK       I    between atoms: C_8  and  N_10 
REMARK    6  A    between atoms: CA_11  and  C_12 
REMARK       I    between atoms: C_12  and  N_17 
REMARK    7  A    between atoms: N_17  and  CA_18 
REMARK    8  A    between atoms: CA_18  and  C_19 
REMARK    9  A    between atoms: CA_18  and  CB_21 
REMARK       I    between atoms: C_19  and  N_24 
REMARK   10  A    between atoms: CB_21  and  OG1_22 
REMARK   11  A    between atoms: CB_21  and  CG2_23 
REMARK   12  A    between atoms: N_24  and  CA_25 
REMARK   13  A    between atoms: CA_25  and  C_26 
REMARK   14  A    between atoms: CA_25  and  CB_28 
REMARK       I    between atoms: C_26  and  N_29 
REMARK   15  A    between atoms: N_29  and  CA_30 
REMARK   16  A    between atoms: CA_30  and  C_31 
REMARK   17  A    between atoms: CA_30  and  CB_33 
REMARK       I    between atoms: C_31  and  N_38 
REMARK   18  A    between atoms: CB_33  and  CG_34 
REMARK   19  A    between atoms: CG_34  and  CD_35 
REMARK   20  A    between atoms: CD_35  and  CE_36 
REMARK   21  A    between atoms: CE_36  and  NZ_37 
REMARK   22  A    between atoms: N_38  and  CA_39 
REMARK   23  A    between atoms: CA_39  and  C_40 
REMARK   24  A    between atoms: CA_39  and  CB_42 
REMARK       I    between atoms: C_40  and  N_47 
REMARK   25  A    between atoms: CB_42  and  CG_43 
REMARK   26  A    between atoms: CG_43  and  CD_44 
REMARK   27  A    between atoms: CD_44  and  CE_45 
REMARK   28  A    between atoms: CE_45  and  NZ_46 
REMARK   29  A    between atoms: N_47  and  CA_48 
REMARK   30  A    between atoms: CA_48  and  C_49 
REMARK   31  A    between atoms: CA_48  and  CB_51 
REMARK       I    between atoms: C_49  and  N_55 
REMARK   32  A    between atoms: CB_51  and  CG_52 
REMARK   33  A    between atoms: CG_52  and  CD1_53 
REMARK   34  A    between atoms: CG_52  and  CD2_54 
REMARK   35  A    between atoms: N_55  and  CA_56 
REMARK   36  A    between atoms: CA_56  and  C_57 
REMARK   37  A    between atoms: CA_56  and  CB_59 
REMARK       I    between atoms: C_57  and  N_64 
REMARK   38  A    between atoms: CB_59  and  CG_60 
REMARK   39  A    between atoms: CG_60  and  CD_61 
REMARK   40  A    between atoms: CD_61  and  CE_62 
REMARK   41  A    between atoms: CE_62  and  NZ_63 
REMARK   42  A    between atoms: N_64  and  CA_65 
REMARK   43  A    between atoms: CA_65  and  C_66 
REMARK   44  A    between atoms: CA_65  and  CB_68 
REMARK       I    between atoms: C_66  and  N_71 
REMARK   45  A    between atoms: CB_68  and  OG1_69 
REMARK   46  A    between atoms: CB_68  and  CG2_70 
REMARK   47  A    between atoms: N_71  and  CA_72 
REMARK   48  A    between atoms: CA_72  and  C_73 
REMARK   49  A    between atoms: CA_72  and  CB_75 
REMARK       I    between atoms: C_73  and  N_80 
REMARK   50  A    between atoms: CB_75  and  CG_76 
REMARK   51  A    between atoms: CG_76  and  CD_77 
REMARK   52  A    between atoms: N_80  and  CA_81 
REMARK   53  A    between atoms: CA_81  and  C_82 
REMARK   54  A    between atoms: CA_81  and  CB_84 
REMARK   55  A    between atoms: CB_84  and  CG_85 
REMARK   56  A    between atoms: CG_85  and  CD_86 
REMARK       I    between atoms: CD_86  and  NE2_88 
ROOT
ATOM      1  CA  LYS d   1      37.400  83.052  57.218  0.00  0.00     0.089 C 
ATOM      2  H   LYS d   1      36.757  83.106  56.340  0.00  0.00     0.087 H 
ENDROOT
BRANCH   1   3
ATOM      3  N   LYS d   1      38.650  82.471  56.820  0.00  0.00    -0.346 N 
ATOM      4  C   LYS d   1      38.809  81.914  55.644  0.00  0.00     0.241 C 
ATOM      5  O   LYS d   1      37.950  81.881  54.812  0.00  0.00    -0.271 OA
ATOM      6  H   LYS d   1      39.436  82.492  57.470  0.00  0.00     0.163 HD
BRANCH   4   7
ATOM      7  CA  LYS d   1      40.128  81.252  55.410  0.00  0.00     0.089 C 
ATOM      8  H   LYS d   1      40.477  80.881  56.374  0.00  0.00     0.087 H 
BRANCH   7   9
ATOM      9  N   LYS d   1      39.991  80.146  54.525  0.00  0.00    -0.346 N 
ATOM     10  C   ALA d   1      40.441  78.960  54.842  0.00  0.00     0.240 C 
ATOM     11  O   ALA d   1      40.963  78.726  55.873  0.00  0.00    -0.271 OA
ATOM     12  H   LYS d   1      39.532  80.281  53.624  0.00  0.00     0.163 HD
BRANCH  10  13
ATOM     13  CA  ALA d   1      40.335  77.901  53.791  0.00  0.00     0.086 C 
ATOM     14  H   ALA d   1      40.323  76.935  54.297  0.00  0.00     0.086 H 
BRANCH  13  15
ATOM     15  N   ALA d   1      39.135  78.041  53.042  0.00  0.00    -0.346 N 
ATOM     16  C   THR d   1      37.989  77.645  53.525  0.00  0.00     0.243 C 
ATOM     17  O   THR d   1      37.848  77.182  54.602  0.00  0.00    -0.271 OA
ATOM     18  H   ALA d   1      39.170  78.458  52.112  0.00  0.00     0.163 HD
BRANCH  16  19
ATOM     19  CA  THR d   1      36.839  77.845  52.649  0.00  0.00     0.113 C 
ATOM     20  H   THR d   1      37.047  77.791  51.580  0.00  0.00     0.091 H 
BRANCH  19  21
ATOM     21  N   THR d   1      35.853  76.781  52.833  0.00  0.00    -0.343 N 
ATOM     22  C   PRO d   1      36.074  75.589  52.293  0.00  0.00     0.245 C 
ATOM     23  O   PRO d   1      37.184  75.260  51.933  0.00  0.00    -0.271 OA
ATOM     24  H   THR d   1      35.004  76.953  53.371  0.00  0.00     0.163 HD
BRANCH  22  25
ATOM     25  CA  PRO d   1      34.915  74.617  52.089  0.00  0.00     0.108 C 
ATOM     26  N   PRO d   1      35.258  73.446  51.293  0.00  0.00    -0.331 N 
ATOM     27  C   GLY d   1      35.790  73.535  50.083  0.00  0.00     0.238 C 
ATOM     28  CD  PRO d   1      35.946  72.455  52.103  0.00  0.00     0.014 C 
ATOM     29  O   GLY d   1      35.927  74.593  49.510  0.00  0.00    -0.272 OA
ATOM     30  CG  PRO d   1      35.764  72.978  53.448  0.00  0.00    -0.087 C 
ATOM     31  H   PRO d   1      36.993  72.328  51.829  0.00  0.00     0.070 H 
ATOM     32  H   PRO d   1      35.551  71.447  51.977  0.00  0.00     0.070 H 
ATOM     33  CB  PRO d   1      34.835  74.038  53.460  0.00  0.00    -0.075 C 
ATOM     34  H   PRO d   1      36.279  72.600  54.331  0.00  0.00     0.079 H 
ATOM     35  H   PRO d   1      34.201  74.361  54.286  0.00  0.00     0.080 H 
ATOM     36  H   PRO d   1      34.063  75.120  51.630  0.00  0.00     0.094 H 
BRANCH  27  37
ATOM     37  CA  GLY d   1      36.237  72.258  49.407  0.00  0.00     0.069 C 
ATOM     38  H   GLY d   1      36.626  71.562  50.150  0.00  0.00     0.078 H 
ATOM     39  H   GLY d   1      35.392  71.791  48.901  0.00  0.00     0.078 H 
BRANCH  37  40
ATOM     40  N   GLY d   1      37.270  72.580  48.446  0.00  0.00    -0.351 N 
ATOM     41  C   ASP d   1      38.156  71.716  47.965  0.00  0.00     0.248 C 
ATOM     42  O   ASP d   1      39.144  72.073  47.355  0.00  0.00    -0.271 OA
ATOM     43  H   GLY d   1      37.321  73.543  48.113  0.00  0.00     0.163 HD
BRANCH  41  44
ATOM     44  CA  ASP d   1      37.890  70.239  48.165  0.00  0.00     0.172 C 
ATOM     45  H   ASP d   1      36.977  70.104  48.745  0.00  0.00     0.098 H 
BRANCH  44  46
ATOM     46  N   ASP d   1      37.760  69.632  46.856  0.00  0.00    -0.067 N 
ATOM     47  H   ASP d   1      36.999  70.082  46.348  0.00  0.00     0.275 HD
ATOM     48  H   ASP d   1      38.632  69.750  46.340  0.00  0.00     0.275 HD
ATOM     49  H   ASP d   1      37.558  68.638  46.962  0.00  0.00     0.275 HD
ENDBRANCH  44  46
BRANCH  44  50
ATOM     50  CB  ASP d   1      39.025  69.577  48.941  0.00  0.00    -0.042 C 
ATOM     51  H   ASP d   1      39.957  69.692  48.388  0.00  0.00     0.030 H 
ATOM     52  H   ASP d   1      39.120  70.050  49.918  0.00  0.00     0.030 H 
ATOM     53  H   ASP d   1      38.806  68.517  49.069  0.00  0.00     0.030 H 
ENDBRANCH  44  50
ENDBRANCH  41  44
ENDBRANCH  37  40
ENDBRANCH  27  37
ENDBRANCH  22  25
ENDBRANCH  19  21
BRANCH  19  54
ATOM     54  CB  THR d   1      36.376  79.229  53.047  0.00  0.00     0.060 C 
ATOM     55  H   THR d   1      37.150  79.712  53.644  0.00  0.00     0.086 H 
BRANCH  54  56
ATOM     56  OG1 THR d   1      35.210  79.141  53.861  0.00  0.00    -0.393 OA
ATOM     57  H   THR d   1      34.926  80.024  54.107  0.00  0.00     0.210 HD
ENDBRANCH  54  56
BRANCH  54  58
ATOM     58  CG2 THR d   1      36.171  80.086  51.835  0.00  0.00    -0.050 C 
ATOM     59  H   THR d   1      37.110  80.171  51.289  0.00  0.00     0.031 H 
ATOM     60  H   THR d   1      35.416  79.631  51.194  0.00  0.00     0.031 H 
ATOM     61  H   THR d   1      35.838  81.077  52.144  0.00  0.00     0.031 H 
ENDBRANCH  54  58
ENDBRANCH  19  54
ENDBRANCH  16  19
ENDBRANCH  13  15
BRANCH  13  62
ATOM     62  CB  ALA d   1      41.480  77.960  52.887  0.00  0.00    -0.049 C 
ATOM     63  H   ALA d   1      41.408  77.152  52.159  0.00  0.00     0.030 H 
ATOM     64  H   ALA d   1      41.483  78.919  52.369  0.00  0.00     0.030 H 
ATOM     65  H   ALA d   1      42.400  77.853  53.461  0.00  0.00     0.030 H 
ENDBRANCH  13  62
ENDBRANCH  10  13
ENDBRANCH   7   9
BRANCH   7  66
ATOM     66  CB  LYS d   1      41.168  82.220  54.905  0.00  0.00    -0.038 C 
ATOM     67  H   LYS d   1      41.326  82.973  55.678  0.00  0.00     0.036 H 
ATOM     68  H   LYS d   1      40.803  82.644  53.970  0.00  0.00     0.036 H 
BRANCH  66  69
ATOM     69  CG  LYS d   1      42.454  81.581  54.634  0.00  0.00    -0.061 C 
ATOM     70  H   LYS d   1      42.319  80.856  53.831  0.00  0.00     0.033 H 
ATOM     71  H   LYS d   1      42.801  81.099  55.548  0.00  0.00     0.033 H 
BRANCH  69  72
ATOM     72  CD  LYS d   1      43.439  82.544  54.221  0.00  0.00    -0.043 C 
ATOM     73  H   LYS d   1      43.725  83.144  55.085  0.00  0.00     0.035 H 
ATOM     74  H   LYS d   1      43.011  83.168  53.437  0.00  0.00     0.035 H 
BRANCH  72  75
ATOM     75  CE  LYS d   1      44.630  81.881  53.695  0.00  0.00     0.080 C 
ATOM     76  H   LYS d   1      44.312  81.156  52.946  0.00  0.00     0.075 H 
ATOM     77  H   LYS d   1      45.152  81.410  54.528  0.00  0.00     0.075 H 
BRANCH  75  78
ATOM     78  NZ  LYS d   1      45.535  82.807  53.066  0.00  0.00    -0.079 N 
ATOM     79  H   LYS d   1      46.348  82.301  52.715  0.00  0.00     0.274 HD
ATOM     80  H   LYS d   1      45.061  83.270  52.291  0.00  0.00     0.274 HD
ATOM     81  H   LYS d   1      45.835  83.504  53.748  0.00  0.00     0.274 HD
ENDBRANCH  75  78
ENDBRANCH  72  75
ENDBRANCH  69  72
ENDBRANCH  66  69
ENDBRANCH   7  66
ENDBRANCH   4   7
ENDBRANCH   1   3
BRANCH   1  82
ATOM     82  C   LYS d   1      37.642  84.420  57.771  0.00  0.00     0.241 C 
ATOM     83  O   LYS d   1      38.432  84.608  58.641  0.00  0.00    -0.271 OA
ATOM     84  N   LEU d   1      36.916  85.376  57.247  0.00  0.00    -0.346 N 
ATOM     85  H   LEU d   1      36.327  85.177  56.438  0.00  0.00     0.163 HD
BRANCH  84  86
ATOM     86  CA  LEU d   1      36.940  86.708  57.801  0.00  0.00     0.089 C 
ATOM     87  H   LEU d   1      37.925  86.928  58.214  0.00  0.00     0.087 H 
BRANCH  86  88
ATOM     88  C   LEU d   1      35.907  86.793  58.920  0.00  0.00     0.241 C 
ATOM     89  O   LEU d   1      34.797  86.353  58.741  0.00  0.00    -0.271 OA
ATOM     90  N   LYS d   1      36.299  87.297  60.090  0.00  0.00    -0.346 N 
ATOM     91  H   LYS d   1      37.283  87.526  60.228  0.00  0.00     0.163 HD
BRANCH  90  92
ATOM     92  CA  LYS d   1      35.381  87.523  61.150  0.00  0.00     0.089 C 
ATOM     93  H   LYS d   1      34.579  86.789  61.077  0.00  0.00     0.087 H 
BRANCH  92  94
ATOM     94  C   LYS d   1      34.721  88.906  61.045  0.00  0.00     0.241 C 
ATOM     95  O   LYS d   1      35.375  89.947  61.026  0.00  0.00    -0.271 OA
ATOM     96  N   THR d   1      33.418  88.904  60.903  0.00  0.00    -0.344 N 
ATOM     97  H   THR d   1      32.907  88.024  60.978  0.00  0.00     0.163 HD
BRANCH  96  98
ATOM     98  CA  THR d   1      32.686  90.137  60.639  0.00  0.00     0.113 C 
ATOM     99  H   THR d   1      33.418  90.908  60.399  0.00  0.00     0.091 H 
BRANCH  98 100
ATOM    100  C   THR d   1      31.903  90.560  61.880  0.00  0.00     0.243 C 
ATOM    101  O   THR d   1      31.549  91.703  62.014  0.00  0.00    -0.271 OA
ATOM    102  N   GLU d   1      31.680  89.634  62.809  0.00  0.00    -0.346 N 
ATOM    103  H   GLU d   1      32.121  88.720  62.704  0.00  0.00     0.163 HD
BRANCH 102 104
ATOM    104  CA  GLU d   1      30.825  89.873  63.980  0.00  0.00     0.090 C 
ATOM    105  H   GLU d   1      30.724  90.953  64.089  0.00  0.00     0.087 H 
BRANCH 104 106
ATOM    106  C   GLU d   1      31.427  89.177  65.153  0.00  0.00     0.241 C 
ATOM    107  O   GLU d   1      32.126  88.193  64.962  0.00  0.00    -0.271 OA
ATOM    108  N   GLN d   1      31.051  89.622  66.353  0.00  0.00    -0.345 N 
ATOM    109  H   GLN d   1      30.406  90.412  66.392  0.00  0.00     0.163 HD
BRANCH 108 110
ATOM    110  CA  GLN d   1      31.509  89.044  67.614  0.00  0.00     0.096 C 
ATOM    111  H   GLN d   1      32.578  88.860  67.503  0.00  0.00     0.089 H 
BRANCH 110 112
ATOM    112  C   GLN d   1      30.918  87.675  67.946  0.00  0.00     0.196 C 
ATOM    113  O   GLN d   1      30.107  87.118  67.178  0.00  0.00    -0.646 OA
ATOM    114  O   GLN d   1      31.255  87.098  69.014  0.00  0.00    -0.646 OA
ENDBRANCH 110 112
BRANCH 110 115
ATOM    115  CB  GLN d   1      31.237  90.037  68.738  0.00  0.00    -0.029 C 
ATOM    116  H   GLN d   1      30.175  89.982  68.978  0.00  0.00     0.037 H 
ATOM    117  H   GLN d   1      31.547  91.023  68.391  0.00  0.00     0.037 H 
BRANCH 115 118
ATOM    118  CG  GLN d   1      32.019  89.728  70.016  0.00  0.00     0.011 C 
ATOM    119  H   GLN d   1      32.889  89.134  69.736  0.00  0.00     0.047 H 
ATOM    120  H   GLN d   1      31.346  89.208  70.698  0.00  0.00     0.047 H 
BRANCH 118 121
ATOM    121  CD  GLN d   1      32.525  90.984  70.732  0.00  0.00     0.215 C 
ATOM    122  OE1 GLN d   1      32.560  92.100  70.147  0.00  0.00    -0.274 OA
ATOM    123  NE2 GLN d   1      32.934  90.811  72.005  0.00  0.00    -0.370 N 
ATOM    124  H   GLN d   1      33.291  91.604  72.538  0.00  0.00     0.159 HD
ATOM    125  H   GLN d   1      32.886  89.887  72.435  0.00  0.00     0.159 HD
ENDBRANCH 118 121
ENDBRANCH 115 118
ENDBRANCH 110 115
ENDBRANCH 108 110
ENDBRANCH 104 106
BRANCH 104 126
ATOM    126  CB  GLU d   1      29.480  89.177  63.828  0.00  0.00    -0.029 C 
ATOM    127  H   GLU d   1      28.820  89.646  64.557  0.00  0.00     0.037 H 
ATOM    128  H   GLU d   1      29.682  88.113  63.951  0.00  0.00     0.037 H 
BRANCH 126 129
ATOM    129  CG  GLU d   1      28.794  89.308  62.521  0.00  0.00     0.018 C 
ATOM    130  H   GLU d   1      28.978  88.419  61.917  0.00  0.00     0.049 H 
ATOM    131  H   GLU d   1      29.175  90.180  61.990  0.00  0.00     0.049 H 
BRANCH 129 132
ATOM    132  CD  GLU d   1      27.323  89.463  62.759  0.00  0.00     0.172 C 
ATOM    133  OE1 GLU d   1      26.695  88.426  63.130  0.00  0.00    -0.648 OA
ATOM    134  OE2 GLU d   1      26.821  90.620  62.621  0.00  0.00    -0.648 OA
ENDBRANCH 129 132
ENDBRANCH 126 129
ENDBRANCH 104 126
ENDBRANCH 102 104
ENDBRANCH  98 100
BRANCH  98 135
ATOM    135  CB  THR d   1      31.742  90.013  59.403  0.00  0.00     0.060 C 
ATOM    136  H   THR d   1      31.158  90.930  59.331  0.00  0.00     0.086 H 
BRANCH 135 137
ATOM    137  OG1 THR d   1      30.838  88.895  59.552  0.00  0.00    -0.393 OA
ATOM    138  H   THR d   1      31.345  88.084  59.636  0.00  0.00     0.210 HD
ENDBRANCH 135 137
BRANCH 135 139
ATOM    139  CG2 THR d   1      32.543  89.828  58.174  0.00  0.00    -0.050 C 
ATOM    140  H   THR d   1      33.202  90.686  58.039  0.00  0.00     0.031 H 
ATOM    141  H   THR d   1      33.139  88.920  58.264  0.00  0.00     0.031 H 
ATOM    142  H   THR d   1      31.876  89.742  57.316  0.00  0.00     0.031 H 
ENDBRANCH 135 139
ENDBRANCH  98 135
ENDBRANCH  96  98
ENDBRANCH  92  94
BRANCH  92 143
ATOM    143  CB  LYS d   1      36.084  87.348  62.472  0.00  0.00    -0.038 C 
ATOM    144  H   LYS d   1      36.783  88.172  62.617  0.00  0.00     0.036 H 
ATOM    145  H   LYS d   1      36.619  86.398  62.469  0.00  0.00     0.036 H 
BRANCH 143 146
ATOM    146  CG  LYS d   1      35.116  87.347  63.557  0.00  0.00    -0.061 C 
ATOM    147  H   LYS d   1      34.591  86.392  63.541  0.00  0.00     0.033 H 
ATOM    148  H   LYS d   1      34.442  88.191  63.410  0.00  0.00     0.033 H 
BRANCH 146 149
ATOM    149  CD  LYS d   1      35.741  87.492  64.845  0.00  0.00    -0.043 C 
ATOM    150  H   LYS d   1      36.230  88.462  64.938  0.00  0.00     0.035 H 
ATOM    151  H   LYS d   1      36.521  86.744  64.991  0.00  0.00     0.035 H 
BRANCH 149 152
ATOM    152  CE  LYS d   1      34.648  87.338  65.857  0.00  0.00     0.080 C 
ATOM    153  H   LYS d   1      34.091  86.407  65.748  0.00  0.00     0.075 H 
ATOM    154  H   LYS d   1      33.866  88.091  65.761  0.00  0.00     0.075 H 
BRANCH 152 155
ATOM    155  NZ  LYS d   1      35.339  87.421  67.055  0.00  0.00    -0.079 N 
ATOM    156  H   LYS d   1      34.684  87.327  67.831  0.00  0.00     0.274 HD
ATOM    157  H   LYS d   1      36.030  86.672  67.100  0.00  0.00     0.274 HD
ATOM    158  H   LYS d   1      35.810  88.324  67.113  0.00  0.00     0.274 HD
ENDBRANCH 152 155
ENDBRANCH 149 152
ENDBRANCH 146 149
ENDBRANCH 143 146
ENDBRANCH  92 143
ENDBRANCH  90  92
ENDBRANCH  86  88
BRANCH  86 159
ATOM    159  CB  LEU d   1      36.661  87.718  56.720  0.00  0.00    -0.035 C 
ATOM    160  H   LEU d   1      35.619  87.595  56.424  0.00  0.00     0.037 H 
ATOM    161  H   LEU d   1      37.375  87.537  55.917  0.00  0.00     0.037 H 
BRANCH 159 162
ATOM    162  CG  LEU d   1      36.836  89.161  57.162  0.00  0.00    -0.059 C 
ATOM    163  H   LEU d   1      36.834  89.235  58.249  0.00  0.00     0.038 H 
BRANCH 162 164
ATOM    164  CD1 LEU d   1      38.141  89.699  56.710  0.00  0.00    -0.073 C 
ATOM    165  H   LEU d   1      38.946  89.101  57.137  0.00  0.00     0.028 H 
ATOM    166  H   LEU d   1      38.193  89.657  55.622  0.00  0.00     0.028 H 
ATOM    167  H   LEU d   1      38.240  90.733  57.040  0.00  0.00     0.028 H 
ENDBRANCH 162 164
BRANCH 162 168
ATOM    168  CD2 LEU d   1      35.682  89.948  56.583  0.00  0.00    -0.073 C 
ATOM    169  H   LEU d   1      35.703  89.874  55.496  0.00  0.00     0.028 H 
ATOM    170  H   LEU d   1      34.743  89.542  56.958  0.00  0.00     0.028 H 
ATOM    171  H   LEU d   1      35.772  90.993  56.879  0.00  0.00     0.028 H 
ENDBRANCH 162 168
ENDBRANCH 159 162
ENDBRANCH  86 159
ENDBRANCH  84  86
ENDBRANCH   1  82
BRANCH   1 172
ATOM    172  CB  LYS d   1      36.701  82.202  58.271  0.00  0.00    -0.038 C 
ATOM    173  H   LYS d   1      35.950  82.849  58.724  0.00  0.00     0.036 H 
ATOM    174  H   LYS d   1      37.491  81.827  58.922  0.00  0.00     0.036 H 
BRANCH 172 175
ATOM    175  CG  LYS d   1      35.970  81.009  57.796  0.00  0.00    -0.061 C 
ATOM    176  H   LYS d   1      36.623  80.432  57.141  0.00  0.00     0.033 H 
ATOM    177  H   LYS d   1      35.078  81.332  57.260  0.00  0.00     0.033 H 
BRANCH 175 178
ATOM    178  CD  LYS d   1      35.564  80.162  58.935  0.00  0.00    -0.043 C 
ATOM    179  H   LYS d   1      34.856  80.724  59.545  0.00  0.00     0.035 H 
ATOM    180  H   LYS d   1      36.458  79.892  59.497  0.00  0.00     0.035 H 
BRANCH 178 181
ATOM    181  CE  LYS d   1      34.902  78.913  58.485  0.00  0.00     0.080 C 
ATOM    182  H   LYS d   1      35.682  78.275  58.069  0.00  0.00     0.075 H 
ATOM    183  H   LYS d   1      34.123  79.205  57.781  0.00  0.00     0.075 H 
BRANCH 181 184
ATOM    184  NZ  LYS d   1      34.248  78.146  59.544  0.00  0.00    -0.079 N 
ATOM    185  H   LYS d   1      33.823  77.310  59.144  0.00  0.00     0.274 HD
ATOM    186  H   LYS d   1      34.940  77.876  60.243  0.00  0.00     0.274 HD
ATOM    187  H   LYS d   1      33.527  78.719  59.981  0.00  0.00     0.274 HD
ENDBRANCH 181 184
ENDBRANCH 178 181
ENDBRANCH 175 178
ENDBRANCH 172 175
ENDBRANCH   1 172
TORSDOF 56
