REMARK  4 active torsions:
REMARK  status: ('A' for Active; 'I' for Inactive)
REMARK    1  A    between atoms: C12_6  and  C1_1 
REMARK       I    between atoms: C1_1  and  N22_16 
REMARK    2  A    between atoms: C13_7  and  N2_4 
REMARK    3  A    between atoms: C14_8  and  N3_5 
REMARK    4  A    between atoms: N3_5  and  C15_9 
ROOT
ATOM      1  N1  02Z d   1      91.790  82.099 -51.029  0.00  0.00    -0.205 NA
ATOM      2  S1  02Z d   1      92.354  80.921 -48.817  0.00  0.00    -0.043 SA
ATOM      3  C12 02Z d   1      93.319  80.589 -50.170  0.00  0.00     0.121 A 
ATOM      4  C13 02Z d   1      92.879  81.310 -51.275  0.00  0.00     0.147 A 
ATOM      5  C14 02Z d   1      91.395  81.992 -49.758  0.00  0.00     0.174 A 
ENDROOT
BRANCH   5   6
ATOM      6  N3  02Z d   1      90.318  82.728 -49.281  0.00  0.00    -0.335 N 
ATOM      7  H3  02Z d   1      90.031  83.513 -49.883  0.00  0.00     0.168 HD
BRANCH   6   8
ATOM      8  C15 02Z d   1      89.573  82.577 -48.134  0.00  0.00     0.034 A 
ATOM      9  C16 02Z d   1      89.761  81.474 -47.080  0.00  0.00    -0.057 A 
ATOM     10  C17 02Z d   1      88.944  81.414 -45.912  0.00  0.00    -0.081 A 
ATOM     11  H4  02Z d   1      90.531  80.725 -47.227  0.00  0.00     0.086 H 
ATOM     12  C18 02Z d   1      87.897  82.444 -45.713  0.00  0.00    -0.083 A 
ATOM     13  H5  02Z d   1      89.087  80.627 -45.181  0.00  0.00     0.083 H 
ATOM     14  C19 02Z d   1      87.696  83.521 -46.717  0.00  0.00    -0.081 A 
ATOM     15  H6  02Z d   1      87.272  82.411 -44.828  0.00  0.00     0.083 H 
ATOM     16  C20 02Z d   1      88.515  83.586 -47.907  0.00  0.00    -0.057 A 
ATOM     17  H7  02Z d   1      86.926  84.267 -46.555  0.00  0.00     0.083 H 
ATOM     18  H8  02Z d   1      88.354  84.374 -48.633  0.00  0.00     0.086 H 
ENDBRANCH   6   8
ENDBRANCH   5   6
BRANCH   4  19
ATOM     19  N2  02Z d   1      93.444  81.258 -52.482  0.00  0.00    -0.383 N 
ATOM     20  H1  02Z d   1      94.264  80.655 -52.641  0.00  0.00     0.157 HD
ATOM     21  H2  02Z d   1      93.060  81.820 -53.255  0.00  0.00     0.157 HD
ENDBRANCH   4  19
BRANCH   3  22
ATOM     22  C1  02Z d   1      94.478  79.637 -50.120  0.00  0.00     0.260 C 
ATOM     23  O21 02Z d   1      95.173  79.414 -51.122  0.00  0.00    -0.267 OA
ATOM     24  N22 02Z d   1      94.707  79.041 -48.941  0.00  0.00    -0.365 N 
ATOM     25  H9  02Z d   1      95.465  78.396 -48.846  0.00  0.00     0.159 HD
ATOM     26  H10 02Z d   1      94.119  79.241 -48.157  0.00  0.00     0.159 HD
ENDBRANCH   3  22
TORSDOF 4
