REMARK  4 active torsions:
REMARK  status: ('A' for Active; 'I' for Inactive)
REMARK    1  A    between atoms: N_1  and  CA_2 
REMARK    2  A    between atoms: CA_2  and  C_3 
REMARK    3  A    between atoms: CA_2  and  CB_5 
REMARK    4  A    between atoms: CB_5  and  CG_6 
ROOT
ATOM      1  CG  TRP d   1     -66.986  95.366  -8.977  0.00  0.00    -0.028 A 
ATOM      2  CD1 TRP d   1     -67.136  94.457  -9.985  0.00  0.00    -0.015 A 
ATOM      3  CD2 TRP d   1     -68.269  95.955  -8.773  0.00  0.00    -0.002 A 
ATOM      4  NE1 TRP d   1     -68.439  94.447 -10.424  0.00  0.00    -0.365 N 
ATOM      5  CE2 TRP d   1     -69.160  95.339  -9.678  0.00  0.00     0.042 A 
ATOM      6  CE3 TRP d   1     -68.762  96.909  -7.880  0.00  0.00    -0.070 A 
ATOM      7  CZ2 TRP d   1     -70.514  95.671  -9.736  0.00  0.00    -0.056 A 
ATOM      8  CZ3 TRP d   1     -70.106  97.235  -7.935  0.00  0.00    -0.082 A 
ATOM      9  CH2 TRP d   1     -70.964  96.628  -8.867  0.00  0.00    -0.081 A 
ATOM     10  H7  TRP d   1     -66.339  93.831 -10.383  0.00  0.00     0.112 H 
ATOM     11  H8  TRP d   1     -68.811  93.865 -11.188  0.00  0.00     0.165 HD
ATOM     12  H9  TRP d   1     -68.106  97.384  -7.159  0.00  0.00     0.084 H 
ATOM     13  H10 TRP d   1     -71.183  95.190 -10.441  0.00  0.00     0.086 H 
ATOM     14  H11 TRP d   1     -70.504  97.972  -7.247  0.00  0.00     0.083 H 
ATOM     15  H12 TRP d   1     -72.006  96.924  -8.899  0.00  0.00     0.083 H 
ENDROOT
BRANCH   1  16
ATOM     16  CB  TRP d   1     -65.735  95.679  -8.227  0.00  0.00    -0.003 C 
ATOM     17  H5  TRP d   1     -64.903  95.743  -8.944  0.00  0.00     0.044 H 
ATOM     18  H6  TRP d   1     -65.861  96.650  -7.725  0.00  0.00     0.044 H 
BRANCH  16  19
ATOM     19  CA  TRP d   1     -65.391  94.633  -7.179  0.00  0.00     0.186 C 
ATOM     20  H4  TRP d   1     -64.398  94.864  -6.765  0.00  0.00     0.101 H 
BRANCH  19  21
ATOM     21  N   TRP d   1     -65.332  93.279  -7.792  0.00  0.00    -0.065 N 
ATOM     22  H1  TRP d   1     -64.648  93.275  -8.533  0.00  0.00     0.275 HD
ATOM     23  H2  TRP d   1     -66.236  93.041  -8.168  0.00  0.00     0.275 HD
ATOM     24  H3  TRP d   1     -65.071  92.604  -7.091  0.00  0.00     0.275 HD
ENDBRANCH  19  21
BRANCH  19  25
ATOM     25  C   TRP d   1     -66.412  94.701  -6.047  0.00  0.00     0.204 C 
ATOM     26  O   TRP d   1     -67.272  93.848  -5.849  0.00  0.00    -0.646 OA
ATOM     27  OXT TRP d   1     -66.439  95.683  -5.333  0.00  0.00    -0.646 OA
ENDBRANCH  19  25
ENDBRANCH  16  19
ENDBRANCH   1  16
TORSDOF 4
