REMARK  6 active torsions:
REMARK  status: ('A' for Active; 'I' for Inactive)
REMARK    1  A    between atoms: C5_6  and  C4_5 
REMARK    2  A    between atoms: C6_7  and  C5_6 
REMARK    3  A    between atoms: C9_10  and  N10_11 
REMARK    4  A    between atoms: N10_11  and  C11_12 
REMARK    5  A    between atoms: C11_12  and  C12_13 
REMARK    6  A    between atoms: C12_13  and  C13_14 
ROOT
ATOM      1  N1  Z60 d   1     -78.042 104.111 -64.190  0.00  0.00    -0.206 NA
ATOM      2  C2  Z60 d   1     -78.968 104.198 -63.186  0.00  0.00     0.145 A 
ATOM      3  N3  Z60 d   1     -79.386 105.466 -63.049  0.00  0.00    -0.383 N 
ATOM      4  C4  Z60 d   1     -79.322 103.069 -62.495  0.00  0.00     0.105 A 
ATOM      5  S8  Z60 d   1     -78.425 101.779 -63.150  0.00  0.00    -0.044 SA
ATOM      6  C9  Z60 d   1     -77.655 102.853 -64.283  0.00  0.00     0.169 A 
ATOM      7  H1  Z60 d   1     -80.087 105.703 -62.333  0.00  0.00     0.157 HD
ATOM      8  H2  Z60 d   1     -79.005 106.203 -63.660  0.00  0.00     0.157 HD
ENDROOT
BRANCH   6   9
ATOM      9  N10 Z60 d   1     -76.725 102.473 -65.199  0.00  0.00    -0.369 N 
ATOM     10  H3  Z60 d   1     -76.284 103.205 -65.775  0.00  0.00     0.161 HD
BRANCH   9  11
ATOM     11  C11 Z60 d   1     -76.314 101.090 -65.415  0.00  0.00    -0.006 C 
ATOM     12  H4  Z60 d   1     -77.078 100.577 -66.018  0.00  0.00     0.064 H 
ATOM     13  H5  Z60 d   1     -76.216 100.587 -64.442  0.00  0.00     0.064 H 
BRANCH  11  14
ATOM     14  C12 Z60 d   1     -74.971 101.027 -66.149  0.00  0.00    -0.054 C 
ATOM     15  H6  Z60 d   1     -74.208 101.538 -65.544  0.00  0.00     0.034 H 
ATOM     16  H7  Z60 d   1     -75.069 101.534 -67.120  0.00  0.00     0.034 H 
BRANCH  14  17
ATOM     17  C13 Z60 d   1     -74.537  99.591 -66.382  0.00  0.00    -0.075 C 
ATOM     18  H8  Z60 d   1     -73.572  99.581 -66.910  0.00  0.00     0.027 H 
ATOM     19  H9  Z60 d   1     -75.293  99.074 -66.991  0.00  0.00     0.027 H 
ATOM     20  H10 Z60 d   1     -74.431  99.078 -65.415  0.00  0.00     0.027 H 
ENDBRANCH  14  17
ENDBRANCH  11  14
ENDBRANCH   9  11
ENDBRANCH   6   9
BRANCH   4  21
ATOM     21  C5  Z60 d   1     -80.271 102.945 -61.396  0.00  0.00     0.209 C 
ATOM     22  O7  Z60 d   1     -80.912 103.951 -61.051  0.00  0.00    -0.285 OA
BRANCH  21  23
ATOM     23  C6  Z60 d   1     -80.450 101.654 -60.668  0.00  0.00     0.058 A 
ATOM     24  S14 Z60 d   1     -80.851 101.708 -58.980  0.00  0.00    -0.074 SA
ATOM     25  C15 Z60 d   1     -80.900 100.017 -58.858  0.00  0.00     0.075 A 
ATOM     26 CL   Z60 d   1     -81.281  99.250 -57.338  0.00  0.00    -0.076 Cl
ATOM     27  C16 Z60 d   1     -80.622  99.388 -60.039  0.00  0.00    -0.054 A 
ATOM     28  C17 Z60 d   1     -80.360 100.329 -61.094  0.00  0.00    -0.060 A 
ATOM     29  H11 Z60 d   1     -80.601  98.307 -60.166  0.00  0.00     0.086 H 
ATOM     30  H12 Z60 d   1     -80.118 100.039 -62.115  0.00  0.00     0.085 H 
ENDBRANCH  21  23
ENDBRANCH   4  21
TORSDOF 6
