REMARK  8 active torsions:
REMARK  status: ('A' for Active; 'I' for Inactive)
REMARK    1  A    between atoms: C1_1  and  O1_2 
REMARK    2  A    between atoms: C2_3  and  C1'_10 
REMARK    3  A    between atoms: C4_5  and  O4_6 
REMARK    4  A    between atoms: C2'_11  and  O2'_12 
REMARK    5  A    between atoms: C3'_13  and  O3'_14 
REMARK    6  A    between atoms: C4'_15  and  O4'_16 
REMARK    7  A    between atoms: C5'_17  and  C6'_19 
REMARK    8  A    between atoms: C6'_19  and  O6'_20 
ROOT
ATOM      1  C1' Z15 d   1      33.467  23.000  28.006  0.00  0.00     0.094 C 
ATOM      2  C2' Z15 d   1      33.879  23.190  26.532  0.00  0.00     0.091 C 
ATOM      3  C3' Z15 d   1      32.793  22.593  25.609  0.00  0.00     0.090 C 
ATOM      4  C4' Z15 d   1      32.489  21.131  25.983  0.00  0.00     0.089 C 
ATOM      5  C5' Z15 d   1      32.247  20.972  27.503  0.00  0.00     0.087 C 
ATOM      6  O5' Z15 d   1      33.339  21.561  28.247  0.00  0.00    -0.368 OA
ATOM      7  H5  Z15 d   1      32.500  23.504  28.152  0.00  0.00     0.095 H 
ATOM      8  H6  Z15 d   1      34.826  22.659  26.356  0.00  0.00     0.091 H 
ATOM      9  H8  Z15 d   1      31.872  23.182  25.732  0.00  0.00     0.091 H 
ATOM     10  H10 Z15 d   1      33.349  20.508  25.695  0.00  0.00     0.091 H 
ATOM     11  H12 Z15 d   1      31.311  21.488  27.762  0.00  0.00     0.090 H 
ENDROOT
BRANCH   1  12
ATOM     12  C2  Z15 d   1      34.436  23.481  29.103  0.00  0.00     0.009 A 
ATOM     13  C1  Z15 d   1      33.951  24.183  30.214  0.00  0.00     0.076 A 
ATOM     14  C6  Z15 d   1      34.826  24.604  31.223  0.00  0.00    -0.027 A 
ATOM     15  C5  Z15 d   1      36.189  24.310  31.126  0.00  0.00     0.069 A 
ATOM     16  H4  Z15 d   1      34.448  25.156  32.076  0.00  0.00     0.090 H 
ATOM     17  C4  Z15 d   1      36.672  23.606  30.025  0.00  0.00     0.088 A 
ATOM     18 CL5  Z15 d   1      37.288  24.810  32.369  0.00  0.00    -0.081 Cl
ATOM     19  C3  Z15 d   1      35.798  23.184  29.021  0.00  0.00    -0.038 A 
ATOM     20  H2  Z15 d   1      36.178  22.624  28.175  0.00  0.00     0.088 H 
BRANCH  13  21
ATOM     21  O1  Z15 d   1      32.626  24.471  30.315  0.00  0.00    -0.360 OA
ATOM     22  H1  Z15 d   1      32.467  24.947  31.122  0.00  0.00     0.217 HD
ENDBRANCH  13  21
BRANCH  17  23
ATOM     23  O4  Z15 d   1      38.001  23.320  29.939  0.00  0.00    -0.359 OA
ATOM     24  H3  Z15 d   1      38.120  22.378  29.913  0.00  0.00     0.217 HD
ENDBRANCH  17  23
ENDBRANCH   1  12
BRANCH   2  25
ATOM     25  O2' Z15 d   1      34.072  24.579  26.247  0.00  0.00    -0.390 OA
ATOM     26  H7  Z15 d   1      33.262  25.049  26.407  0.00  0.00     0.210 HD
ENDBRANCH   2  25
BRANCH   3  27
ATOM     27  O3' Z15 d   1      33.204  22.670  24.242  0.00  0.00    -0.390 OA
ATOM     28  H9  Z15 d   1      33.346  23.579  24.006  0.00  0.00     0.210 HD
ENDBRANCH   3  27
BRANCH   5  29
ATOM     29  C6' Z15 d   1      32.136  19.502  27.922  0.00  0.00     0.043 C 
ATOM     30  H13 Z15 d   1      31.185  19.089  27.555  0.00  0.00     0.078 H 
ATOM     31  H14 Z15 d   1      32.167  19.432  29.019  0.00  0.00     0.078 H 
BRANCH  29  32
ATOM     32  O6' Z15 d   1      33.226  18.753  27.367  0.00  0.00    -0.398 OA
ATOM     33  H15 Z15 d   1      34.047  19.109  27.685  0.00  0.00     0.209 HD
ENDBRANCH  29  32
ENDBRANCH   5  29
BRANCH   4  34
ATOM     34  O4' Z15 d   1      31.332  20.687  25.275  0.00  0.00    -0.390 OA
ATOM     35  H11 Z15 d   1      30.591  21.234  25.507  0.00  0.00     0.210 HD
ENDBRANCH   4  34
TORSDOF 8
