REMARK  7 active torsions:
REMARK  status: ('A' for Active; 'I' for Inactive)
REMARK    1  A    between atoms: N11_11  and  C1_1 
REMARK    2  A    between atoms: C1_1  and  C12_12 
REMARK    3  A    between atoms: N9_9  and  C17_14 
REMARK    4  A    between atoms: C12_12  and  C13_13 
REMARK    5  A    between atoms: C13_13  and  C39_25 
REMARK    6  A    between atoms: C17_14  and  C18_15 
REMARK    7  A    between atoms: C23_20  and  C34_24 
ROOT
ATOM      1  O1  0BB d   1      21.381  28.735   5.760  0.00  0.00    -0.246 OA
ATOM      2  C3  0BB d   1      20.391  24.249   7.160  0.00  0.00    -0.055 A 
ATOM      3  C4  0BB d   1      20.116  23.751   8.408  0.00  0.00    -0.081 A 
ATOM      4  C5  0BB d   1      20.084  24.627   9.630  0.00  0.00    -0.081 A 
ATOM      5  C6  0BB d   1      20.326  25.979   9.585  0.00  0.00    -0.055 A 
ATOM      6  C7  0BB d   1      20.633  26.591   8.244  0.00  0.00     0.066 A 
ATOM      7  C8  0BB d   1      20.665  25.720   7.032  0.00  0.00     0.066 A 
ATOM      8  N9  0BB d   1      20.960  26.506   5.996  0.00  0.00    -0.293 N 
ATOM      9  C10 0BB d   1      21.106  27.785   6.475  0.00  0.00     0.330 A 
ATOM     10  N11 0BB d   1      20.915  27.836   7.834  0.00  0.00    -0.297 N 
ATOM     11  H3  0BB d   1      20.410  23.600   6.292  0.00  0.00     0.087 H 
ATOM     12  H4  0BB d   1      19.915  22.691   8.517  0.00  0.00     0.083 H 
ATOM     13  H5  0BB d   1      19.860  24.172  10.588  0.00  0.00     0.083 H 
ATOM     14  H6  0BB d   1      20.297  26.584  10.484  0.00  0.00     0.087 H 
ENDROOT
BRANCH   8  15
ATOM     15  C17 0BB d   1      21.106  26.127   4.581  0.00  0.00     0.030 C 
ATOM     16  H11 0BB d   1      20.708  26.954   3.975  0.00  0.00     0.072 H 
ATOM     17  H12 0BB d   1      20.497  25.226   4.417  0.00  0.00     0.072 H 
BRANCH  15  18
ATOM     18  C18 0BB d   1      22.528  25.823   4.069  0.00  0.00    -0.021 A 
ATOM     19  C19 0BB d   1      22.890  25.229   2.744  0.00  0.00    -0.005 A 
ATOM     20  C20 0BB d   1      24.344  25.110   2.659  0.00  0.00     0.016 A 
ATOM     21  C23 0BB d   1      22.112  24.785   1.617  0.00  0.00    -0.050 A 
ATOM     22  S21 0BB d   1      25.129  25.672   4.052  0.00  0.00    -0.101 SA
ATOM     23  C26 0BB d   1      24.943  24.579   1.513  0.00  0.00    -0.066 A 
ATOM     24  C22 0BB d   1      23.692  26.088   4.833  0.00  0.00    -0.036 A 
ATOM     25  H13 0BB d   1      23.662  26.520   5.832  0.00  0.00     0.096 H 
ATOM     26  C25 0BB d   1      24.170  24.143   0.413  0.00  0.00    -0.081 A 
ATOM     27  H16 0BB d   1      26.023  24.500   1.467  0.00  0.00     0.085 H 
ATOM     28  C24 0BB d   1      22.764  24.246   0.466  0.00  0.00    -0.076 A 
ATOM     29  H15 0BB d   1      24.654  23.732  -0.466  0.00  0.00     0.083 H 
ATOM     30  H14 0BB d   1      22.171  23.912  -0.378  0.00  0.00     0.084 H 
BRANCH  21  31
ATOM     31  C34 0BB d   1      20.604  24.859   1.581  0.00  0.00    -0.050 C 
ATOM     32  H17 0BB d   1      20.235  25.291   2.523  0.00  0.00     0.033 H 
ATOM     33  H18 0BB d   1      20.190  23.848   1.454  0.00  0.00     0.033 H 
ATOM     34  H19 0BB d   1      20.288  25.493   0.739  0.00  0.00     0.033 H 
ENDBRANCH  21  31
ENDBRANCH  15  18
ENDBRANCH   8  15
BRANCH  10  35
ATOM     35  C1  0BB d   1      20.998  29.042   8.684  0.00  0.00     0.005 C 
ATOM     36  H1  0BB d   1      20.336  28.911   9.552  0.00  0.00     0.065 H 
ATOM     37  H2  0BB d   1      20.667  29.913   8.099  0.00  0.00     0.065 H 
BRANCH  35  38
ATOM     38  C12 0BB d   1      22.434  29.297   9.187  0.00  0.00    -0.041 C 
ATOM     39  H7  0BB d   1      23.101  28.537   8.754  0.00  0.00     0.036 H 
ATOM     40  H8  0BB d   1      22.445  29.212  10.284  0.00  0.00     0.036 H 
BRANCH  38  41
ATOM     41  C13 0BB d   1      22.954  30.695   8.793  0.00  0.00     0.017 C 
ATOM     42  H9  0BB d   1      22.283  31.450   9.229  0.00  0.00     0.049 H 
ATOM     43  H10 0BB d   1      22.933  30.776   7.696  0.00  0.00     0.049 H 
BRANCH  41  44
ATOM     44  C39 0BB d   1      24.395  30.988   9.275  0.00  0.00     0.172 C 
ATOM     45  O40 0BB d   1      24.943  32.000   8.840  0.00  0.00    -0.648 OA
ATOM     46  O41 0BB d   1      24.954  30.218  10.070  0.00  0.00    -0.648 OA
ENDBRANCH  41  44
ENDBRANCH  38  41
ENDBRANCH  35  38
ENDBRANCH  10  35
TORSDOF 7
