REMARK  8 active torsions:
REMARK  status: ('A' for Active; 'I' for Inactive)
REMARK    1  A    between atoms: C2_2  and  N3_3 
REMARK    2  A    between atoms: C4_4  and  C5_5 
REMARK    3  A    between atoms: C5_5  and  C6_6 
REMARK    4  A    between atoms: C5_5  and  O12_12 
REMARK    5  A    between atoms: C14_14  and  N15_15 
REMARK    6  A    between atoms: N15_15  and  C16_16 
REMARK    7  A    between atoms: C16_16  and  C17_17 
REMARK    8  A    between atoms: C17_17  and  C18_18 
ROOT
ATOM      1  N1  50Z d   1      64.794  82.174 -86.573  0.00  0.00    -0.206 NA
ATOM      2  C2  50Z d   1      65.749  81.239 -86.749  0.00  0.00     0.140 A 
ATOM      3  C4  50Z d   1      66.109  80.556 -85.572  0.00  0.00     0.066 A 
ATOM      4  S13 50Z d   1      65.205  81.146 -84.232  0.00  0.00    -0.050 SA
ATOM      5  C14 50Z d   1      64.402  82.239 -85.283  0.00  0.00     0.169 A 
ENDROOT
BRANCH   3   6
ATOM      6  C5  50Z d   1      67.034  79.540 -85.440  0.00  0.00     0.112 C 
ATOM      7  H3  50Z d   1      67.818  80.285 -85.240  0.00  0.00     0.101 H 
BRANCH   6   8
ATOM      8  C6  50Z d   1      67.318  78.869 -84.122  0.00  0.00     0.068 A 
ATOM      9  N8  50Z d   1      67.032  79.510 -82.881  0.00  0.00    -0.263 NA
ATOM     10  C8  50Z d   1      67.298  78.859 -81.643  0.00  0.00     0.003 A 
ATOM     11  C9  50Z d   1      67.840  77.591 -81.642  0.00  0.00    -0.066 A 
ATOM     12  H4  50Z d   1      67.076  79.357 -80.706  0.00  0.00     0.114 H 
ATOM     13  C10 50Z d   1      68.130  76.939 -82.821  0.00  0.00    -0.080 A 
ATOM     14  H5  50Z d   1      68.041  77.099 -80.698  0.00  0.00     0.085 H 
ATOM     15  C11 50Z d   1      67.878  77.556 -84.081  0.00  0.00    -0.056 A 
ATOM     16  H6  50Z d   1      68.556  75.943 -82.790  0.00  0.00     0.083 H 
ATOM     17  H7  50Z d   1      68.110  77.032 -85.001  0.00  0.00     0.086 H 
ENDBRANCH   6   8
BRANCH   6  18
ATOM     18  O12 50Z d   1      67.715  79.083 -86.526  0.00  0.00    -0.384 OA
ATOM     19  H8  50Z d   1      68.648  79.189 -86.381  0.00  0.00     0.211 HD
ENDBRANCH   6  18
ENDBRANCH   3   6
BRANCH   2  20
ATOM     20  N3  50Z d   1      66.267  81.019 -87.978  0.00  0.00    -0.383 N 
ATOM     21  H1  50Z d   1      66.997  80.304 -88.109  0.00  0.00     0.157 HD
ATOM     22  H2  50Z d   1      65.932  81.567 -88.784  0.00  0.00     0.157 HD
ENDBRANCH   2  20
BRANCH   5  23
ATOM     23  N15 50Z d   1      63.427  83.124 -84.880  0.00  0.00    -0.369 N 
ATOM     24  H9  50Z d   1      63.004  83.753 -85.577  0.00  0.00     0.161 HD
BRANCH  23  25
ATOM     25  C16 50Z d   1      62.976  83.196 -83.495  0.00  0.00    -0.006 C 
ATOM     26  H10 50Z d   1      62.465  84.157 -83.336  0.00  0.00     0.064 H 
ATOM     27  H11 50Z d   1      63.851  83.132 -82.831  0.00  0.00     0.064 H 
BRANCH  25  28
ATOM     28  C17 50Z d   1      62.021  82.070 -83.160  0.00  0.00    -0.054 C 
ATOM     29  H12 50Z d   1      61.910  81.472 -84.076  0.00  0.00     0.034 H 
ATOM     30  H13 50Z d   1      61.059  82.541 -82.910  0.00  0.00     0.034 H 
BRANCH  28  31
ATOM     31  C18 50Z d   1      62.317  81.118 -82.071  0.00  0.00    -0.075 C 
ATOM     32  H14 50Z d   1      61.501  80.384 -81.994  0.00  0.00     0.027 H 
ATOM     33  H15 50Z d   1      62.409  81.665 -81.121  0.00  0.00     0.027 H 
ATOM     34  H16 50Z d   1      63.261  80.596 -82.287  0.00  0.00     0.027 H 
ENDBRANCH  28  31
ENDBRANCH  25  28
ENDBRANCH  23  25
ENDBRANCH   5  23
TORSDOF 8
