REMARK  2 active torsions:
REMARK  status: ('A' for Active; 'I' for Inactive)
REMARK    1  A    between atoms: C5_4  and  N3_2 
REMARK    2  A    between atoms: N3_2  and  C6_5 
ROOT
ATOM      1  N1  ITE d   1      15.929  16.705  22.170  0.00  0.00    -0.243 NA
ATOM      2  C4  ITE d   1      18.757  17.760  19.399  0.00  0.00     0.104 A 
ATOM      3  C5  ITE d   1      18.657  17.879  17.255  0.00  0.00     0.701 A 
ATOM      4  C7  ITE d   1      17.493  17.393  18.971  0.00  0.00     0.081 A 
ATOM      5  C8  ITE d   1      16.503  17.023  19.884  0.00  0.00    -0.026 A 
ATOM      6  C10 ITE d   1      16.176  16.705  23.493  0.00  0.00     0.066 A 
ATOM      7  C1  ITE d   1      16.841  17.052  21.244  0.00  0.00     0.075 A 
ATOM      8  C2  ITE d   1      18.128  17.432  21.666  0.00  0.00     0.049 A 
ATOM      9  C3  ITE d   1      19.125  17.804  20.747  0.00  0.00    -0.036 A 
ATOM     10  N2  ITE d   1      19.420  18.039  18.263  0.00  0.00    -0.063 NA
ATOM     11  N4  ITE d   1      17.470  17.484  17.613  0.00  0.00    -0.188 N 
ATOM     12  C9  ITE d   1      18.351  17.418  23.047  0.00  0.00     0.192 A 
ATOM     13  O1  ITE d   1      19.583  17.787  23.541  0.00  0.00    -0.171 OA
ATOM     14  N5  ITE d   1      17.396  17.067  23.942  0.00  0.00    -0.328 N 
ATOM     15  H   ITE d   1      15.514  16.726  19.555  0.00  0.00     0.090 H 
ATOM     16  H   ITE d   1      15.397  16.415  24.196  0.00  0.00     0.143 H 
ATOM     17  H   ITE d   1      20.117  18.106  21.064  0.00  0.00     0.088 H 
ATOM     18  H   ITE d   1      16.673  17.281  16.993  0.00  0.00     0.184 HD
ATOM     19  H   ITE d   1      17.593  17.076  24.922  0.00  0.00     0.168 HD
ENDROOT
BRANCH   3  20
ATOM     20  N3  ITE d   1      19.048  18.079  16.026  0.00  0.00    -0.229 N 
ATOM     21  H   ITE d   1      20.014  18.389  15.846  0.00  0.00     0.177 HD
BRANCH  20  22
ATOM     22  C6  ITE d   1      18.138  17.871  14.900  0.00  0.00    -0.005 C 
ATOM     23  H   ITE d   1      18.662  18.093  13.959  0.00  0.00     0.057 H 
ATOM     24  H   ITE d   1      17.269  18.538  15.002  0.00  0.00     0.057 H 
ATOM     25  H   ITE d   1      17.798  16.825  14.892  0.00  0.00     0.057 H 
ENDBRANCH  20  22
ENDBRANCH   3  20
TORSDOF 2
