REMARK  10 active torsions:
REMARK  status: ('A' for Active; 'I' for Inactive)
REMARK    1  A    between atoms: C1_1  and  O6_15 
REMARK    2  A    between atoms: C13_20  and  N2_6 
REMARK    3  A    between atoms: S2_8  and  N4_13 
REMARK    4  A    between atoms: C18_25  and  S2_8 
REMARK    5  A    between atoms: N3_10  and  C14_21 
REMARK    6  A    between atoms: C15_22  and  N3_10 
REMARK    7  A    between atoms: C11_18  and  O3_11 
REMARK    8  A    between atoms: O6_15  and  C7_16 
REMARK    9  A    between atoms: C11_18  and  C10_17 
REMARK   10  A    between atoms: C12_19  and  C11_18 
ROOT
ATOM      1  N1  56Z d   1      92.261  81.909 -51.339  0.00  0.00    -0.206 NA
ATOM      2  S1  56Z d   1      92.986  80.736 -49.150  0.00  0.00    -0.050 SA
ATOM      3  C12 56Z d   1      93.838  80.413 -50.599  0.00  0.00     0.065 A 
ATOM      4  C13 56Z d   1      93.315  81.128 -51.660  0.00  0.00     0.140 A 
ATOM      5  C14 56Z d   1      91.960  81.815 -50.046  0.00  0.00     0.173 A 
ENDROOT
BRANCH   3   6
ATOM      6  C11 56Z d   1      95.013  79.455 -50.668  0.00  0.00     0.096 C 
ATOM      7  H14 56Z d   1      95.705  80.274 -50.422  0.00  0.00     0.099 H 
BRANCH   6   8
ATOM      8  O3  56Z d   1      95.630  79.282 -51.856  0.00  0.00    -0.386 OA
ATOM      9  H6  56Z d   1      95.565  78.370 -52.115  0.00  0.00     0.210 HD
ENDBRANCH   6   8
BRANCH   6  10
ATOM     10  C10 56Z d   1      95.464  78.711 -49.442  0.00  0.00    -0.024 A 
ATOM     11  C3  56Z d   1      96.879  78.687 -48.988  0.00  0.00    -0.071 A 
ATOM     12  C2  56Z d   1      97.240  77.942 -47.777  0.00  0.00    -0.050 A 
ATOM     13  H4  56Z d   1      97.640  79.217 -49.549  0.00  0.00     0.084 H 
ATOM     14  C1  56Z d   1      96.202  77.212 -47.002  0.00  0.00     0.068 A 
ATOM     15  H1  56Z d   1      98.272  77.924 -47.444  0.00  0.00     0.087 H 
ATOM     16  C5  56Z d   1      94.788  77.232 -47.465  0.00  0.00    -0.050 A 
ATOM     17  C4  56Z d   1      94.447  77.966 -48.657  0.00  0.00    -0.071 A 
ATOM     18  H10 56Z d   1      94.023  76.700 -46.911  0.00  0.00     0.087 H 
ATOM     19  H7  56Z d   1      93.416  77.975 -48.991  0.00  0.00     0.084 H 
BRANCH  14  20
ATOM     20  O6  56Z d   1      96.534  76.509 -45.845  0.00  0.00    -0.356 OA
BRANCH  20  21
ATOM     21  C7  56Z d   1      95.674  75.815 -45.065  0.00  0.00     0.010 C 
ATOM     22  H11 56Z d   1      96.222  75.366 -44.224  0.00  0.00     0.066 H 
ATOM     23  H12 56Z d   1      95.200  75.020 -45.659  0.00  0.00     0.066 H 
ATOM     24  H13 56Z d   1      94.900  76.494 -44.678  0.00  0.00     0.066 H 
ENDBRANCH  20  21
ENDBRANCH  14  20
ENDBRANCH   6  10
ENDBRANCH   3   6
BRANCH   4  25
ATOM     25  N2  56Z d   1      93.792  81.063 -52.923  0.00  0.00    -0.383 N 
ATOM     26  H2  56Z d   1      94.597  80.459 -53.139  0.00  0.00     0.157 HD
ATOM     27  H3  56Z d   1      93.350  81.618 -53.670  0.00  0.00     0.157 HD
ENDBRANCH   4  25
BRANCH   5  28
ATOM     28  N3  56Z d   1      90.906  82.551 -49.549  0.00  0.00    -0.335 N 
ATOM     29  H5  56Z d   1      90.660  83.395 -50.086  0.00  0.00     0.168 HD
BRANCH  28  30
ATOM     30  C15 56Z d   1      90.139  82.312 -48.436  0.00  0.00     0.034 A 
ATOM     31  C16 56Z d   1      90.324  81.130 -47.502  0.00  0.00    -0.056 A 
ATOM     32  C17 56Z d   1      89.484  80.944 -46.381  0.00  0.00    -0.058 A 
ATOM     33  H15 56Z d   1      91.115  80.415 -47.699  0.00  0.00     0.087 H 
ATOM     34  C18 56Z d   1      88.415  81.919 -46.124  0.00  0.00     0.079 A 
ATOM     35  H16 56Z d   1      89.626  80.096 -45.721  0.00  0.00     0.086 H 
ATOM     36  C19 56Z d   1      88.226  83.074 -47.015  0.00  0.00    -0.058 A 
ATOM     37  C20 56Z d   1      89.067  83.272 -48.147  0.00  0.00    -0.056 A 
ATOM     38  H17 56Z d   1      87.435  83.785 -46.807  0.00  0.00     0.086 H 
ATOM     39  H18 56Z d   1      88.916  84.129 -48.793  0.00  0.00     0.087 H 
BRANCH  34  40
ATOM     40  S2  56Z d   1      87.433  81.717 -44.873  0.00  0.00     0.256 S 
ATOM     41  O1  56Z d   1      86.225  80.841 -45.421  0.00  0.00    -0.201 OA
ATOM     42  O2  56Z d   1      86.922  83.147 -44.333  0.00  0.00    -0.201 OA
BRANCH  40  43
ATOM     43  N4  56Z d   1      88.157  80.918 -43.731  0.00  0.00    -0.324 N 
ATOM     44  H8  56Z d   1      88.530  80.009 -43.916  0.00  0.00     0.169 HD
ATOM     45  H9  56Z d   1      88.245  81.319 -42.819  0.00  0.00     0.169 HD
ENDBRANCH  40  43
ENDBRANCH  34  40
ENDBRANCH  28  30
ENDBRANCH   5  28
TORSDOF 10
