REMARK  8 active torsions:
REMARK  status: ('A' for Active; 'I' for Inactive)
REMARK    1  A    between atoms: S1_1  and  N5_5 
REMARK    2  A    between atoms: N5_5  and  C6_6 
REMARK       I    between atoms: N9_9  and  C13_13 
REMARK    3  A    between atoms: C10_10  and  C11_11 
REMARK    4  A    between atoms: C11_11  and  O12_12 
REMARK       I    between atoms: C13_13  and  N15_15 
REMARK    5  A    between atoms: N15_15  and  C16_16 
REMARK    6  A    between atoms: N20_20  and  C21_21 
REMARK    7  A    between atoms: C21_21  and  C22_22 
REMARK    8  A    between atoms: C22_22  and  N23_23 
ROOT
ATOM      1  C16 S1Y d   1       8.608  14.240  17.776  0.00  0.00     0.015 C 
ATOM      2  C17 S1Y d   1       8.926  14.451  16.296  0.00  0.00    -0.044 C 
ATOM      3  C18 S1Y d   1      10.424  14.703  16.175  0.00  0.00    -0.041 C 
ATOM      4  C19 S1Y d   1      10.779  16.165  16.336  0.00  0.00     0.084 C 
ATOM      5  N20 S1Y d   1      10.486  16.801  17.624  0.00  0.00    -0.069 N 
ATOM      6  C24 S1Y d   1      10.229  15.884  18.769  0.00  0.00     0.085 C 
ATOM      7  C25 S1Y d   1       8.757  15.455  18.675  0.00  0.00    -0.023 C 
ATOM      8  H   S1Y d   1       9.278  13.469  18.155  0.00  0.00     0.072 H 
ATOM      9  H   S1Y d   1       8.366  15.300  15.905  0.00  0.00     0.036 H 
ATOM     10  H   S1Y d   1       8.642  13.572  15.718  0.00  0.00     0.036 H 
ATOM     11  H   S1Y d   1      10.739  14.387  15.181  0.00  0.00     0.035 H 
ATOM     12  H   S1Y d   1      10.924  14.146  16.967  0.00  0.00     0.035 H 
ATOM     13  H   S1Y d   1      10.169  16.695  15.604  0.00  0.00     0.076 H 
ATOM     14  H   S1Y d   1      11.862  16.215  16.226  0.00  0.00     0.076 H 
ATOM     15  H   S1Y d   1      10.426  16.384  19.717  0.00  0.00     0.076 H 
ATOM     16  H   S1Y d   1      10.888  15.017  18.726  0.00  0.00     0.076 H 
ATOM     17  H   S1Y d   1       8.400  15.201  19.673  0.00  0.00     0.038 H 
ATOM     18  H   S1Y d   1       8.177  16.277  18.256  0.00  0.00     0.038 H 
ATOM     19  H   S1Y d   1       9.816  17.553  17.577  0.00  0.00     0.279 HD
ENDROOT
BRANCH   1  20
ATOM     20  N15 S1Y d   1       7.158  14.015  17.763  0.00  0.00    -0.338 N 
ATOM     21  C13 S1Y d   1       6.662  12.729  18.100  0.00  0.00     0.319 C 
ATOM     22  N9  S1Y d   1       5.333  12.540  18.072  0.00  0.00    -0.325 N 
ATOM     23  O14 S1Y d   1       7.417  11.935  18.559  0.00  0.00    -0.247 OA
ATOM     24  C8  S1Y d   1       4.354  13.273  17.317  0.00  0.00     0.002 C 
ATOM     25  C10 S1Y d   1       4.829  11.317  18.611  0.00  0.00     0.057 C 
ATOM     26  C7  S1Y d   1       3.224  12.292  17.161  0.00  0.00    -0.029 C 
ATOM     27  H   S1Y d   1       4.044  14.191  17.815  0.00  0.00     0.064 H 
ATOM     28  H   S1Y d   1       4.740  13.621  16.359  0.00  0.00     0.064 H 
ATOM     29  C6  S1Y d   1       3.332  11.404  18.423  0.00  0.00     0.045 C 
ATOM     30  H   S1Y d   1       2.255  12.784  17.081  0.00  0.00     0.038 H 
ATOM     31  H   S1Y d   1       3.299  11.715  16.239  0.00  0.00     0.038 H 
ATOM     32  H   S1Y d   1       2.729  11.800  19.240  0.00  0.00     0.077 H 
ATOM     33  H   S1Y d   1       5.148  11.188  19.645  0.00  0.00     0.079 H 
ATOM     34  H   S1Y d   1       6.518  14.770  17.516  0.00  0.00     0.164 HD
BRANCH  29  35
ATOM     35  N5  S1Y d   1       2.927   9.987  18.136  0.00  0.00    -0.294 N 
ATOM     36  H   S1Y d   1       3.554   9.183  18.152  0.00  0.00     0.175 HD
BRANCH  35  37
ATOM     37  S1  S1Y d   1       1.323   9.926  17.792  0.00  0.00     0.204 S 
ATOM     38  O2  S1Y d   1       1.068  10.355  16.522  0.00  0.00    -0.578 OA
ATOM     39  O3  S1Y d   1       0.516  10.883  18.768  0.00  0.00    -0.578 OA
ATOM     40  O4  S1Y d   1       1.015   8.606  17.931  0.00  0.00    -0.578 OA
ENDBRANCH  35  37
ENDBRANCH  29  35
BRANCH  25  41
ATOM     41  C11 S1Y d   1       5.310  10.133  17.811  0.00  0.00     0.038 C 
ATOM     42  H   S1Y d   1       4.560   9.342  17.958  0.00  0.00     0.077 H 
ATOM     43  H   S1Y d   1       6.262   9.825  18.267  0.00  0.00     0.077 H 
BRANCH  41  44
ATOM     44  O12 S1Y d   1       5.514  10.186  16.606  0.00  0.00    -0.399 OA
ATOM     45  H   S1Y d   1       6.180  10.839  16.427  0.00  0.00     0.209 HD
ENDBRANCH  41  44
ENDBRANCH  25  41
ENDBRANCH   1  20
BRANCH   5  46
ATOM     46  C21 S1Y d   1      12.010  17.184  17.816  0.00  0.00     0.105 C 
ATOM     47  H   S1Y d   1      12.246  17.085  18.875  0.00  0.00     0.078 H 
ATOM     48  H   S1Y d   1      12.147  18.199  17.442  0.00  0.00     0.078 H 
BRANCH  46  49
ATOM     49  C22 S1Y d   1      13.000  16.231  17.007  0.00  0.00     0.102 C 
ATOM     50  H   S1Y d   1      13.225  16.652  16.027  0.00  0.00     0.077 H 
ATOM     51  H   S1Y d   1      12.544  15.255  16.839  0.00  0.00     0.077 H 
BRANCH  49  52
ATOM     52  N23 S1Y d   1      14.253  16.097  17.828  0.00  0.00    -0.078 N 
ATOM     53  H   S1Y d   1      14.914  15.492  17.341  0.00  0.00     0.274 HD
ATOM     54  H   S1Y d   1      14.670  17.018  17.963  0.00  0.00     0.274 HD
ATOM     55  H   S1Y d   1      14.022  15.691  18.735  0.00  0.00     0.274 HD
ENDBRANCH  49  52
ENDBRANCH  46  49
ENDBRANCH   5  46
TORSDOF 8
