REMARK  10 active torsions:
REMARK  status: ('A' for Active; 'I' for Inactive)
REMARK    1  A    between atoms: C5_2  and  C4_1 
REMARK    2  A    between atoms: C4_1  and  C6_3 
REMARK    3  A    between atoms: C7_4  and  C5_2 
REMARK    4  A    between atoms: C6_3  and  N12_7 
REMARK    5  A    between atoms: N13_13  and  C7_4 
REMARK    6  A    between atoms: C10_6  and  C8_5 
REMARK    7  A    between atoms: C8_5  and  O17_17 
REMARK    8  A    between atoms: N12_7  and  C1_8 
REMARK    9  A    between atoms: C9_11  and  N14_14 
REMARK       I    between atoms: C11_12  and  N13_13 
REMARK       I    between atoms: C11_12  and  N15_15 
REMARK   10  A    between atoms: N14_14  and  S21_21 
ROOT
ATOM      1  C10 3S2 d   1       5.264  11.665  19.341  0.00  0.00     0.057 C 
ATOM      2  C2  3S2 d   1       3.676  12.675  17.900  0.00  0.00    -0.029 C 
ATOM      3  C3  3S2 d   1       4.879  13.606  17.984  0.00  0.00     0.002 C 
ATOM      4  C9  3S2 d   1       3.783  11.800  19.135  0.00  0.00     0.045 C 
ATOM      5  C11 3S2 d   1       7.221  12.958  18.616  0.00  0.00     0.318 C 
ATOM      6  N13 3S2 d   1       7.651  14.096  17.969  0.00  0.00    -0.343 N 
ATOM      7  N15 3S2 d   1       5.850  12.828  18.723  0.00  0.00    -0.325 N 
ATOM      8  O18 3S2 d   1       7.991  12.118  19.079  0.00  0.00    -0.247 OA
ATOM      9  H   3S2 d   1       5.520  11.555  20.395  0.00  0.00     0.079 H 
ATOM     10  H   3S2 d   1       3.679  12.087  16.982  0.00  0.00     0.038 H 
ATOM     11  H   3S2 d   1       2.736  13.226  17.870  0.00  0.00     0.038 H 
ATOM     12  H   3S2 d   1       4.644  14.554  18.468  0.00  0.00     0.064 H 
ATOM     13  H   3S2 d   1       5.244  13.911  17.003  0.00  0.00     0.064 H 
ATOM     14  H   3S2 d   1       3.220  12.238  19.959  0.00  0.00     0.077 H 
ATOM     15  H   3S2 d   1       6.988  14.830  17.718  0.00  0.00     0.164 HD
ENDROOT
BRANCH   6  16
ATOM     16  C7  3S2 d   1       9.054  14.236  17.650  0.00  0.00    -0.003 C 
ATOM     17  H   3S2 d   1       9.627  13.550  18.274  0.00  0.00     0.064 H 
ATOM     18  H   3S2 d   1       9.198  14.010  16.593  0.00  0.00     0.064 H 
BRANCH  16  19
ATOM     19  C5  3S2 d   1       9.528  15.651  17.917  0.00  0.00    -0.049 C 
ATOM     20  H   3S2 d   1      10.103  15.999  17.059  0.00  0.00     0.035 H 
ATOM     21  H   3S2 d   1       8.660  16.290  18.081  0.00  0.00     0.035 H 
BRANCH  19  22
ATOM     22  C4  3S2 d   1      10.406  15.694  19.145  0.00  0.00    -0.041 C 
ATOM     23  H   3S2 d   1      11.409  15.372  18.865  0.00  0.00     0.035 H 
ATOM     24  H   3S2 d   1       9.976  15.038  19.902  0.00  0.00     0.035 H 
BRANCH  22  25
ATOM     25  C6  3S2 d   1      10.490  17.089  19.711  0.00  0.00     0.081 C 
ATOM     26  H   3S2 d   1       9.525  17.582  19.595  0.00  0.00     0.075 H 
ATOM     27  H   3S2 d   1      11.260  17.647  19.177  0.00  0.00     0.075 H 
BRANCH  25  28
ATOM     28  N12 3S2 d   1      10.833  17.033  21.126  0.00  0.00    -0.079 N 
ATOM     29  H   3S2 d   1      11.352  16.179  21.328  0.00  0.00     0.276 HD
ATOM     30  H   3S2 d   1       9.985  17.031  21.693  0.00  0.00     0.276 HD
BRANCH  28  31
ATOM     31  C1  3S2 d   1      11.643  18.197  21.442  0.00  0.00     0.065 C 
ATOM     32  H   3S2 d   1      12.548  18.184  20.835  0.00  0.00     0.067 H 
ATOM     33  H   3S2 d   1      11.075  19.102  21.229  0.00  0.00     0.067 H 
ATOM     34  H   3S2 d   1      11.912  18.175  22.498  0.00  0.00     0.067 H 
ENDBRANCH  28  31
ENDBRANCH  25  28
ENDBRANCH  22  25
ENDBRANCH  19  22
ENDBRANCH  16  19
ENDBRANCH   6  16
BRANCH   1  35
ATOM     35  C8  3S2 d   1       5.730  10.494  18.529  0.00  0.00     0.038 C 
ATOM     36  H   3S2 d   1       5.145   9.637  18.893  0.00  0.00     0.077 H 
ATOM     37  H   3S2 d   1       6.788  10.357  18.798  0.00  0.00     0.077 H 
BRANCH  35  38
ATOM     38  O17 3S2 d   1       5.695  10.413  17.312  0.00  0.00    -0.399 OA
ATOM     39  H   3S2 d   1       6.047   9.573  17.041  0.00  0.00     0.209 HD
ENDBRANCH  35  38
ENDBRANCH   1  35
BRANCH   4  40
ATOM     40  N14 3S2 d   1       3.260  10.436  18.921  0.00  0.00    -0.294 N 
ATOM     41  H   3S2 d   1       3.856   9.620  19.064  0.00  0.00     0.175 HD
BRANCH  40  42
ATOM     42  S21 3S2 d   1       1.655  10.257  18.434  0.00  0.00     0.204 S 
ATOM     43  O16 3S2 d   1       1.637  10.437  16.823  0.00  0.00    -0.578 OA
ATOM     44  O19 3S2 d   1       0.861  11.274  19.114  0.00  0.00    -0.578 OA
ATOM     45  O20 3S2 d   1       1.272   8.869  18.654  0.00  0.00    -0.578 OA
ENDBRANCH  40  42
ENDBRANCH   4  40
TORSDOF 10
