REMARK  4 active torsions:
REMARK  status: ('A' for Active; 'I' for Inactive)
REMARK    1  A    between atoms: N4_28  and  C2_4 
REMARK    2  A    between atoms: S1_29  and  C3_5 
REMARK    3  A    between atoms: C10_12  and  N3_18 
REMARK    4  A    between atoms: N4_28  and  S1_29 
ROOT
ATOM      1  N1  2NQ d   1      26.626  12.458  22.499  0.00  0.00    -0.246 NA
ATOM      2  N2  2NQ d   1      19.228  12.916  24.333  0.00  0.00    -0.260 NA
ATOM      3  C1  2NQ d   1      24.542  13.315  20.927  0.00  0.00    -0.041 A 
ATOM      4  C2  2NQ d   1      25.826  13.258  20.398  0.00  0.00     0.084 A 
ATOM      5  C7  2NQ d   1      22.629  11.950  23.610  0.00  0.00    -0.070 A 
ATOM      6  C8  2NQ d   1      20.466  12.956  23.815  0.00  0.00     0.069 A 
ATOM      7  C9  2NQ d   1      22.174  14.023  22.477  0.00  0.00    -0.058 A 
ATOM      8  C10 2NQ d   1      19.961  15.044  22.696  0.00  0.00     0.044 A 
ATOM      9  C15 2NQ d   1      20.875  14.015  22.986  0.00  0.00     0.020 A 
ATOM     10  C16 2NQ d   1      18.685  14.948  23.257  0.00  0.00    -0.040 A 
ATOM     11  C17 2NQ d   1      18.349  13.873  24.078  0.00  0.00     0.005 A 
ATOM     12  C18 2NQ d   1      21.343  11.929  24.130  0.00  0.00    -0.053 A 
ATOM     13  C19 2NQ d   1      23.053  12.995  22.793  0.00  0.00    -0.023 A 
ATOM     14  C20 2NQ d   1      24.340  12.958  22.265  0.00  0.00    -0.006 A 
ATOM     15  C21 2NQ d   1      25.415  12.511  23.029  0.00  0.00     0.015 A 
ATOM     16  C22 2NQ d   1      26.860  12.813  21.218  0.00  0.00     0.152 A 
ATOM     17 CL1  2NQ d   1      28.459  12.716  20.563  0.00  0.00    -0.060 Cl
ATOM     18  H   2NQ d   1      23.703  13.634  20.308  0.00  0.00     0.088 H 
ATOM     19  H   2NQ d   1      23.317  11.137  23.844  0.00  0.00     0.084 H 
ATOM     20  H   2NQ d   1      22.500  14.838  21.830  0.00  0.00     0.086 H 
ATOM     21  H   2NQ d   1      17.945  15.721  23.051  0.00  0.00     0.089 H 
ATOM     22  H   2NQ d   1      17.352  13.819  24.515  0.00  0.00     0.114 H 
ATOM     23  H   2NQ d   1      21.025  11.114  24.780  0.00  0.00     0.087 H 
ATOM     24  H   2NQ d   1      25.259  12.205  24.063  0.00  0.00     0.116 H 
ENDROOT
BRANCH   8  25
ATOM     25  N3  2NQ d   1      20.265  16.161  21.870  0.00  0.00    -0.376 N 
ATOM     26  C11 2NQ d   1      21.645  16.745  21.821  0.00  0.00     0.015 C 
ATOM     27  C12 2NQ d   1      21.635  18.259  21.567  0.00  0.00     0.034 C 
ATOM     28  H   2NQ d   1      22.119  16.570  22.787  0.00  0.00     0.067 H 
ATOM     29  H   2NQ d   1      22.182  16.270  21.000  0.00  0.00     0.067 H 
ATOM     30  O1  2NQ d   1      20.693  18.582  20.532  0.00  0.00    -0.388 OA
ATOM     31  H   2NQ d   1      22.630  18.575  21.255  0.00  0.00     0.076 H 
ATOM     32  H   2NQ d   1      21.347  18.773  22.484  0.00  0.00     0.076 H 
ATOM     33  C14 2NQ d   1      19.349  18.292  20.970  0.00  0.00     0.034 C 
ATOM     34  C13 2NQ d   1      19.184  16.768  21.048  0.00  0.00     0.015 C 
ATOM     35  H   2NQ d   1      19.171  18.737  21.949  0.00  0.00     0.076 H 
ATOM     36  H   2NQ d   1      18.629  18.710  20.267  0.00  0.00     0.076 H 
ATOM     37  H   2NQ d   1      19.236  16.357  20.040  0.00  0.00     0.067 H 
ATOM     38  H   2NQ d   1      18.223  16.542  21.509  0.00  0.00     0.067 H 
ENDBRANCH   8  25
BRANCH   4  39
ATOM     39  N4  2NQ d   1      26.109  13.581  19.129  0.00  0.00    -0.277 N 
ATOM     40  H   2NQ d   1      26.778  12.985  18.641  0.00  0.00     0.179 HD
BRANCH  39  41
ATOM     41  S1  2NQ d   1      25.486  14.840  18.284  0.00  0.00     0.263 S 
ATOM     42  O2  2NQ d   1      24.045  14.568  17.970  0.00  0.00    -0.200 OA
ATOM     43  O3  2NQ d   1      26.262  15.003  17.010  0.00  0.00    -0.200 OA
BRANCH  41  44
ATOM     44  C3  2NQ d   1      25.664  16.298  19.163  0.00  0.00     0.080 A 
ATOM     45  C4  2NQ d   1      26.877  16.555  19.795  0.00  0.00    -0.057 A 
ATOM     46  C5  2NQ d   1      27.036  17.739  20.509  0.00  0.00    -0.044 A 
ATOM     47  H   2NQ d   1      27.694  15.836  19.731  0.00  0.00     0.086 H 
ATOM     48  C23 2NQ d   1      25.979  18.650  20.573  0.00  0.00     0.116 A 
ATOM     49  H   2NQ d   1      27.978  17.954  21.014  0.00  0.00     0.088 H 
ATOM     50  C6  2NQ d   1      24.768  18.389  19.933  0.00  0.00    -0.044 A 
ATOM     51  F1  2NQ d   1      26.127  19.789  21.268  0.00  0.00    -0.206 F 
ATOM     52  C24 2NQ d   1      24.610  17.206  19.217  0.00  0.00    -0.057 A 
ATOM     53  H   2NQ d   1      23.950  19.107  19.993  0.00  0.00     0.088 H 
ATOM     54  H   2NQ d   1      23.672  16.993  18.704  0.00  0.00     0.086 H 
ENDBRANCH  41  44
ENDBRANCH  39  41
ENDBRANCH   4  39
TORSDOF 4
