REMARK  6 active torsions:
REMARK  status: ('A' for Active; 'I' for Inactive)
REMARK    1  A    between atoms: N9_9  and  C12_12 
REMARK    2  A    between atoms: C12_12  and  C13_13 
REMARK    3  A    between atoms: C12_12  and  C15_15 
REMARK    4  A    between atoms: C13_13  and  C14_14 
REMARK    5  A    between atoms: C15_15  and  C16_16 
REMARK       I    between atoms: C16_16  and  N17_17 
REMARK    6  A    between atoms: N17_17  and  C19_19 
ROOT
ATOM      1  C16 EV6 d   1     -17.695  42.201   8.419  0.00  0.00     0.220 C 
ATOM      2  N17 EV6 d   1     -18.555  41.547   7.607  0.00  0.00    -0.356 N 
ATOM      3  O18 EV6 d   1     -17.957  42.389   9.600  0.00  0.00    -0.274 OA
ATOM      4  H   EV6 d   1     -18.304  41.356   6.637  0.00  0.00     0.162 HD
ENDROOT
BRANCH   1   5
ATOM      5  C15 EV6 d   1     -16.343  42.691   7.933  0.00  0.00     0.029 C 
ATOM      6  H   EV6 d   1     -16.269  42.526   6.858  0.00  0.00     0.050 H 
ATOM      7  H   EV6 d   1     -16.246  43.753   8.159  0.00  0.00     0.050 H 
BRANCH   5   8
ATOM      8  C12 EV6 d   1     -15.224  41.928   8.633  0.00  0.00     0.042 C 
ATOM      9  H   EV6 d   1     -15.189  42.193   9.690  0.00  0.00     0.074 H 
BRANCH   8  10
ATOM     10  N9  EV6 d   1     -15.520  40.456   8.538  0.00  0.00    -0.174 N 
ATOM     11  C1  EV6 d   1     -15.965  39.738   9.574  0.00  0.00     0.081 A 
ATOM     12  C2  EV6 d   1     -16.209  40.072  10.915  0.00  0.00    -0.052 A 
ATOM     13  C6  EV6 d   1     -16.191  38.344   9.092  0.00  0.00     0.105 A 
ATOM     14  C3  EV6 d   1     -16.663  39.102  11.815  0.00  0.00    -0.060 A 
ATOM     15  H   EV6 d   1     -16.044  41.093  11.257  0.00  0.00     0.087 H 
ATOM     16  C4  EV6 d   1     -16.867  37.806  11.346  0.00  0.00     0.036 A 
ATOM     17  H   EV6 d   1     -16.853  39.354  12.858  0.00  0.00     0.086 H 
ATOM     18  C5  EV6 d   1     -16.640  37.404  10.004  0.00  0.00    -0.031 A 
ATOM     19 CL11 EV6 d   1     -17.466  36.587  12.481  0.00  0.00    -0.084 Cl
ATOM     20  H   EV6 d   1     -16.816  36.373   9.697  0.00  0.00     0.089 H 
ATOM     21  N7  EV6 d   1     -15.887  38.300   7.784  0.00  0.00    -0.063 NA
ATOM     22  C8  EV6 d   1     -15.510  39.570   7.509  0.00  0.00     0.701 A 
ATOM     23  N10 EV6 d   1     -15.135  39.872   6.254  0.00  0.00    -0.233 N 
ATOM     24  H   EV6 d   1     -15.139  39.151   5.533  0.00  0.00     0.174 HD
ATOM     25  H   EV6 d   1     -14.847  40.823   6.023  0.00  0.00     0.174 HD
ENDBRANCH   8  10
BRANCH   8  26
ATOM     26  C13 EV6 d   1     -13.854  42.325   8.113  0.00  0.00    -0.048 C 
ATOM     27  H   EV6 d   1     -13.681  43.382   8.316  0.00  0.00     0.035 H 
ATOM     28  H   EV6 d   1     -13.808  42.148   7.038  0.00  0.00     0.035 H 
BRANCH  26  29
ATOM     29  C14 EV6 d   1     -12.785  41.493   8.810  0.00  0.00    -0.075 C 
ATOM     30  H   EV6 d   1     -12.832  41.670   9.884  0.00  0.00     0.027 H 
ATOM     31  H   EV6 d   1     -12.959  40.436   8.607  0.00  0.00     0.027 H 
ATOM     32  H   EV6 d   1     -11.802  41.779   8.436  0.00  0.00     0.027 H 
ENDBRANCH  26  29
ENDBRANCH   8  26
ENDBRANCH   5   8
ENDBRANCH   1   5
BRANCH   2  33
ATOM     33  C19 EV6 d   1     -19.860  41.112   8.139  0.00  0.00     0.019 C 
ATOM     34  C20 EV6 d   1     -20.800  40.849   6.987  0.00  0.00    -0.033 C 
ATOM     35  C21 EV6 d   1     -22.200  40.612   7.578  0.00  0.00    -0.057 C 
ATOM     36  C25 EV6 d   1     -20.352  39.613   6.214  0.00  0.00    -0.057 C 
ATOM     37  H   EV6 d   1     -20.806  41.696   6.301  0.00  0.00     0.043 H 
ATOM     38  C22 EV6 d   1     -22.254  39.373   8.469  0.00  0.00    -0.053 C 
ATOM     39  H   EV6 d   1     -22.894  40.463   6.751  0.00  0.00     0.034 H 
ATOM     40  H   EV6 d   1     -22.459  41.477   8.188  0.00  0.00     0.034 H 
ATOM     41  C23 EV6 d   1     -21.890  38.165   7.585  0.00  0.00    -0.058 C 
ATOM     42  C28 EV6 d   1     -21.200  39.569   9.571  0.00  0.00    -0.057 C 
ATOM     43  H   EV6 d   1     -23.234  39.215   8.920  0.00  0.00     0.040 H 
ATOM     44  C24 EV6 d   1     -20.458  38.347   7.044  0.00  0.00    -0.053 C 
ATOM     45  H   EV6 d   1     -22.590  38.097   6.752  0.00  0.00     0.034 H 
ATOM     46  H   EV6 d   1     -21.945  37.250   8.175  0.00  0.00     0.034 H 
ATOM     47  C27 EV6 d   1     -19.447  38.593   8.159  0.00  0.00    -0.057 C 
ATOM     48  H   EV6 d   1     -20.254  37.433   6.487  0.00  0.00     0.040 H 
ATOM     49  C26 EV6 d   1     -19.800  39.834   8.974  0.00  0.00    -0.033 C 
ATOM     50  H   EV6 d   1     -18.467  38.745   7.707  0.00  0.00     0.034 H 
ATOM     51  H   EV6 d   1     -19.453  37.730   8.825  0.00  0.00     0.034 H 
ATOM     52  H   EV6 d   1     -19.027  39.995   9.725  0.00  0.00     0.043 H 
ATOM     53  H   EV6 d   1     -21.154  38.660  10.170  0.00  0.00     0.034 H 
ATOM     54  H   EV6 d   1     -21.487  40.430  10.174  0.00  0.00     0.034 H 
ATOM     55  H   EV6 d   1     -19.307  39.748   5.935  0.00  0.00     0.034 H 
ATOM     56  H   EV6 d   1     -21.000  39.504   5.345  0.00  0.00     0.034 H 
ATOM     57  H   EV6 d   1     -20.200  41.918   8.789  0.00  0.00     0.073 H 
ENDBRANCH   2  33
TORSDOF 6
