REMARK  9 active torsions:
REMARK  status: ('A' for Active; 'I' for Inactive)
REMARK    1  A    between atoms: C5_9  and  N1_2 
REMARK    2  A    between atoms: C2_4  and  O1_3 
REMARK    3  A    between atoms: C10_14  and  O2_5 
REMARK    4  A    between atoms: C9_13  and  O3_7 
REMARK    5  A    between atoms: C15_17  and  C7_11 
REMARK    6  A    between atoms: C11_15  and  C12_16 
REMARK    7  A    between atoms: C11_15  and  C18_20 
REMARK    8  A    between atoms: C19_22  and  C11_15 
REMARK    9  A    between atoms: C17_19  and  N21_24 
ROOT
ATOM      1  C2  PMU d   1      24.813  29.399  29.159  0.00  0.00     0.078 A 
ATOM      2  C3  PMU d   1      25.995  30.072  28.728  0.00  0.00    -0.048 A 
ATOM      3  C4  PMU d   1      26.715  29.628  27.581  0.00  0.00    -0.055 A 
ATOM      4  C5  PMU d   1      26.239  28.497  26.868  0.00  0.00     0.031 A 
ATOM      5  C6  PMU d   1      25.064  27.836  27.311  0.00  0.00    -0.043 A 
ATOM      6  C7  PMU d   1      24.312  28.259  28.462  0.00  0.00     0.029 A 
ATOM      7  H5  PMU d   1      26.351  30.934  29.281  0.00  0.00     0.087 H 
ATOM      8  H7  PMU d   1      27.611  30.145  27.259  0.00  0.00     0.087 H 
ATOM      9  H8  PMU d   1      24.717  26.972  26.756  0.00  0.00     0.088 H 
ENDROOT
BRANCH   6  10
ATOM     10  C15 PMU d   1      23.050  27.536  28.920  0.00  0.00     0.091 A 
ATOM     11  N16 PMU d   1      22.312  27.937  30.052  0.00  0.00    -0.062 NA
ATOM     12  C17 PMU d   1      21.204  27.270  30.445  0.00  0.00     0.721 A 
ATOM     13  N18 PMU d   1      20.708  26.196  29.821  0.00  0.00    -0.068 NA
ATOM     14  C19 PMU d   1      21.374  25.763  28.723  0.00  0.00     0.059 A 
ATOM     15  C20 PMU d   1      22.552  26.408  28.240  0.00  0.00    -0.029 A 
ATOM     16  H20 PMU d   1      23.058  26.033  27.358  0.00  0.00     0.090 H 
BRANCH  12  17
ATOM     17  N21 PMU d   1      20.530  27.653  31.516  0.00  0.00    -0.231 N 
ATOM     18  H21 PMU d   1      20.844  28.472  32.056  0.00  0.00     0.174 HD
ATOM     19  H22 PMU d   1      19.691  27.132  31.810  0.00  0.00     0.174 HD
ENDBRANCH  12  17
BRANCH  14  20
ATOM     20  C11 PMU d   1      20.781  24.532  28.060  0.00  0.00    -0.018 C 
ATOM     21  H13 PMU d   1      20.724  23.731  28.812  0.00  0.00     0.048 H 
BRANCH  20  22
ATOM     22  C12 PMU d   1      21.672  24.038  26.903  0.00  0.00    -0.068 C 
ATOM     23  H14 PMU d   1      21.217  23.148  26.444  0.00  0.00     0.028 H 
ATOM     24  H15 PMU d   1      22.669  23.781  27.291  0.00  0.00     0.028 H 
ATOM     25  H16 PMU d   1      21.766  24.832  26.148  0.00  0.00     0.028 H 
ENDBRANCH  20  22
BRANCH  20  26
ATOM     26  C18 PMU d   1      19.355  24.832  27.565  0.00  0.00    -0.068 C 
ATOM     27  H17 PMU d   1      18.741  25.182  28.407  0.00  0.00     0.028 H 
ATOM     28  H18 PMU d   1      18.913  23.917  27.144  0.00  0.00     0.028 H 
ATOM     29  H19 PMU d   1      19.392  25.611  26.790  0.00  0.00     0.028 H 
ENDBRANCH  20  26
ENDBRANCH  14  20
ENDBRANCH   6  10
BRANCH   1  30
ATOM     30  O1  PMU d   1      24.186  29.911  30.276  0.00  0.00    -0.360 OA
ATOM     31  H3  PMU d   1      23.416  29.390  30.472  0.00  0.00     0.217 HD
ENDBRANCH   1  30
BRANCH   4  32
ATOM     32  N1  PMU d   1      26.895  28.053  25.738  0.00  0.00    -0.376 N 
ATOM     33  C1  PMU d   1      28.155  27.294  25.768  0.00  0.00     0.021 C 
ATOM     34  C9  PMU d   1      28.437  27.056  24.272  0.00  0.00     0.077 C 
ATOM     35  H1  PMU d   1      28.033  26.342  26.306  0.00  0.00     0.068 H 
ATOM     36  H2  PMU d   1      28.960  27.879  26.236  0.00  0.00     0.068 H 
ATOM     37  C10 PMU d   1      27.613  28.120  23.521  0.00  0.00     0.077 C 
ATOM     38  H11 PMU d   1      28.108  26.046  23.985  0.00  0.00     0.089 H 
ATOM     39  C8  PMU d   1      26.376  28.309  24.387  0.00  0.00     0.021 C 
ATOM     40  H12 PMU d   1      28.171  29.064  23.435  0.00  0.00     0.089 H 
ATOM     41  H9  PMU d   1      25.981  29.332  24.299  0.00  0.00     0.068 H 
ATOM     42  H10 PMU d   1      25.589  27.588  24.120  0.00  0.00     0.068 H 
BRANCH  34  43
ATOM     43  O3  PMU d   1      29.817  27.200  23.961  0.00  0.00    -0.391 OA
ATOM     44  H6  PMU d   1      29.949  27.046  23.033  0.00  0.00     0.210 HD
ENDBRANCH  34  43
BRANCH  37  45
ATOM     45  O2  PMU d   1      27.295  27.640  22.225  0.00  0.00    -0.391 OA
ATOM     46  H4  PMU d   1      28.094  27.537  21.722  0.00  0.00     0.210 HD
ENDBRANCH  37  45
ENDBRANCH   4  32
TORSDOF 9
