REMARK  8 active torsions:
REMARK  status: ('A' for Active; 'I' for Inactive)
REMARK    1  A    between atoms: CAB_2  and  CAQ_17 
REMARK    2  A    between atoms: CAC_3  and  CAG_7 
REMARK    3  A    between atoms: CAE_5  and  CAR_18 
REMARK    4  A    between atoms: CAO_15  and  CAP_16 
REMARK    5  A    between atoms: CAP_16  and  CAX_24 
REMARK    6  A    between atoms: CAP_16  and  CAY_25 
REMARK    7  A    between atoms: CAP_16  and  CAZ_26 
REMARK       I    between atoms: CAR_18  and  NAS_19 
REMARK    8  A    between atoms: NAS_19  and  CAT_20 
ROOT
ATOM      1  CAA CQ0 d   1       6.983  29.544  31.073  0.00  0.00    -0.075 A 
ATOM      2  CAB CQ0 d   1       5.779  30.195  31.399  0.00  0.00    -0.051 A 
ATOM      3  CAC CQ0 d   1       4.676  30.022  30.565  0.00  0.00    -0.019 A 
ATOM      4  CAD CQ0 d   1       4.790  29.162  29.449  0.00  0.00    -0.057 A 
ATOM      5  CAE CQ0 d   1       5.975  28.532  29.096  0.00  0.00     0.032 A 
ATOM      6  CAF CQ0 d   1       7.096  28.756  29.923  0.00  0.00    -0.067 A 
ATOM      7  H1  CQ0 d   1       7.841  29.655  31.727  0.00  0.00     0.084 H 
ATOM      8  H2  CQ0 d   1       3.910  28.986  28.840  0.00  0.00     0.086 H 
ATOM      9  H3  CQ0 d   1       8.052  28.314  29.665  0.00  0.00     0.085 H 
ENDROOT
BRANCH   3  10
ATOM     10  CAG CQ0 d   1       3.375  30.537  30.720  0.00  0.00    -0.020 A 
ATOM     11  CAH CQ0 d   1       2.953  31.683  30.005  0.00  0.00    -0.026 A 
ATOM     12  CAI CQ0 d   1       1.650  32.135  30.151  0.00  0.00     0.158 A 
ATOM     13  H4  CQ0 d   1       3.645  32.205  29.346  0.00  0.00     0.090 H 
ATOM     14  NAJ CQ0 d   1       0.788  31.455  31.008  0.00  0.00    -0.291 N 
ATOM     15  NAM CQ0 d   1       0.961  33.187  29.646  0.00  0.00    -0.130 NA
ATOM     16  CAK CQ0 d   1       1.185  30.237  31.701  0.00  0.00    -0.011 A 
ATOM     17  CAO CQ0 d   1      -0.466  32.171  30.904  0.00  0.00     0.142 A 
ATOM     18  CAL CQ0 d   1       2.498  29.815  31.545  0.00  0.00    -0.057 A 
ATOM     19  H5  CQ0 d   1       0.480  29.680  32.317  0.00  0.00     0.112 H 
ATOM     20  H6  CQ0 d   1       2.848  28.923  32.063  0.00  0.00     0.086 H 
ATOM     21  NAN CQ0 d   1      -0.249  33.194  30.038  0.00  0.00    -0.133 NA
BRANCH  17  22
ATOM     22  CAP CQ0 d   1      -1.834  31.770  31.584  0.00  0.00     0.012 C 
BRANCH  22  23
ATOM     23  CAX CQ0 d   1      -2.928  32.705  31.157  0.00  0.00    -0.063 C 
ATOM     24  H16 CQ0 d   1      -3.871  32.410  31.640  0.00  0.00     0.029 H 
ATOM     25  H17 CQ0 d   1      -3.045  32.658  30.064  0.00  0.00     0.029 H 
ATOM     26  H18 CQ0 d   1      -2.669  33.732  31.454  0.00  0.00     0.029 H 
ENDBRANCH  22  23
BRANCH  22  27
ATOM     27  CAY CQ0 d   1      -1.700  31.769  33.100  0.00  0.00    -0.063 C 
ATOM     28  H19 CQ0 d   1      -0.895  31.080  33.397  0.00  0.00     0.029 H 
ATOM     29  H20 CQ0 d   1      -2.648  31.442  33.552  0.00  0.00     0.029 H 
ATOM     30  H21 CQ0 d   1      -1.460  32.785  33.447  0.00  0.00     0.029 H 
ENDBRANCH  22  27
BRANCH  22  31
ATOM     31  CAZ CQ0 d   1      -2.280  30.359  31.045  0.00  0.00    -0.063 C 
ATOM     32  H22 CQ0 d   1      -2.367  30.396  29.949  0.00  0.00     0.029 H 
ATOM     33  H23 CQ0 d   1      -3.254  30.091  31.481  0.00  0.00     0.029 H 
ATOM     34  H24 CQ0 d   1      -1.531  29.605  31.328  0.00  0.00     0.029 H 
ENDBRANCH  22  31
ENDBRANCH  17  22
ENDBRANCH   3  10
BRANCH   2  35
ATOM     35  CAQ CQ0 d   1       5.681  31.064  32.639  0.00  0.00    -0.050 C 
ATOM     36  H7  CQ0 d   1       6.651  31.072  33.158  0.00  0.00     0.033 H 
ATOM     37  H8  CQ0 d   1       4.909  30.660  33.310  0.00  0.00     0.033 H 
ATOM     38  H9  CQ0 d   1       5.412  32.090  32.347  0.00  0.00     0.033 H 
ENDBRANCH   2  35
BRANCH   5  39
ATOM     39  CAR CQ0 d   1       5.963  27.653  27.824  0.00  0.00     0.252 C 
ATOM     40  NAS CQ0 d   1       6.852  26.646  27.728  0.00  0.00    -0.352 N 
ATOM     41  H10 CQ0 d   1       7.490  26.506  28.485  0.00  0.00     0.163 HD
ATOM     42  OAW CQ0 d   1       5.154  27.898  26.944  0.00  0.00    -0.268 OA
BRANCH  40  43
ATOM     43  CAT CQ0 d   1       6.936  25.748  26.582  0.00  0.00     0.012 A 
ATOM     44  CAU CQ0 d   1       7.177  26.459  25.288  0.00  0.00    -0.044 A 
ATOM     45  CAV CQ0 d   1       8.300  25.646  25.918  0.00  0.00    -0.044 A 
ATOM     46  H12 CQ0 d   1       7.239  27.557  25.268  0.00  0.00     0.036 H 
ATOM     47  H13 CQ0 d   1       6.691  26.103  24.367  0.00  0.00     0.036 H 
ATOM     48  H14 CQ0 d   1       8.622  24.700  25.459  0.00  0.00     0.036 H 
ATOM     49  H15 CQ0 d   1       9.170  26.154  26.360  0.00  0.00     0.036 H 
ATOM     50  H11 CQ0 d   1       6.264  24.882  26.672  0.00  0.00     0.072 H 
ENDBRANCH  40  43
ENDBRANCH   5  39
TORSDOF 8
