REMARK  5 active torsions:
REMARK  status: ('A' for Active; 'I' for Inactive)
REMARK    1  A    between atoms: CBA_27  and  CAA_1 
REMARK    2  A    between atoms: CAW_23  and  OAE_5 
REMARK    3  A    between atoms: NAP_16  and  CAN_14 
REMARK    4  A    between atoms: CAN_14  and  CAV_22 
REMARK       I    between atoms: CAR_18  and  NAP_16 
REMARK    5  A    between atoms: CAX_24  and  CAR_18 
ROOT
ATOM      1  OAC DLU d   1     -36.444  29.397 -17.448  0.00  0.00    -0.266 OA
ATOM      2  OAD DLU d   1     -37.025  34.206 -18.897  0.00  0.00    -0.284 OA
ATOM      3  CAK DLU d   1     -37.454  31.798 -21.420  0.00  0.00    -0.000 A 
ATOM      4  CAL DLU d   1     -39.322  26.742 -20.076  0.00  0.00     0.024 C 
ATOM      5  CAM DLU d   1     -38.664  26.431 -18.708  0.00  0.00    -0.026 C 
ATOM      6  CAO DLU d   1     -37.292  29.367 -21.513  0.00  0.00     0.040 C 
ATOM      7  OAQ DLU d   1     -39.075  28.070 -20.606  0.00  0.00    -0.365 OA
ATOM      8  CAS DLU d   1     -36.765  29.427 -18.646  0.00  0.00     0.276 C 
ATOM      9  CAW DLU d   1     -36.871  31.903 -18.704  0.00  0.00     0.150 A 
ATOM     10  CAX DLU d   1     -37.383  33.019 -20.792  0.00  0.00     0.100 A 
ATOM     11  CAY DLU d   1     -36.929  30.647 -19.334  0.00  0.00     0.141 A 
ATOM     12  CAZ DLU d   1     -37.085  33.091 -19.433  0.00  0.00     0.224 A 
ATOM     13  CBA DLU d   1     -37.193  26.899 -18.671  0.00  0.00     0.016 C 
ATOM     14  CBB DLU d   1     -37.635  28.181 -20.714  0.00  0.00     0.124 C 
ATOM     15  NBC DLU d   1     -37.167  28.217 -19.309  0.00  0.00    -0.314 N 
ATOM     16  NBD DLU d   1     -37.234  30.617 -20.718  0.00  0.00    -0.345 N 
ATOM     17  H   DLU d   1     -37.686  31.755 -22.484  0.00  0.00     0.113 H 
ATOM     18  H   DLU d   1     -40.399  26.665 -19.925  0.00  0.00     0.074 H 
ATOM     19  H   DLU d   1     -38.894  26.040 -20.791  0.00  0.00     0.074 H 
ATOM     20  H   DLU d   1     -38.688  25.353 -18.549  0.00  0.00     0.039 H 
ATOM     21  H   DLU d   1     -39.215  26.960 -17.930  0.00  0.00     0.039 H 
ATOM     22  H   DLU d   1     -38.071  29.492 -22.265  0.00  0.00     0.071 H 
ATOM     23  H   DLU d   1     -36.302  29.202 -21.937  0.00  0.00     0.071 H 
ATOM     24  H   DLU d   1     -36.809  26.967 -17.653  0.00  0.00     0.072 H 
ATOM     25  H   DLU d   1     -37.149  27.358 -21.238  0.00  0.00     0.120 H 
ENDROOT
BRANCH  10  26
ATOM     26  CAR DLU d   1     -37.642  34.237 -21.659  0.00  0.00     0.257 C 
ATOM     27  OAB DLU d   1     -38.071  34.046 -22.788  0.00  0.00    -0.267 OA
ATOM     28  NAP DLU d   1     -37.477  35.460 -21.152  0.00  0.00    -0.352 N 
ATOM     29  H   DLU d   1     -37.173  35.606 -20.189  0.00  0.00     0.163 HD
BRANCH  28  30
ATOM     30  CAN DLU d   1     -37.755  36.576 -22.047  0.00  0.00     0.022 C 
ATOM     31  H   DLU d   1     -37.853  36.173 -23.055  0.00  0.00     0.071 H 
ATOM     32  H   DLU d   1     -36.938  37.291 -21.945  0.00  0.00     0.071 H 
BRANCH  30  33
ATOM     33  CAV DLU d   1     -39.035  37.299 -21.721  0.00  0.00    -0.002 A 
ATOM     34  CAI DLU d   1     -39.929  37.522 -22.765  0.00  0.00    -0.069 A 
ATOM     35  CAH DLU d   1     -41.136  38.195 -22.507  0.00  0.00    -0.045 A 
ATOM     36  H   DLU d   1     -39.695  37.178 -23.773  0.00  0.00     0.084 H 
ATOM     37  CAT DLU d   1     -41.405  38.652 -21.210  0.00  0.00     0.119 A 
ATOM     38  H   DLU d   1     -41.856  38.360 -23.309  0.00  0.00     0.088 H 
ATOM     39  FAF DLU d   1     -42.530  39.324 -20.921  0.00  0.00    -0.206 F 
ATOM     40  CAJ DLU d   1     -40.515  38.455 -20.172  0.00  0.00    -0.008 A 
ATOM     41  CAU DLU d   1     -39.334  37.789 -20.431  0.00  0.00     0.127 A 
ATOM     42  H   DLU d   1     -40.741  38.818 -19.169  0.00  0.00     0.093 H 
ATOM     43  FAG DLU d   1     -38.472  37.616 -19.409  0.00  0.00    -0.205 F 
ENDBRANCH  30  33
ENDBRANCH  28  30
ENDBRANCH  10  26
BRANCH   9  44
ATOM     44  OAE DLU d   1     -36.587  31.992 -17.381  0.00  0.00    -0.355 OA
ATOM     45  H   DLU d   1     -35.722  31.611 -17.214  0.00  0.00     0.218 HD
ENDBRANCH   9  44
BRANCH  13  46
ATOM     46  CAA DLU d   1     -36.297  25.882 -19.405  0.00  0.00    -0.057 C 
ATOM     47  H   DLU d   1     -36.377  24.911 -18.917  0.00  0.00     0.030 H 
ATOM     48  H   DLU d   1     -36.621  25.797 -20.442  0.00  0.00     0.030 H 
ATOM     49  H   DLU d   1     -35.262  26.222 -19.373  0.00  0.00     0.030 H 
ENDBRANCH  13  46
TORSDOF 5
