REMARK  5 active torsions:
REMARK  status: ('A' for Active; 'I' for Inactive)
REMARK    1  A    between atoms: CBA_27  and  CAA_1 
REMARK    2  A    between atoms: CAW_23  and  OAE_5 
REMARK    3  A    between atoms: NAP_16  and  CAN_14 
REMARK    4  A    between atoms: CAN_14  and  CAV_22 
REMARK       I    between atoms: CAR_18  and  NAP_16 
REMARK    5  A    between atoms: CAX_24  and  CAR_18 
ROOT
ATOM      1  OAC DLU d   1     -36.176  29.060 -17.605  0.00  0.00    -0.266 OA
ATOM      2  OAD DLU d   1     -37.058  33.863 -18.988  0.00  0.00    -0.284 OA
ATOM      3  CAK DLU d   1     -37.595  31.445 -21.474  0.00  0.00    -0.000 A 
ATOM      4  CAL DLU d   1     -39.379  26.744 -19.616  0.00  0.00     0.024 C 
ATOM      5  CAM DLU d   1     -38.373  25.990 -18.707  0.00  0.00    -0.026 C 
ATOM      6  CAO DLU d   1     -37.383  29.040 -21.558  0.00  0.00     0.040 C 
ATOM      7  OAQ DLU d   1     -39.005  27.946 -20.427  0.00  0.00    -0.365 OA
ATOM      8  CAS DLU d   1     -36.641  29.087 -18.750  0.00  0.00     0.276 C 
ATOM      9  CAW DLU d   1     -36.827  31.570 -18.815  0.00  0.00     0.150 A 
ATOM     10  CAX DLU d   1     -37.526  32.669 -20.859  0.00  0.00     0.100 A 
ATOM     11  CAY DLU d   1     -36.893  30.309 -19.430  0.00  0.00     0.141 A 
ATOM     12  CAZ DLU d   1     -37.131  32.748 -19.529  0.00  0.00     0.224 A 
ATOM     13  CBA DLU d   1     -36.954  26.560 -18.715  0.00  0.00     0.016 C 
ATOM     14  CBB DLU d   1     -37.641  27.855 -20.723  0.00  0.00     0.124 C 
ATOM     15  NBC DLU d   1     -37.006  27.862 -19.386  0.00  0.00    -0.314 N 
ATOM     16  NBD DLU d   1     -37.289  30.280 -20.785  0.00  0.00    -0.345 N 
ATOM     17  H   DLU d   1     -37.895  31.387 -22.520  0.00  0.00     0.113 H 
ATOM     18  H   DLU d   1     -40.105  27.140 -18.906  0.00  0.00     0.074 H 
ATOM     19  H   DLU d   1     -39.632  26.003 -20.374  0.00  0.00     0.074 H 
ATOM     20  H   DLU d   1     -38.307  24.970 -19.084  0.00  0.00     0.039 H 
ATOM     21  H   DLU d   1     -38.743  26.075 -17.685  0.00  0.00     0.039 H 
ATOM     22  H   DLU d   1     -38.218  29.145 -22.250  0.00  0.00     0.071 H 
ATOM     23  H   DLU d   1     -36.427  28.890 -22.059  0.00  0.00     0.071 H 
ATOM     24  H   DLU d   1     -36.543  26.728 -17.719  0.00  0.00     0.072 H 
ATOM     25  H   DLU d   1     -37.272  26.986 -21.267  0.00  0.00     0.120 H 
ENDROOT
BRANCH  10  26
ATOM     26  CAR DLU d   1     -37.853  33.890 -21.700  0.00  0.00     0.257 C 
ATOM     27  OAB DLU d   1     -38.337  33.735 -22.820  0.00  0.00    -0.267 OA
ATOM     28  NAP DLU d   1     -37.578  35.089 -21.186  0.00  0.00    -0.352 N 
ATOM     29  H   DLU d   1     -37.207  35.185 -20.241  0.00  0.00     0.163 HD
BRANCH  28  30
ATOM     30  CAN DLU d   1     -37.822  36.242 -22.010  0.00  0.00     0.022 C 
ATOM     31  H   DLU d   1     -37.889  35.901 -23.043  0.00  0.00     0.071 H 
ATOM     32  H   DLU d   1     -37.008  36.947 -21.842  0.00  0.00     0.071 H 
BRANCH  30  33
ATOM     33  CAV DLU d   1     -39.091  36.936 -21.683  0.00  0.00    -0.002 A 
ATOM     34  CAI DLU d   1     -40.045  36.988 -22.690  0.00  0.00    -0.069 A 
ATOM     35  CAH DLU d   1     -41.250  37.648 -22.423  0.00  0.00    -0.045 A 
ATOM     36  H   DLU d   1     -39.861  36.528 -23.661  0.00  0.00     0.084 H 
ATOM     37  CAT DLU d   1     -41.462  38.254 -21.173  0.00  0.00     0.119 A 
ATOM     38  H   DLU d   1     -42.026  37.692 -23.187  0.00  0.00     0.088 H 
ATOM     39  FAF DLU d   1     -42.599  38.916 -20.932  0.00  0.00    -0.206 F 
ATOM     40  CAJ DLU d   1     -40.510  38.223 -20.167  0.00  0.00    -0.008 A 
ATOM     41  CAU DLU d   1     -39.330  37.573 -20.448  0.00  0.00     0.127 A 
ATOM     42  H   DLU d   1     -40.687  38.691 -19.199  0.00  0.00     0.093 H 
ATOM     43  FAG DLU d   1     -38.396  37.540 -19.503  0.00  0.00    -0.205 F 
ENDBRANCH  30  33
ENDBRANCH  28  30
ENDBRANCH  10  26
BRANCH   9  44
ATOM     44  OAE DLU d   1     -36.479  31.682 -17.505  0.00  0.00    -0.355 OA
ATOM     45  H   DLU d   1     -35.600  31.319 -17.377  0.00  0.00     0.218 HD
ENDBRANCH   9  44
BRANCH  13  46
ATOM     46  CAA DLU d   1     -36.051  25.537 -19.409  0.00  0.00    -0.057 C 
ATOM     47  H   DLU d   1     -36.081  24.596 -18.860  0.00  0.00     0.030 H 
ATOM     48  H   DLU d   1     -36.403  25.376 -20.428  0.00  0.00     0.030 H 
ATOM     49  H   DLU d   1     -35.028  25.913 -19.432  0.00  0.00     0.030 H 
ENDBRANCH  13  46
TORSDOF 5
