REMARK  5 active torsions:
REMARK  status: ('A' for Active; 'I' for Inactive)
REMARK    1  A    between atoms: CBA_27  and  CAA_1 
REMARK    2  A    between atoms: CAW_23  and  OAE_5 
REMARK    3  A    between atoms: NAP_16  and  CAN_14 
REMARK    4  A    between atoms: CAN_14  and  CAV_22 
REMARK       I    between atoms: CAR_18  and  NAP_16 
REMARK    5  A    between atoms: CAX_24  and  CAR_18 
ROOT
ATOM      1  OAC DLU d   1     -36.540  29.101 -17.458  0.00  0.00    -0.266 OA
ATOM      2  OAD DLU d   1     -36.946  33.940 -18.762  0.00  0.00    -0.284 OA
ATOM      3  CAK DLU d   1     -37.459  31.633 -21.414  0.00  0.00    -0.000 A 
ATOM      4  CAL DLU d   1     -39.513  27.012 -19.477  0.00  0.00     0.024 C 
ATOM      5  CAM DLU d   1     -38.509  25.963 -19.029  0.00  0.00    -0.026 C 
ATOM      6  CAO DLU d   1     -37.410  29.206 -21.546  0.00  0.00     0.040 C 
ATOM      7  OAQ DLU d   1     -39.095  27.860 -20.622  0.00  0.00    -0.365 OA
ATOM      8  CAS DLU d   1     -36.887  29.170 -18.651  0.00  0.00     0.276 C 
ATOM      9  CAW DLU d   1     -36.920  31.650 -18.672  0.00  0.00     0.150 A 
ATOM     10  CAX DLU d   1     -37.345  32.839 -20.742  0.00  0.00     0.100 A 
ATOM     11  CAY DLU d   1     -37.026  30.402 -19.327  0.00  0.00     0.141 A 
ATOM     12  CAZ DLU d   1     -37.069  32.861 -19.365  0.00  0.00     0.224 A 
ATOM     13  CBA DLU d   1     -37.173  26.632 -18.723  0.00  0.00     0.016 C 
ATOM     14  CBB DLU d   1     -37.665  27.982 -20.748  0.00  0.00     0.124 C 
ATOM     15  NBC DLU d   1     -37.179  27.974 -19.353  0.00  0.00    -0.314 N 
ATOM     16  NBD DLU d   1     -37.300  30.414 -20.728  0.00  0.00    -0.345 N 
ATOM     17  H   DLU d   1     -37.674  31.628 -22.483  0.00  0.00     0.113 H 
ATOM     18  H   DLU d   1     -39.653  27.685 -18.631  0.00  0.00     0.074 H 
ATOM     19  H   DLU d   1     -40.400  26.469 -19.804  0.00  0.00     0.074 H 
ATOM     20  H   DLU d   1     -38.373  25.229 -19.823  0.00  0.00     0.039 H 
ATOM     21  H   DLU d   1     -38.880  25.466 -18.132  0.00  0.00     0.039 H 
ATOM     22  H   DLU d   1     -38.254  29.341 -22.223  0.00  0.00     0.071 H 
ATOM     23  H   DLU d   1     -36.461  29.071 -22.065  0.00  0.00     0.071 H 
ATOM     24  H   DLU d   1     -36.988  26.764 -17.657  0.00  0.00     0.072 H 
ATOM     25  H   DLU d   1     -37.136  27.191 -21.279  0.00  0.00     0.120 H 
ENDROOT
BRANCH  10  26
ATOM     26  CAR DLU d   1     -37.550  34.077 -21.611  0.00  0.00     0.257 C 
ATOM     27  OAB DLU d   1     -37.906  33.876 -22.770  0.00  0.00    -0.267 OA
ATOM     28  NAP DLU d   1     -37.436  35.305 -21.075  0.00  0.00    -0.352 N 
ATOM     29  H   DLU d   1     -37.177  35.443 -20.098  0.00  0.00     0.163 HD
BRANCH  28  30
ATOM     30  CAN DLU d   1     -37.704  36.433 -21.968  0.00  0.00     0.022 C 
ATOM     31  H   DLU d   1     -37.844  36.051 -22.979  0.00  0.00     0.071 H 
ATOM     32  H   DLU d   1     -36.861  37.122 -21.921  0.00  0.00     0.071 H 
BRANCH  30  33
ATOM     33  CAV DLU d   1     -38.950  37.169 -21.555  0.00  0.00    -0.002 A 
ATOM     34  CAI DLU d   1     -39.921  37.333 -22.529  0.00  0.00    -0.069 A 
ATOM     35  CAH DLU d   1     -41.099  38.017 -22.207  0.00  0.00    -0.045 A 
ATOM     36  H   DLU d   1     -39.770  36.935 -23.532  0.00  0.00     0.084 H 
ATOM     37  CAT DLU d   1     -41.257  38.521 -20.908  0.00  0.00     0.119 A 
ATOM     38  H   DLU d   1     -41.881  38.156 -22.954  0.00  0.00     0.088 H 
ATOM     39  FAF DLU d   1     -42.366  39.191 -20.599  0.00  0.00    -0.206 F 
ATOM     40  CAJ DLU d   1     -40.303  38.379 -19.920  0.00  0.00    -0.008 A 
ATOM     41  CAU DLU d   1     -39.152  37.704 -20.266  0.00  0.00     0.127 A 
ATOM     42  H   DLU d   1     -40.452  38.780 -18.918  0.00  0.00     0.093 H 
ATOM     43  FAG DLU d   1     -38.204  37.545 -19.326  0.00  0.00    -0.205 F 
ENDBRANCH  30  33
ENDBRANCH  28  30
ENDBRANCH  10  26
BRANCH   9  44
ATOM     44  OAE DLU d   1     -36.672  31.712 -17.341  0.00  0.00    -0.355 OA
ATOM     45  H   DLU d   1     -35.833  31.285 -17.153  0.00  0.00     0.218 HD
ENDBRANCH   9  44
BRANCH  13  46
ATOM     46  CAA DLU d   1     -36.099  25.727 -19.323  0.00  0.00    -0.057 C 
ATOM     47  H   DLU d   1     -36.159  24.740 -18.864  0.00  0.00     0.030 H 
ATOM     48  H   DLU d   1     -36.258  25.640 -20.398  0.00  0.00     0.030 H 
ATOM     49  H   DLU d   1     -35.116  26.158 -19.134  0.00  0.00     0.030 H 
ENDBRANCH  13  46
TORSDOF 5
