REMARK  14 active torsions:
REMARK  status: ('A' for Active; 'I' for Inactive)
REMARK       I    between atoms: N1_1  and  C15_2 
REMARK    1  A    between atoms: N1_1  and  C2_10 
REMARK       I    between atoms: C15_2  and  N9_4 
REMARK    2  A    between atoms: C2_10  and  C3_11 
REMARK    3  A    between atoms: C2_10  and  C5_34 
REMARK       I    between atoms: C3_11  and  N28_13 
REMARK    4  A    between atoms: N28_13  and  C19_14 
REMARK    5  A    between atoms: C19_14  and  C18_15 
REMARK    6  A    between atoms: C19_14  and  C20_26 
REMARK    7  A    between atoms: C18_15  and  C17_16 
REMARK    8  A    between atoms: C17_16  and  S33_17 
REMARK    9  A    between atoms: S33_17  and  C32_20 
REMARK   10  A    between atoms: C20_26  and  C21_27 
REMARK   11  A    between atoms: C21_27  and  C22_28 
REMARK   12  A    between atoms: C5_34  and  C6_35 
REMARK   13  A    between atoms: C6_35  and  C7_36 
REMARK   14  A    between atoms: C6_35  and  C8_37 
ROOT
ATOM      1  C19 C1P d   1      17.832  14.170  21.719  0.00  0.00     0.013 C 
ATOM      2  H   C1P d   1      17.488  13.795  22.683  0.00  0.00     0.072 H 
ENDROOT
BRANCH   1   3
ATOM      3  N28 C1P d   1      18.671  13.159  21.043  0.00  0.00    -0.355 N 
ATOM      4  C3  C1P d   1      18.868  11.950  21.603  0.00  0.00     0.240 C 
ATOM      5  O4  C1P d   1      18.379  11.633  22.676  0.00  0.00    -0.271 OA
ATOM      6  H   C1P d   1      19.104  13.378  20.146  0.00  0.00     0.162 HD
BRANCH   4   7
ATOM      7  C2  C1P d   1      19.758  10.945  20.903  0.00  0.00     0.091 C 
ATOM      8  H   C1P d   1      20.167  11.374  19.988  0.00  0.00     0.087 H 
BRANCH   7   9
ATOM      9  N1  C1P d   1      20.840  10.557  21.831  0.00  0.00    -0.330 N 
ATOM     10  C15 C1P d   1      21.728  11.463  22.266  0.00  0.00     0.319 C 
ATOM     11  O16 C1P d   1      21.650  12.625  21.877  0.00  0.00    -0.247 OA
ATOM     12  N9  C1P d   1      22.697  11.120  23.139  0.00  0.00    -0.330 N 
ATOM     13  C14 C1P d   1      22.864   9.734  23.609  0.00  0.00     0.019 C 
ATOM     14  C10 C1P d   1      23.660  12.146  23.591  0.00  0.00     0.019 C 
ATOM     15  C13 C1P d   1      23.152   9.747  25.116  0.00  0.00     0.034 C 
ATOM     16  H   C1P d   1      23.694   9.265  23.081  0.00  0.00     0.067 H 
ATOM     17  H   C1P d   1      21.953   9.168  23.414  0.00  0.00     0.067 H 
ATOM     18  O12 C1P d   1      24.291  10.592  25.318  0.00  0.00    -0.388 OA
ATOM     19  H   C1P d   1      23.351   8.739  25.479  0.00  0.00     0.076 H 
ATOM     20  H   C1P d   1      22.291  10.122  25.670  0.00  0.00     0.076 H 
ATOM     21  C11 C1P d   1      23.966  11.955  25.073  0.00  0.00     0.034 C 
ATOM     22  H   C1P d   1      24.809  12.586  25.354  0.00  0.00     0.076 H 
ATOM     23  H   C1P d   1      23.092  12.232  25.663  0.00  0.00     0.076 H 
ATOM     24  H   C1P d   1      23.229  13.135  23.438  0.00  0.00     0.067 H 
ATOM     25  H   C1P d   1      24.582  12.050  23.018  0.00  0.00     0.067 H 
ATOM     26  H   C1P d   1      20.913   9.589  22.144  0.00  0.00     0.165 HD
ENDBRANCH   7   9
BRANCH   7  27
ATOM     27  C5  C1P d   1      18.933   9.698  20.586  0.00  0.00    -0.035 C 
ATOM     28  H   C1P d   1      18.021  10.025  20.086  0.00  0.00     0.037 H 
ATOM     29  H   C1P d   1      18.747   9.178  21.526  0.00  0.00     0.037 H 
BRANCH  27  30
ATOM     30  C6  C1P d   1      19.649   8.719  19.649  0.00  0.00    -0.059 C 
ATOM     31  H   C1P d   1      20.567   8.434  20.162  0.00  0.00     0.038 H 
BRANCH  30  32
ATOM     32  C7  C1P d   1      19.982   9.350  18.313  0.00  0.00    -0.073 C 
ATOM     33  H   C1P d   1      19.062   9.675  17.827  0.00  0.00     0.028 H 
ATOM     34  H   C1P d   1      20.634  10.209  18.471  0.00  0.00     0.028 H 
ATOM     35  H   C1P d   1      20.488   8.618  17.683  0.00  0.00     0.028 H 
ENDBRANCH  30  32
BRANCH  30  36
ATOM     36  C8  C1P d   1      18.794   7.508  19.371  0.00  0.00    -0.073 C 
ATOM     37  H   C1P d   1      18.575   6.997  20.308  0.00  0.00     0.028 H 
ATOM     38  H   C1P d   1      17.862   7.823  18.901  0.00  0.00     0.028 H 
ATOM     39  H   C1P d   1      19.329   6.832  18.704  0.00  0.00     0.028 H 
ENDBRANCH  30  36
ENDBRANCH  27  30
ENDBRANCH   7  27
ENDBRANCH   4   7
ENDBRANCH   1   3
BRANCH   1  40
ATOM     40  C18 C1P d   1      16.594  14.492  20.848  0.00  0.00    -0.034 C 
ATOM     41  H   C1P d   1      16.007  15.212  21.419  0.00  0.00     0.037 H 
ATOM     42  H   C1P d   1      16.124  13.533  20.631  0.00  0.00     0.037 H 
BRANCH  40  43
ATOM     43  C17 C1P d   1      16.853  15.147  19.490  0.00  0.00     0.035 C 
ATOM     44  H   C1P d   1      16.429  14.508  18.716  0.00  0.00     0.056 H 
ATOM     45  H   C1P d   1      17.929  15.271  19.370  0.00  0.00     0.056 H 
BRANCH  43  46
ATOM     46  S33 C1P d   1      16.132  16.661  19.377  0.00  0.00     0.175 S 
ATOM     47  O34 C1P d   1      14.697  16.592  19.333  0.00  0.00    -0.223 OA
ATOM     48  O35 C1P d   1      16.511  17.459  20.510  0.00  0.00    -0.223 OA
BRANCH  46  49
ATOM     49  C32 C1P d   1      16.789  17.371  18.110  0.00  0.00     0.059 A 
ATOM     50  C36 C1P d   1      16.297  17.200  16.812  0.00  0.00    -0.062 A 
ATOM     51  C37 C1P d   1      16.930  17.866  15.752  0.00  0.00    -0.082 A 
ATOM     52  H   C1P d   1      15.435  16.559  16.627  0.00  0.00     0.085 H 
ATOM     53  C29 C1P d   1      18.024  18.696  15.985  0.00  0.00    -0.083 A 
ATOM     54  H   C1P d   1      16.562  17.733  14.735  0.00  0.00     0.083 H 
ATOM     55  C30 C1P d   1      18.518  18.872  17.281  0.00  0.00    -0.082 A 
ATOM     56  H   C1P d   1      18.499  19.212  15.150  0.00  0.00     0.083 H 
ATOM     57  C31 C1P d   1      17.901  18.202  18.339  0.00  0.00    -0.062 A 
ATOM     58  H   C1P d   1      19.373  19.523  17.463  0.00  0.00     0.083 H 
ATOM     59  H   C1P d   1      18.284  18.324  19.352  0.00  0.00     0.085 H 
ENDBRANCH  46  49
ENDBRANCH  43  46
ENDBRANCH  40  43
ENDBRANCH   1  40
BRANCH   1  60
ATOM     60  C20 C1P d   1      18.671  15.424  21.908  0.00  0.00    -0.043 C 
ATOM     61  H   C1P d   1      18.010  16.252  22.165  0.00  0.00     0.036 H 
ATOM     62  H   C1P d   1      19.210  15.627  20.983  0.00  0.00     0.036 H 
BRANCH  60  63
ATOM     63  C21 C1P d   1      19.686  15.240  23.036  0.00  0.00    -0.039 C 
ATOM     64  H   C1P d   1      20.321  14.390  22.787  0.00  0.00     0.040 H 
ATOM     65  H   C1P d   1      19.138  15.083  23.965  0.00  0.00     0.040 H 
BRANCH  63  66
ATOM     66  C22 C1P d   1      20.568  16.454  23.208  0.00  0.00    -0.058 A 
ATOM     67  C23 C1P d   1      20.258  17.388  24.203  0.00  0.00    -0.077 A 
ATOM     68  C24 C1P d   1      21.075  18.507  24.397  0.00  0.00    -0.082 A 
ATOM     69  H   C1P d   1      19.377  17.243  24.829  0.00  0.00     0.084 H 
ATOM     70  C25 C1P d   1      22.192  18.680  23.587  0.00  0.00    -0.083 A 
ATOM     71  H   C1P d   1      20.839  19.234  25.174  0.00  0.00     0.083 H 
ATOM     72  C26 C1P d   1      22.513  17.745  22.601  0.00  0.00    -0.082 A 
ATOM     73  H   C1P d   1      22.825  19.557  23.724  0.00  0.00     0.083 H 
ATOM     74  C27 C1P d   1      21.698  16.625  22.395  0.00  0.00    -0.077 A 
ATOM     75  H   C1P d   1      23.403  17.888  21.988  0.00  0.00     0.083 H 
ATOM     76  H   C1P d   1      21.937  15.900  21.617  0.00  0.00     0.084 H 
ENDBRANCH  63  66
ENDBRANCH  60  63
ENDBRANCH   1  60
TORSDOF 14
