REMARK  13 active torsions:
REMARK  status: ('A' for Active; 'I' for Inactive)
REMARK       I    between atoms: C_2  and  N1_1 
REMARK       I    between atoms: N_10  and  C_2 
REMARK    1  A    between atoms: N4_6  and  CM_7 
REMARK    2  A    between atoms: CA_11  and  N_10 
REMARK    3  A    between atoms: C1_12  and  CA_11 
REMARK    4  A    between atoms: CA_11  and  CB_14 
REMARK       I    between atoms: N2_24  and  C1_12 
REMARK    5  A    between atoms: CB_14  and  CG_15 
REMARK    6  A    between atoms: C11_21  and  C21_22 
REMARK    7  A    between atoms: S1_37  and  C11_21 
REMARK    8  A    between atoms: C21_22  and  C31_23 
REMARK    9  A    between atoms: C31_23  and  N2_24 
REMARK   10  A    between atoms: C31_23  and  C4_25 
REMARK   11  A    between atoms: C4_25  and  C51_26 
REMARK   12  A    between atoms: C51_26  and  C1'_27 
REMARK   13  A    between atoms: C41_36  and  S1_37 
ROOT
ATOM      1  C1  0IW d   1       2.043 -15.348 -18.696  0.00  0.00     0.241 C 
ATOM      2  O1  0IW d   1       0.937 -15.774 -18.452  0.00  0.00    -0.271 OA
ATOM      3  N2  0IW d   1       3.148 -16.038 -18.448  0.00  0.00    -0.355 N 
ATOM      4  H   0IW d   1       4.053 -15.626 -18.674  0.00  0.00     0.162 HD
ENDROOT
BRANCH   3   5
ATOM      5  C31 0IW d   1       3.100 -17.370 -17.860  0.00  0.00     0.013 C 
ATOM      6  H   0IW d   1       2.084 -17.755 -17.776  0.00  0.00     0.072 H 
BRANCH   5   7
ATOM      7  C21 0IW d   1       3.703 -17.315 -16.448  0.00  0.00    -0.034 C 
ATOM      8  H   0IW d   1       3.143 -16.540 -15.925  0.00  0.00     0.037 H 
ATOM      9  H   0IW d   1       3.643 -18.335 -16.069  0.00  0.00     0.037 H 
BRANCH   7  10
ATOM     10  C11 0IW d   1       5.169 -16.918 -16.309  0.00  0.00     0.035 C 
ATOM     11  H   0IW d   1       5.209 -15.979 -15.758  0.00  0.00     0.056 H 
ATOM     12  H   0IW d   1       5.589 -16.839 -17.312  0.00  0.00     0.056 H 
BRANCH  10  13
ATOM     13  S1  0IW d   1       6.073 -18.049 -15.462  0.00  0.00     0.175 S 
ATOM     14  O11 0IW d   1       5.553 -18.199 -14.135  0.00  0.00    -0.223 OA
ATOM     15  O2  0IW d   1       7.426 -17.574 -15.330  0.00  0.00    -0.223 OA
BRANCH  13  16
ATOM     16  C41 0IW d   1       6.152 -19.439 -16.250  0.00  0.00     0.059 A 
ATOM     17  C32 0IW d   1       5.446 -20.564 -15.823  0.00  0.00    -0.062 A 
ATOM     18  C22 0IW d   1       5.555 -21.769 -16.548  0.00  0.00    -0.082 A 
ATOM     19  H   0IW d   1       4.815 -20.512 -14.936  0.00  0.00     0.085 H 
ATOM     20  C12 0IW d   1       6.364 -21.857 -17.697  0.00  0.00    -0.083 A 
ATOM     21  H   0IW d   1       5.003 -22.647 -16.213  0.00  0.00     0.083 H 
ATOM     22  C61 0IW d   1       7.079 -20.732 -18.118  0.00  0.00    -0.082 A 
ATOM     23  H   0IW d   1       6.432 -22.792 -18.252  0.00  0.00     0.083 H 
ATOM     24  C52 0IW d   1       6.964 -19.538 -17.386  0.00  0.00    -0.062 A 
ATOM     25  H   0IW d   1       7.716 -20.780 -19.001  0.00  0.00     0.083 H 
ATOM     26  H   0IW d   1       7.524 -18.662 -17.713  0.00  0.00     0.085 H 
ENDBRANCH  13  16
ENDBRANCH  10  13
ENDBRANCH   7  10
ENDBRANCH   5   7
BRANCH   5  27
ATOM     27  C4  0IW d   1       3.949 -18.251 -18.770  0.00  0.00    -0.043 C 
ATOM     28  H   0IW d   1       3.951 -19.257 -18.351  0.00  0.00     0.036 H 
ATOM     29  H   0IW d   1       4.944 -17.810 -18.825  0.00  0.00     0.036 H 
BRANCH  27  30
ATOM     30  C51 0IW d   1       3.403 -18.341 -20.188  0.00  0.00    -0.039 C 
ATOM     31  H   0IW d   1       3.594 -17.417 -20.733  0.00  0.00     0.040 H 
ATOM     32  H   0IW d   1       2.323 -18.488 -20.176  0.00  0.00     0.040 H 
BRANCH  30  33
ATOM     33  C1' 0IW d   1       4.091 -19.504 -20.854  0.00  0.00    -0.058 A 
ATOM     34  C2' 0IW d   1       3.501 -20.774 -20.803  0.00  0.00    -0.077 A 
ATOM     35  C3' 0IW d   1       4.150 -21.847 -21.402  0.00  0.00    -0.082 A 
ATOM     36  H   0IW d   1       2.545 -20.919 -20.300  0.00  0.00     0.084 H 
ATOM     37  C4' 0IW d   1       5.365 -21.643 -22.057  0.00  0.00    -0.083 A 
ATOM     38  H   0IW d   1       3.712 -22.844 -21.360  0.00  0.00     0.083 H 
ATOM     39  C5' 0IW d   1       5.952 -20.373 -22.105  0.00  0.00    -0.082 A 
ATOM     40  H   0IW d   1       5.864 -22.484 -22.538  0.00  0.00     0.083 H 
ATOM     41  C6' 0IW d   1       5.312 -19.295 -21.497  0.00  0.00    -0.077 A 
ATOM     42  H   0IW d   1       6.904 -20.228 -22.615  0.00  0.00     0.083 H 
ATOM     43  H   0IW d   1       5.759 -18.301 -21.523  0.00  0.00     0.084 H 
ENDBRANCH  30  33
ENDBRANCH  27  30
ENDBRANCH   5  27
ENDBRANCH   3   5
BRANCH   1  44
ATOM     44  CA  0IW d   1       2.191 -13.992 -19.327  0.00  0.00     0.095 C 
ATOM     45  H   0IW d   1       3.247 -13.848 -19.553  0.00  0.00     0.088 H 
BRANCH  44  46
ATOM     46  N   0IW d   1       1.363 -13.918 -20.533  0.00  0.00    -0.329 N 
ATOM     47  C   0IW d   1       1.646 -14.622 -21.633  0.00  0.00     0.319 C 
ATOM     48  N1  0IW d   1       0.836 -14.511 -22.702  0.00  0.00    -0.331 N 
ATOM     49  O   0IW d   1       2.633 -15.362 -21.657  0.00  0.00    -0.247 OA
ATOM     50  C2  0IW d   1      -0.340 -13.636 -22.704  0.00  0.00     0.014 C 
ATOM     51  C6  0IW d   1       1.109 -15.279 -23.923  0.00  0.00     0.014 C 
ATOM     52  C3  0IW d   1      -0.873 -13.473 -24.118  0.00  0.00     0.005 C 
ATOM     53  H   0IW d   1      -0.057 -12.658 -22.315  0.00  0.00     0.067 H 
ATOM     54  H   0IW d   1      -1.115 -14.080 -22.080  0.00  0.00     0.067 H 
ATOM     55  N4  0IW d   1      -1.128 -14.802 -24.650  0.00  0.00    -0.414 N 
ATOM     56  H   0IW d   1      -0.147 -12.949 -24.739  0.00  0.00     0.066 H 
ATOM     57  H   0IW d   1      -1.790 -12.884 -24.112  0.00  0.00     0.066 H 
ATOM     58  C5  0IW d   1      -0.201 -15.902 -24.397  0.00  0.00     0.005 C 
ATOM     59  H   0IW d   1      -0.044 -16.491 -25.301  0.00  0.00     0.066 H 
ATOM     60  H   0IW d   1      -0.602 -16.579 -23.643  0.00  0.00     0.066 H 
ATOM     61  H   0IW d   1       1.843 -16.059 -23.719  0.00  0.00     0.067 H 
ATOM     62  H   0IW d   1       1.514 -14.624 -24.695  0.00  0.00     0.067 H 
ATOM     63  H   0IW d   1       0.544 -13.310 -20.533  0.00  0.00     0.165 HD
BRANCH  55  64
ATOM     64  CM  0IW d   1      -2.317 -15.037 -25.461  0.00  0.00    -0.023 C 
ATOM     65  H   0IW d   1      -2.018 -15.370 -26.455  0.00  0.00     0.055 H 
ATOM     66  H   0IW d   1      -2.932 -15.804 -24.989  0.00  0.00     0.055 H 
ATOM     67  H   0IW d   1      -2.888 -14.112 -25.544  0.00  0.00     0.055 H 
ENDBRANCH  55  64
ENDBRANCH  44  46
BRANCH  44  68
ATOM     68  CB  0IW d   1       1.687 -12.892 -18.381  0.00  0.00    -0.014 C 
ATOM     69  H   0IW d   1       2.043 -13.102 -17.372  0.00  0.00     0.043 H 
ATOM     70  H   0IW d   1       0.597 -12.876 -18.405  0.00  0.00     0.043 H 
BRANCH  68  71
ATOM     71  CG  0IW d   1       2.209 -11.538 -18.816  0.00  0.00    -0.056 A 
ATOM     72  CD1 0IW d   1       3.393 -11.036 -18.266  0.00  0.00    -0.077 A 
ATOM     73  CE1 0IW d   1       3.867  -9.785 -18.670  0.00  0.00    -0.082 A 
ATOM     74  H   0IW d   1       3.943 -11.617 -17.526  0.00  0.00     0.084 H 
ATOM     75  CZ  0IW d   1       3.157  -9.034 -19.612  0.00  0.00    -0.083 A 
ATOM     76  H   0IW d   1       4.793  -9.393 -18.250  0.00  0.00     0.083 H 
ATOM     77  CE2 0IW d   1       1.978  -9.537 -20.161  0.00  0.00    -0.082 A 
ATOM     78  H   0IW d   1       3.526  -8.055 -19.917  0.00  0.00     0.083 H 
ATOM     79  CD2 0IW d   1       1.510 -10.787 -19.760  0.00  0.00    -0.077 A 
ATOM     80  H   0IW d   1       1.426  -8.956 -20.899  0.00  0.00     0.083 H 
ATOM     81  H   0IW d   1       0.589 -11.181 -20.189  0.00  0.00     0.084 H 
ENDBRANCH  68  71
ENDBRANCH  44  68
ENDBRANCH   1  44
TORSDOF 13
