REMARK  9 active torsions:
REMARK  status: ('A' for Active; 'I' for Inactive)
REMARK    1  A    between atoms: C3_3  and  N4_4 
REMARK    2  A    between atoms: C8_8  and  C9_9 
REMARK    3  A    between atoms: C9_9  and  C10_10 
REMARK    4  A    between atoms: C12_12  and  O13_13 
REMARK    5  A    between atoms: O13_13  and  C14_14 
REMARK    6  A    between atoms: C15_15  and  O16_16 
REMARK    7  A    between atoms: O16_16  and  C17_17 
REMARK    8  A    between atoms: C18_18  and  O19_19 
REMARK    9  A    between atoms: O19_19  and  C20_20 
ROOT
ATOM      1  C10 TOP d   1      15.107   6.216  -0.203  0.00  0.00    -0.048 C 
ATOM      2  C11 TOP d   1      13.897   6.267   0.509  0.00  0.00    -0.042 C 
ATOM      3  C12 TOP d   1      12.819   7.065   0.001  0.00  0.00     0.104 C 
ATOM      4  C15 TOP d   1      12.899   7.656  -1.304  0.00  0.00     0.135 C 
ATOM      5  C18 TOP d   1      14.115   7.515  -2.007  0.00  0.00     0.104 C 
ATOM      6  C21 TOP d   1      15.265   6.844  -1.494  0.00  0.00    -0.042 C 
ATOM      7  H8  TOP d   1      13.780   5.710   1.431  0.00  0.00     0.088 H 
ATOM      8  H18 TOP d   1      16.201   6.808  -2.040  0.00  0.00     0.088 H 
ENDROOT
BRANCH   1   9
ATOM      9  C9  TOP d   1      16.305   5.394   0.306  0.00  0.00    -0.012 C 
ATOM     10  H6  TOP d   1      15.964   4.367   0.501  0.00  0.00     0.047 H 
ATOM     11  H7  TOP d   1      17.077   5.382  -0.478  0.00  0.00     0.047 H 
BRANCH   9  12
ATOM     12  C8  TOP d   1      16.916   5.939   1.566  0.00  0.00     0.010 A 
ATOM     13  C1  TOP d   1      16.412   5.459   2.779  0.00  0.00     0.031 A 
ATOM     14  N2  TOP d   1      16.869   5.945   3.924  0.00  0.00    -0.075 NA
ATOM     15  H1  TOP d   1      15.648   4.690   2.783  0.00  0.00     0.116 H 
ATOM     16  C3  TOP d   1      17.798   7.001   3.981  0.00  0.00     0.721 A 
ATOM     17  N5  TOP d   1      18.311   7.473   2.851  0.00  0.00    -0.045 NA
ATOM     18  C6  TOP d   1      17.941   6.999   1.657  0.00  0.00     0.148 A 
ATOM     19  N7  TOP d   1      18.470   7.574   0.567  0.00  0.00    -0.383 N 
ATOM     20  H4  TOP d   1      18.210   7.237  -0.371  0.00  0.00     0.157 HD
ATOM     21  H5  TOP d   1      19.137   8.353   0.668  0.00  0.00     0.157 HD
BRANCH  16  22
ATOM     22  N4  TOP d   1      18.199   7.451   5.216  0.00  0.00    -0.231 N 
ATOM     23  H2  TOP d   1      17.776   7.059   6.069  0.00  0.00     0.174 HD
ATOM     24  H3  TOP d   1      18.923   8.181   5.288  0.00  0.00     0.174 HD
ENDBRANCH  16  22
ENDBRANCH   9  12
ENDBRANCH   1   9
BRANCH   3  25
ATOM     25  O13 TOP d   1      11.582   7.187   0.526  0.00  0.00    -0.353 OA
BRANCH  25  26
ATOM     26  C14 TOP d   1      11.456   6.532   1.819  0.00  0.00     0.010 C 
ATOM     27  H9  TOP d   1      10.432   6.663   2.198  0.00  0.00     0.066 H 
ATOM     28  H10 TOP d   1      12.169   6.979   2.527  0.00  0.00     0.066 H 
ATOM     29  H11 TOP d   1      11.672   5.459   1.709  0.00  0.00     0.066 H 
ENDBRANCH  25  26
ENDBRANCH   3  25
BRANCH   5  30
ATOM     30  O19 TOP d   1      14.098   8.211  -3.217  0.00  0.00    -0.353 OA
BRANCH  30  31
ATOM     31  C20 TOP d   1      15.316   8.059  -3.921  0.00  0.00     0.010 C 
ATOM     32  H15 TOP d   1      15.266   8.620  -4.866  0.00  0.00     0.066 H 
ATOM     33  H16 TOP d   1      15.485   6.993  -4.135  0.00  0.00     0.066 H 
ATOM     34  H17 TOP d   1      16.144   8.446  -3.309  0.00  0.00     0.066 H 
ENDBRANCH  30  31
ENDBRANCH   5  30
BRANCH   4  35
ATOM     35  O16 TOP d   1      11.747   8.327  -1.741  0.00  0.00    -0.351 OA
BRANCH  35  36
ATOM     36  C17 TOP d   1      11.030   7.535  -2.757  0.00  0.00     0.011 C 
ATOM     37  H12 TOP d   1      10.133   8.082  -3.082  0.00  0.00     0.067 H 
ATOM     38  H13 TOP d   1      10.733   6.568  -2.326  0.00  0.00     0.067 H 
ATOM     39  H14 TOP d   1      11.689   7.364  -3.621  0.00  0.00     0.067 H 
ENDBRANCH  35  36
ENDBRANCH   4  35
TORSDOF 9
