REMARK  8 active torsions:
REMARK  status: ('A' for Active; 'I' for Inactive)
REMARK    1  A    between atoms: N4_10  and  C13_20 
REMARK    2  A    between atoms: C15_22  and  N4_10 
REMARK    3  A    between atoms: C7_14  and  C5_11 
REMARK       I    between atoms: C22_29  and  N5_12 
REMARK    4  A    between atoms: N5_12  and  C23_30 
REMARK    5  A    between atoms: C8_15  and  C7_14 
REMARK    6  A    between atoms: C11_18  and  C12_19 
REMARK    7  A    between atoms: C17_24  and  C22_29 
REMARK    8  A    between atoms: C20_27  and  C21_28 
ROOT
ATOM      1  N1  NK0 d   1       1.765  -4.227  17.717  0.00  0.00    -0.239 N 
ATOM      2  N2  NK0 d   1       2.239  -2.474  19.790  0.00  0.00    -0.220 NA
ATOM      3  N3  NK0 d   1       1.608  -2.872  17.477  0.00  0.00    -0.161 NA
ATOM      4  C8  NK0 d   1       1.670  -6.471  17.482  0.00  0.00     0.041 A 
ATOM      5  C9  NK0 d   1       1.490  -5.217  16.839  0.00  0.00     0.019 A 
ATOM      6  C10 NK0 d   1       2.163  -4.803  18.974  0.00  0.00     0.111 A 
ATOM      7  C11 NK0 d   1       2.077  -6.203  18.838  0.00  0.00    -0.014 A 
ATOM      8  C13 NK0 d   1       2.454  -3.825  20.010  0.00  0.00     0.159 A 
ATOM      9  C14 NK0 d   1       1.840  -2.090  18.574  0.00  0.00     0.108 A 
ATOM     10  H   NK0 d   1       1.180  -5.076  15.804  0.00  0.00     0.116 H 
ATOM     11  H   NK0 d   1       1.679  -1.020  18.440  0.00  0.00     0.149 H 
ENDROOT
BRANCH   8  12
ATOM     12  N4  NK0 d   1       3.106  -4.231  21.151  0.00  0.00    -0.339 N 
ATOM     13  H   NK0 d   1       3.403  -5.205  21.218  0.00  0.00     0.167 HD
BRANCH  12  14
ATOM     14  C15 NK0 d   1       3.383  -3.376  22.226  0.00  0.00     0.040 A 
ATOM     15  C16 NK0 d   1       2.330  -2.851  22.975  0.00  0.00    -0.041 A 
ATOM     16  C17 NK0 d   1       2.547  -1.828  23.894  0.00  0.00     0.034 A 
ATOM     17  H   NK0 d   1       1.324  -3.247  22.839  0.00  0.00     0.088 H 
ATOM     18  C18 NK0 d   1       3.840  -1.347  24.076  0.00  0.00    -0.067 A 
ATOM     19  C19 NK0 d   1       4.897  -1.896  23.370  0.00  0.00    -0.074 A 
ATOM     20  H   NK0 d   1       4.022  -0.533  24.778  0.00  0.00     0.085 H 
ATOM     21  C20 NK0 d   1       4.711  -2.924  22.445  0.00  0.00    -0.035 A 
ATOM     22  H   NK0 d   1       5.903  -1.514  23.542  0.00  0.00     0.084 H 
BRANCH  16  23
ATOM     23  C22 NK0 d   1       1.366  -1.305  24.649  0.00  0.00     0.252 C 
ATOM     24  O2  NK0 d   1       0.240  -1.761  24.456  0.00  0.00    -0.268 OA
ATOM     25  N5  NK0 d   1       1.597  -0.315  25.527  0.00  0.00    -0.346 N 
ATOM     26  H   NK0 d   1       2.563  -0.054  25.727  0.00  0.00     0.163 HD
BRANCH  25  27
ATOM     27  C23 NK0 d   1       0.521   0.405  26.208  0.00  0.00     0.045 A 
ATOM     28  C24 NK0 d   1       0.796   1.019  27.514  0.00  0.00    -0.079 A 
ATOM     29  C25 NK0 d   1      -0.078  -0.164  27.424  0.00  0.00    -0.079 A 
ATOM     30  H   NK0 d   1       1.287   1.787  28.112  0.00  0.00     0.080 H 
ATOM     31  H   NK0 d   1      -0.707  -0.912  27.906  0.00  0.00     0.080 H 
ATOM     32  H   NK0 d   1       0.128   0.757  25.254  0.00  0.00     0.085 H 
ENDBRANCH  25  27
ENDBRANCH  16  23
BRANCH  21  33
ATOM     33  C21 NK0 d   1       5.898  -3.579  21.783  0.00  0.00    -0.049 C 
ATOM     34  H   NK0 d   1       6.463  -2.829  21.229  0.00  0.00     0.033 H 
ATOM     35  H   NK0 d   1       6.536  -4.027  22.545  0.00  0.00     0.033 H 
ATOM     36  H   NK0 d   1       5.550  -4.353  21.099  0.00  0.00     0.033 H 
ENDBRANCH  21  33
ENDBRANCH  12  14
ENDBRANCH   8  12
BRANCH   7  37
ATOM     37  C12 NK0 d   1       2.261  -7.196  19.907  0.00  0.00    -0.048 C 
ATOM     38  H   NK0 d   1       3.263  -7.098  20.324  0.00  0.00     0.033 H 
ATOM     39  H   NK0 d   1       1.522  -7.026  20.690  0.00  0.00     0.033 H 
ATOM     40  H   NK0 d   1       2.134  -8.198  19.497  0.00  0.00     0.033 H 
ENDBRANCH   7  37
BRANCH   4  41
ATOM     41  C7  NK0 d   1       1.479  -7.818  16.749  0.00  0.00     0.194 C 
ATOM     42  O1  NK0 d   1       1.689  -8.879  17.337  0.00  0.00    -0.287 OA
BRANCH  41  43
ATOM     43  C5  NK0 d   1       1.103  -7.845  15.304  0.00  0.00     0.015 A 
ATOM     44  C4  NK0 d   1       1.913  -8.502  14.379  0.00  0.00    -0.069 A 
ATOM     45  C3  NK0 d   1       1.663  -8.388  13.020  0.00  0.00    -0.082 A 
ATOM     46  H   NK0 d   1       2.749  -9.110  14.726  0.00  0.00     0.085 H 
ATOM     47  C2  NK0 d   1       0.602  -7.632  12.569  0.00  0.00    -0.083 A 
ATOM     48  H   NK0 d   1       2.308  -8.898  12.305  0.00  0.00     0.083 H 
ATOM     49  C1  NK0 d   1      -0.219  -6.999  13.474  0.00  0.00    -0.082 A 
ATOM     50  H   NK0 d   1       0.414  -7.536  11.500  0.00  0.00     0.083 H 
ATOM     51  C6  NK0 d   1       0.015  -7.117  14.835  0.00  0.00    -0.069 A 
ATOM     52  H   NK0 d   1      -1.058  -6.401  13.118  0.00  0.00     0.083 H 
ATOM     53  H   NK0 d   1      -0.659  -6.635  15.543  0.00  0.00     0.085 H 
ENDBRANCH  41  43
ENDBRANCH   4  41
TORSDOF 8
