REMARK  16 active torsions:
REMARK  status: ('A' for Active; 'I' for Inactive)
REMARK    1  A    between atoms: C2_2  and  N1_1 
REMARK    2  A    between atoms: S8_8  and  C5_5 
REMARK    3  A    between atoms: N11_11  and  S8_8 
REMARK    4  A    between atoms: N11_11  and  C12_12 
REMARK    5  A    between atoms: C16_16  and  N11_11 
REMARK    6  A    between atoms: C12_12  and  C13_13 
REMARK    7  A    between atoms: C13_13  and  C14_14 
REMARK    8  A    between atoms: C13_13  and  C15_15 
REMARK    9  A    between atoms: C17_17  and  C16_16 
REMARK   10  A    between atoms: C17_17  and  O18_18 
REMARK   11  A    between atoms: C19_19  and  C17_17 
REMARK   12  A    between atoms: C19_19  and  N20_20 
REMARK   13  A    between atoms: C32_32  and  C19_19 
REMARK       I    between atoms: N20_20  and  C21_21 
REMARK   14  A    between atoms: C21_21  and  O23_23 
REMARK   15  A    between atoms: O23_23  and  C24_24 
REMARK   16  A    between atoms: C38_38  and  C32_32 
ROOT
ATOM      1  C19 017 d   1       2.730   7.254  37.876  0.00  0.00     0.044 C 
ATOM      2  H20 017 d   1       2.352   8.276  37.729  0.00  0.00     0.077 H 
ENDROOT
BRANCH   1   3
ATOM      3  C17 017 d   1       1.545   6.276  37.592  0.00  0.00     0.071 C 
ATOM      4  H18 017 d   1       0.828   6.332  38.425  0.00  0.00     0.088 H 
BRANCH   3   5
ATOM      5  C16 017 d   1       0.801   6.677  36.248  0.00  0.00     0.031 C 
ATOM      6  H16 017 d   1       1.535   6.738  35.431  0.00  0.00     0.069 H 
ATOM      7  H17 017 d   1       0.047   5.913  36.008  0.00  0.00     0.069 H 
BRANCH   5   8
ATOM      8  N11 017 d   1       0.114   8.029  36.411  0.00  0.00    -0.304 N 
BRANCH   8   9
ATOM      9  S8  017 d   1       0.761   9.311  35.358  0.00  0.00     0.260 S 
ATOM     10  O9  017 d   1       2.339   9.159  35.259  0.00  0.00    -0.200 OA
ATOM     11  O10 017 d   1       0.409  10.754  35.881  0.00  0.00    -0.200 OA
BRANCH   9  12
ATOM     12  C5  017 d   1       0.154   9.108  33.622  0.00  0.00     0.079 A 
ATOM     13  C4  017 d   1       0.916   8.305  32.756  0.00  0.00    -0.058 A 
ATOM     14  C3  017 d   1       0.449   8.071  31.457  0.00  0.00    -0.056 A 
ATOM     15  H4  017 d   1       1.853   7.873  33.089  0.00  0.00     0.086 H 
ATOM     16  C2  017 d   1      -0.803   8.572  31.066  0.00  0.00     0.025 A 
ATOM     17  H3  017 d   1       1.052   7.505  30.756  0.00  0.00     0.086 H 
ATOM     18  C7  017 d   1      -1.624   9.263  31.977  0.00  0.00    -0.056 A 
ATOM     19  C6  017 d   1      -1.119   9.558  33.265  0.00  0.00    -0.058 A 
ATOM     20  H6  017 d   1      -2.627   9.564  31.696  0.00  0.00     0.086 H 
ATOM     21  H5  017 d   1      -1.715  10.128  33.969  0.00  0.00     0.086 H 
BRANCH  16  22
ATOM     22  N1  017 d   1      -1.244   8.336  29.781  0.00  0.00    -0.399 N 
ATOM     23  H1  017 d   1      -0.643   7.830  29.115  0.00  0.00     0.156 HD
ATOM     24  H2  017 d   1      -2.175   8.665  29.487  0.00  0.00     0.156 HD
ENDBRANCH  16  22
ENDBRANCH   9  12
ENDBRANCH   8   9
BRANCH   8  25
ATOM     25  C12 017 d   1      -1.359   7.972  36.614  0.00  0.00     0.008 C 
ATOM     26  H7  017 d   1      -1.777   7.250  35.898  0.00  0.00     0.066 H 
ATOM     27  H8  017 d   1      -1.773   8.971  36.412  0.00  0.00     0.066 H 
BRANCH  25  28
ATOM     28  C13 017 d   1      -1.794   7.546  38.044  0.00  0.00    -0.045 C 
ATOM     29  H9  017 d   1      -1.399   6.554  38.308  0.00  0.00     0.041 H 
BRANCH  28  30
ATOM     30  C14 017 d   1      -1.261   8.602  39.003  0.00  0.00    -0.072 C 
ATOM     31  H10 017 d   1      -1.547   8.340  40.032  0.00  0.00     0.028 H 
ATOM     32  H11 017 d   1      -1.687   9.582  38.742  0.00  0.00     0.028 H 
ATOM     33  H12 017 d   1      -0.165   8.646  38.927  0.00  0.00     0.028 H 
ENDBRANCH  28  30
BRANCH  28  34
ATOM     34  C15 017 d   1      -3.317   7.530  38.027  0.00  0.00    -0.072 C 
ATOM     35  H13 017 d   1      -3.668   6.758  37.326  0.00  0.00     0.028 H 
ATOM     36  H14 017 d   1      -3.691   8.514  37.706  0.00  0.00     0.028 H 
ATOM     37  H15 017 d   1      -3.693   7.307  39.036  0.00  0.00     0.028 H 
ENDBRANCH  28  34
ENDBRANCH  25  28
ENDBRANCH   8  25
ENDBRANCH   5   8
ENDBRANCH   3   5
BRANCH   3  38
ATOM     38  O18 017 d   1       2.042   4.946  37.496  0.00  0.00    -0.392 OA
ATOM     39  H19 017 d   1       1.318   4.348  37.349  0.00  0.00     0.210 HD
ENDBRANCH   3  38
ENDBRANCH   1   3
BRANCH   1  40
ATOM     40  N20 017 d   1       3.213   7.138  39.216  0.00  0.00    -0.329 N 
ATOM     41  C21 017 d   1       3.013   8.043  40.225  0.00  0.00     0.361 C 
ATOM     42  O22 017 d   1       2.517   9.202  40.070  0.00  0.00    -0.238 OA
ATOM     43  H21 017 d   1       3.746   6.321  39.438  0.00  0.00     0.165 HD
BRANCH  41  44
ATOM     44  O23 017 d   1       3.417   7.525  41.508  0.00  0.00    -0.296 OA
BRANCH  44  45
ATOM     45  C24 017 d   1       3.478   8.533  42.594  0.00  0.00     0.078 C 
ATOM     46  C25 017 d   1       3.018   7.764  43.875  0.00  0.00     0.048 C 
ATOM     47  O26 017 d   1       4.085   6.815  44.154  0.00  0.00    -0.358 OA
ATOM     48  H23 017 d   1       2.071   7.236  43.689  0.00  0.00     0.078 H 
ATOM     49  H24 017 d   1       2.890   8.460  44.718  0.00  0.00     0.078 H 
ATOM     50  C27 017 d   1       5.260   7.542  43.784  0.00  0.00     0.137 C 
ATOM     51  O28 017 d   1       6.177   6.689  43.070  0.00  0.00    -0.361 OA
ATOM     52  C31 017 d   1       4.933   8.736  43.019  0.00  0.00     0.023 C 
ATOM     53  H25 017 d   1       5.757   7.868  44.709  0.00  0.00     0.129 H 
ATOM     54  C29 017 d   1       6.286   7.326  41.775  0.00  0.00     0.023 C 
ATOM     55  C30 017 d   1       6.038   8.836  42.008  0.00  0.00    -0.035 C 
ATOM     56  H26 017 d   1       5.532   6.919  41.086  0.00  0.00     0.074 H 
ATOM     57  H27 017 d   1       7.290   7.166  41.356  0.00  0.00     0.074 H 
ATOM     58  H28 017 d   1       5.713   9.348  41.090  0.00  0.00     0.037 H 
ATOM     59  H29 017 d   1       6.926   9.342  42.415  0.00  0.00     0.037 H 
ATOM     60  H30 017 d   1       4.973   9.637  43.649  0.00  0.00     0.051 H 
ATOM     61  H22 017 d   1       2.929   9.458  42.363  0.00  0.00     0.088 H 
ENDBRANCH  44  45
ENDBRANCH  41  44
ENDBRANCH   1  40
BRANCH   1  62
ATOM     62  C32 017 d   1       3.963   7.041  36.916  0.00  0.00    -0.020 C 
ATOM     63  H31 017 d   1       3.664   7.294  35.888  0.00  0.00     0.043 H 
ATOM     64  H32 017 d   1       4.272   5.986  36.959  0.00  0.00     0.043 H 
BRANCH  62  65
ATOM     65  C38 017 d   1       5.147   7.924  37.322  0.00  0.00    -0.056 C 
ATOM     66  C33 017 d   1       6.277   7.391  37.963  0.00  0.00    -0.077 C 
ATOM     67  C34 017 d   1       7.363   8.219  38.356  0.00  0.00    -0.082 C 
ATOM     68  H33 017 d   1       6.322   6.326  38.162  0.00  0.00     0.084 H 
ATOM     69  C35 017 d   1       7.231   9.604  38.182  0.00  0.00    -0.083 C 
ATOM     70  H34 017 d   1       8.266   7.793  38.778  0.00  0.00     0.083 H 
ATOM     71  C36 017 d   1       6.146  10.132  37.466  0.00  0.00    -0.082 C 
ATOM     72  H35 017 d   1       7.973  10.272  38.604  0.00  0.00     0.083 H 
ATOM     73  C37 017 d   1       5.053   9.310  37.087  0.00  0.00    -0.077 C 
ATOM     74  H36 017 d   1       6.143  11.182  37.199  0.00  0.00     0.083 H 
ATOM     75  H37 017 d   1       4.169   9.738  36.629  0.00  0.00     0.084 H 
ENDBRANCH  62  65
ENDBRANCH   1  62
TORSDOF 16
