REMARK  17 active torsions:
REMARK  status: ('A' for Active; 'I' for Inactive)
REMARK    1  A    between atoms: C_1  and  C2_4 
REMARK       I    between atoms: N_13  and  C_1 
REMARK    2  A    between atoms: CA_14  and  N_13 
REMARK    3  A    between atoms: C1_15  and  CA_14 
REMARK    4  A    between atoms: CA_14  and  CB_17 
REMARK       I    between atoms: N2_24  and  C1_15 
REMARK    5  A    between atoms: CB_17  and  CG_18 
REMARK       I    between atoms: CG_18  and  ND2_20 
REMARK    6  A    between atoms: C9_21  and  O2_22 
REMARK    7  A    between atoms: CA1_23  and  C9_21 
REMARK    8  A    between atoms: C9_21  and  CM_33 
REMARK    9  A    between atoms: CA1_23  and  N2_24 
REMARK   10  A    between atoms: CA1_23  and  CB1_25 
REMARK   11  A    between atoms: CB1_25  and  CG1_26 
REMARK   12  A    between atoms: CM_33  and  N11_32 
REMARK   13  A    between atoms: C21_34  and  CC_35 
REMARK       I    between atoms: CC_35  and  N3_45 
REMARK   14  A    between atoms: N3_45  and  CD_46 
REMARK   15  A    between atoms: CD_46  and  C11_47 
REMARK   16  A    between atoms: CD_46  and  C22_48 
REMARK   17  A    between atoms: CD_46  and  C32_49 
ROOT
ATOM      1  C9  ROC d   1       0.956   5.874  37.643  0.00  0.00     0.078 C 
ATOM      2  H13 ROC d   1       0.425   5.916  38.605  0.00  0.00     0.088 H 
ENDROOT
BRANCH   1   3
ATOM      3  O2  ROC d   1       1.475   4.527  37.470  0.00  0.00    -0.392 OA
ATOM      4  H14 ROC d   1       1.939   4.471  36.643  0.00  0.00     0.210 HD
ENDBRANCH   1   3
BRANCH   1   5
ATOM      5  CA1 ROC d   1       1.987   6.999  37.663  0.00  0.00     0.042 C 
ATOM      6  H15 ROC d   1       1.512   7.986  37.565  0.00  0.00     0.077 H 
BRANCH   5   7
ATOM      7  N2  ROC d   1       2.721   6.861  38.958  0.00  0.00    -0.352 N 
ATOM      8  C1  ROC d   1       2.691   7.785  39.899  0.00  0.00     0.241 C 
ATOM      9  O1  ROC d   1       2.082   8.892  39.812  0.00  0.00    -0.271 OA
ATOM     10  H16 ROC d   1       3.258   6.033  39.118  0.00  0.00     0.163 HD
BRANCH   8  11
ATOM     11  CA  ROC d   1       3.526   7.374  41.156  0.00  0.00     0.097 C 
ATOM     12  H8  ROC d   1       3.721   6.292  41.197  0.00  0.00     0.088 H 
BRANCH  11  13
ATOM     13  N   ROC d   1       4.765   8.164  41.083  0.00  0.00    -0.342 N 
ATOM     14  C   ROC d   1       5.941   7.499  41.256  0.00  0.00     0.271 C 
ATOM     15  O   ROC d   1       5.996   6.341  41.547  0.00  0.00    -0.266 OA
ATOM     16  H7  ROC d   1       4.745   9.149  40.913  0.00  0.00     0.163 HD
BRANCH  14  17
ATOM     17  C2  ROC d   1       7.188   8.299  41.158  0.00  0.00     0.125 A 
ATOM     18  N1  ROC d   1       6.999   9.544  40.725  0.00  0.00    -0.243 NA
ATOM     19  C8A ROC d   1       7.978  10.437  40.597  0.00  0.00     0.068 A 
ATOM     20  C8  ROC d   1       7.689  11.687  40.060  0.00  0.00    -0.054 A 
ATOM     21  C4A ROC d   1       9.278  10.065  40.925  0.00  0.00    -0.007 A 
ATOM     22  C7  ROC d   1       8.697  12.629  39.908  0.00  0.00    -0.081 A 
ATOM     23  H6  ROC d   1       6.675  11.926  39.760  0.00  0.00     0.087 H 
ATOM     24  C6  ROC d   1      10.001  12.295  40.250  0.00  0.00    -0.082 A 
ATOM     25  H5  ROC d   1       8.468  13.617  39.526  0.00  0.00     0.083 H 
ATOM     26  C5  ROC d   1      10.313  11.014  40.746  0.00  0.00    -0.071 A 
ATOM     27  H4  ROC d   1      10.789  13.030  40.134  0.00  0.00     0.083 H 
ATOM     28  H3  ROC d   1      11.338  10.757  40.989  0.00  0.00     0.084 H 
ATOM     29  C4  ROC d   1       9.513   8.764  41.407  0.00  0.00    -0.068 A 
ATOM     30  C3  ROC d   1       8.455   7.834  41.527  0.00  0.00    -0.049 A 
ATOM     31  H2  ROC d   1      10.518   8.471  41.690  0.00  0.00     0.085 H 
ATOM     32  H1  ROC d   1       8.616   6.823  41.883  0.00  0.00     0.087 H 
ENDBRANCH  14  17
ENDBRANCH  11  13
BRANCH  11  33
ATOM     33  CB  ROC d   1       2.766   7.854  42.347  0.00  0.00     0.036 C 
ATOM     34  H9  ROC d   1       1.802   7.327  42.402  0.00  0.00     0.051 H 
ATOM     35  H10 ROC d   1       2.588   8.936  42.256  0.00  0.00     0.051 H 
BRANCH  33  36
ATOM     36  CG  ROC d   1       3.582   7.572  43.637  0.00  0.00     0.217 C 
ATOM     37  OD1 ROC d   1       4.209   8.519  44.190  0.00  0.00    -0.274 OA
ATOM     38  ND2 ROC d   1       3.586   6.368  44.028  0.00  0.00    -0.370 N 
ATOM     39  H11 ROC d   1       4.091   6.112  44.852  0.00  0.00     0.159 HD
ATOM     40  H12 ROC d   1       3.084   5.673  43.513  0.00  0.00     0.159 HD
ENDBRANCH  33  36
ENDBRANCH  11  33
ENDBRANCH   8  11
ENDBRANCH   5   7
BRANCH   5  41
ATOM     41  CB1 ROC d   1       2.999   6.749  36.528  0.00  0.00    -0.020 C 
ATOM     42  H17 ROC d   1       2.556   7.054  35.568  0.00  0.00     0.043 H 
ATOM     43  H18 ROC d   1       3.252   5.679  36.491  0.00  0.00     0.043 H 
BRANCH  41  44
ATOM     44  CG1 ROC d   1       4.248   7.551  36.782  0.00  0.00    -0.056 C 
ATOM     45  CD1 ROC d   1       4.293   8.907  36.550  0.00  0.00    -0.077 C 
ATOM     46  CE1 ROC d   1       5.482   9.644  36.867  0.00  0.00    -0.082 C 
ATOM     47  H19 ROC d   1       3.433   9.416  36.129  0.00  0.00     0.084 H 
ATOM     48  CZ  ROC d   1       6.630   8.947  37.238  0.00  0.00    -0.083 C 
ATOM     49  H21 ROC d   1       5.487  10.727  36.819  0.00  0.00     0.083 H 
ATOM     50  CE2 ROC d   1       6.541   7.542  37.458  0.00  0.00    -0.082 C 
ATOM     51  H23 ROC d   1       7.575   9.465  37.357  0.00  0.00     0.083 H 
ATOM     52  CD2 ROC d   1       5.401   6.855  37.192  0.00  0.00    -0.077 C 
ATOM     53  H22 ROC d   1       7.402   7.010  37.846  0.00  0.00     0.083 H 
ATOM     54  H20 ROC d   1       5.378   5.776  37.295  0.00  0.00     0.084 H 
ENDBRANCH  41  44
ENDBRANCH   5  41
ENDBRANCH   1   5
BRANCH   1  55
ATOM     55  CM  ROC d   1      -0.048   6.037  36.516  0.00  0.00     0.110 C 
ATOM     56  H25 ROC d   1      -0.520   5.065  36.308  0.00  0.00     0.080 H 
ATOM     57  H26 ROC d   1       0.473   6.392  35.615  0.00  0.00     0.080 H 
BRANCH  55  58
ATOM     58  N11 ROC d   1      -1.089   7.012  36.890  0.00  0.00    -0.055 N 
ATOM     59  C21 ROC d   1      -1.697   7.794  35.813  0.00  0.00     0.180 C 
ATOM     60  C31 ROC d   1      -2.559   8.910  36.427  0.00  0.00    -0.026 C 
ATOM     61  H27 ROC d   1      -2.336   7.130  35.212  0.00  0.00     0.100 H 
ATOM     62  C3A ROC d   1      -3.700   8.310  37.338  0.00  0.00    -0.047 C 
ATOM     63  H28 ROC d   1      -3.017   9.497  35.617  0.00  0.00     0.037 H 
ATOM     64  H29 ROC d   1      -1.919   9.564  37.037  0.00  0.00     0.037 H 
ATOM     65  C41 ROC d   1      -4.652   9.358  37.933  0.00  0.00    -0.061 C 
ATOM     66  C7A ROC d   1      -3.150   7.357  38.348  0.00  0.00    -0.027 C 
ATOM     67  H30 ROC d   1      -4.325   7.703  36.666  0.00  0.00     0.040 H 
ATOM     68  C51 ROC d   1      -3.879  10.308  38.874  0.00  0.00    -0.065 C 
ATOM     69  H31 ROC d   1      -5.444   8.848  38.502  0.00  0.00     0.033 H 
ATOM     70  H32 ROC d   1      -5.104   9.942  37.118  0.00  0.00     0.033 H 
ATOM     71  C61 ROC d   1      -3.177   9.413  39.941  0.00  0.00    -0.065 C 
ATOM     72  H33 ROC d   1      -4.575  11.005  39.363  0.00  0.00     0.033 H 
ATOM     73  H34 ROC d   1      -3.129  10.877  38.305  0.00  0.00     0.033 H 
ATOM     74  C71 ROC d   1      -2.286   8.263  39.332  0.00  0.00    -0.060 C 
ATOM     75  H35 ROC d   1      -3.953   8.952  40.570  0.00  0.00     0.033 H 
ATOM     76  H36 ROC d   1      -2.535  10.055  40.562  0.00  0.00     0.033 H 
ATOM     77  H37 ROC d   1      -1.892   7.639  40.148  0.00  0.00     0.033 H 
ATOM     78  H38 ROC d   1      -1.449   8.709  38.774  0.00  0.00     0.033 H 
ATOM     79  C81 ROC d   1      -2.221   6.346  37.680  0.00  0.00     0.088 C 
ATOM     80  H39 ROC d   1      -3.958   6.838  38.883  0.00  0.00     0.043 H 
ATOM     81  H40 ROC d   1      -1.778   5.708  38.459  0.00  0.00     0.076 H 
ATOM     82  H41 ROC d   1      -2.813   5.726  36.991  0.00  0.00     0.076 H 
ATOM     83  H24 ROC d   1      -0.637   7.673  37.502  0.00  0.00     0.281 HD
BRANCH  59  84
ATOM     84  CC  ROC d   1      -0.676   8.406  34.925  0.00  0.00     0.249 C 
ATOM     85  O3  ROC d   1       0.261   9.123  35.369  0.00  0.00    -0.271 OA
ATOM     86  N3  ROC d   1      -0.935   8.144  33.629  0.00  0.00    -0.351 N 
ATOM     87  H42 ROC d   1      -1.720   7.572  33.391  0.00  0.00     0.163 HD
BRANCH  86  88
ATOM     88  CD  ROC d   1      -0.090   8.680  32.565  0.00  0.00     0.022 C 
BRANCH  88  89
ATOM     89  C11 ROC d   1      -0.680   8.195  31.156  0.00  0.00    -0.054 C 
ATOM     90  H43 ROC d   1      -0.055   8.590  30.341  0.00  0.00     0.030 H 
ATOM     91  H44 ROC d   1      -1.709   8.567  31.042  0.00  0.00     0.030 H 
ATOM     92  H45 ROC d   1      -0.681   7.096  31.118  0.00  0.00     0.030 H 
ENDBRANCH  88  89
BRANCH  88  93
ATOM     93  C22 ROC d   1       1.296   8.161  32.672  0.00  0.00    -0.054 C 
ATOM     94  H46 ROC d   1       1.908   8.580  31.860  0.00  0.00     0.030 H 
ATOM     95  H47 ROC d   1       1.284   7.064  32.593  0.00  0.00     0.030 H 
ATOM     96  H48 ROC d   1       1.723   8.454  33.642  0.00  0.00     0.030 H 
ENDBRANCH  88  93
BRANCH  88  97
ATOM     97  C32 ROC d   1      -0.036  10.217  32.638  0.00  0.00    -0.054 C 
ATOM     98  H49 ROC d   1       0.604  10.600  31.830  0.00  0.00     0.030 H 
ATOM     99  H50 ROC d   1       0.378  10.524  33.610  0.00  0.00     0.030 H 
ATOM    100  H51 ROC d   1      -1.051  10.625  32.526  0.00  0.00     0.030 H 
ENDBRANCH  88  97
ENDBRANCH  86  88
ENDBRANCH  59  84
ENDBRANCH  55  58
ENDBRANCH   1  55
TORSDOF 17
