REMARK  2 active torsions:
REMARK  status: ('A' for Active; 'I' for Inactive)
REMARK    1  A    between atoms: S_2  and  N_1 
REMARK    2  A    between atoms: C2_5  and  S_2 
ROOT
ATOM      1  S1  03T d   1      33.172   0.311  11.783  0.00  0.00    -0.076 SA
ATOM      2  C2  03T d   1      32.623  -0.876  12.922  0.00  0.00     0.121 A 
ATOM      3  C3  03T d   1      33.218  -2.126  12.533  0.00  0.00    -0.042 A 
ATOM      4  C4  03T d   1      34.837  -2.876  10.494  0.00  0.00    -0.072 A 
ATOM      5  C5  03T d   1      35.521  -2.445   9.354  0.00  0.00    -0.082 A 
ATOM      6  C6  03T d   1      35.481  -1.117   8.940  0.00  0.00    -0.082 A 
ATOM      7  C7  03T d   1      34.741  -0.233   9.690  0.00  0.00    -0.066 A 
ATOM      8  C8  03T d   1      34.046  -0.691  10.801  0.00  0.00     0.016 A 
ATOM      9  C9  03T d   1      34.056  -1.977  11.301  0.00  0.00    -0.017 A 
ATOM     10  H   03T d   1      33.077  -3.065  13.068  0.00  0.00     0.088 H 
ATOM     11  H   03T d   1      34.897  -3.926  10.780  0.00  0.00     0.084 H 
ATOM     12  H   03T d   1      36.099  -3.166   8.776  0.00  0.00     0.083 H 
ATOM     13  H   03T d   1      36.019  -0.788   8.051  0.00  0.00     0.083 H 
ATOM     14  H   03T d   1      34.700   0.821   9.414  0.00  0.00     0.085 H 
ENDROOT
BRANCH   2  15
ATOM     15  S   03T d   1      31.605  -0.498  14.263  0.00  0.00     0.263 S 
ATOM     16  O1  03T d   1      30.966   0.739  14.011  0.00  0.00    -0.200 OA
ATOM     17  O2  03T d   1      30.718  -1.583  14.526  0.00  0.00    -0.200 OA
BRANCH  15  18
ATOM     18  N   03T d   1      32.524  -0.214  15.573  0.00  0.00    -0.324 N 
ATOM     19  H   03T d   1      32.528   0.711  16.003  0.00  0.00     0.169 HD
ATOM     20  H   03T d   1      33.097  -0.961  15.966  0.00  0.00     0.169 HD
ENDBRANCH  15  18
ENDBRANCH   2  15
TORSDOF 2
