REMARK  9 active torsions:
REMARK  status: ('A' for Active; 'I' for Inactive)
REMARK    1  A    between atoms: C2_2  and  N2_3 
REMARK    2  A    between atoms: C4_5  and  N4_6 
REMARK    3  A    between atoms: C9_11  and  C6_8 
REMARK    4  A    between atoms: N10_12  and  C9_11 
REMARK    5  A    between atoms: CAP_27  and  CAO_26 
REMARK    6  A    between atoms: CAO_26  and  CAQ_28 
REMARK    7  A    between atoms: OAW_29  and  CAP_27 
REMARK    8  A    between atoms: CAQ_28  and  CAX_30 
REMARK    9  A    between atoms: OAW_29  and  CBA_31 
ROOT
ATOM      1  N10 684 d   1      21.305   6.155  13.982  0.00  0.00    -0.340 N 
ATOM      2  CAE 684 d   1      24.633   4.902  16.102  0.00  0.00    -0.082 A 
ATOM      3  CAF 684 d   1      24.375   4.449  14.808  0.00  0.00    -0.081 A 
ATOM      4  CAG 684 d   1      17.815   5.498  13.979  0.00  0.00    -0.049 A 
ATOM      5  CAH 684 d   1      23.775   5.803  16.727  0.00  0.00    -0.071 A 
ATOM      6  CAI 684 d   1      23.235   4.890  14.116  0.00  0.00    -0.056 A 
ATOM      7  CAJ 684 d   1      19.153   5.561  13.611  0.00  0.00    -0.054 A 
ATOM      8  CAK 684 d   1      21.874   7.109  16.781  0.00  0.00    -0.070 C 
ATOM      9  CAL 684 d   1      20.496   7.270  16.642  0.00  0.00    -0.070 C 
ATOM     10  CAN 684 d   1      18.334   6.583  16.069  0.00  0.00    -0.039 A 
ATOM     11  CBA 684 d   1      17.400   6.019  15.208  0.00  0.00     0.069 A 
ATOM     12  CBC 684 d   1      22.657   6.239  16.024  0.00  0.00    -0.009 A 
ATOM     13  CBD 684 d   1      19.683   6.639  15.696  0.00  0.00    -0.007 A 
ATOM     14  CBF 684 d   1      22.384   5.794  14.733  0.00  0.00     0.045 A 
ATOM     15  CBG 684 d   1      20.075   6.149  14.480  0.00  0.00     0.045 A 
ATOM     16  H8  684 d   1      25.513   4.548  16.628  0.00  0.00     0.083 H 
ATOM     17  H9  684 d   1      25.058   3.753  14.334  0.00  0.00     0.083 H 
ATOM     18  H10 684 d   1      17.091   5.044  13.312  0.00  0.00     0.087 H 
ATOM     19  H11 684 d   1      23.973   6.155  17.733  0.00  0.00     0.084 H 
ATOM     20  H12 684 d   1      23.024   4.529  13.116  0.00  0.00     0.087 H 
ATOM     21  H13 684 d   1      19.478   5.158  12.659  0.00  0.00     0.087 H 
ATOM     22  H14 684 d   1      22.377   7.708  17.538  0.00  0.00     0.084 H 
ATOM     23  H15 684 d   1      20.007   7.952  17.336  0.00  0.00     0.084 H 
ATOM     24  H16 684 d   1      18.019   6.979  17.028  0.00  0.00     0.089 H 
ENDROOT
BRANCH   1  25
ATOM     25  C9  684 d   1      21.441   6.414  12.549  0.00  0.00     0.042 C 
ATOM     26  H6  684 d   1      22.516   6.437  12.316  0.00  0.00     0.074 H 
ATOM     27  H7  684 d   1      20.967   5.578  12.013  0.00  0.00     0.074 H 
BRANCH  25  28
ATOM     28  C6  684 d   1      20.818   7.724  12.016  0.00  0.00     0.071 A 
ATOM     29  N5  684 d   1      20.416   7.737  10.734  0.00  0.00    -0.242 NA
ATOM     30  C4A 684 d   1      19.862   8.828  10.208  0.00  0.00     0.151 A 
ATOM     31  C4  684 d   1      19.434   8.845   8.856  0.00  0.00     0.173 A 
ATOM     32  C8A 684 d   1      19.775   9.970  10.973  0.00  0.00     0.201 A 
ATOM     33  N3  684 d   1      18.941   9.997   8.376  0.00  0.00    -0.043 NA
ATOM     34  C2  684 d   1      18.835  11.106   9.162  0.00  0.00     0.724 A 
ATOM     35  N1  684 d   1      19.260  11.093  10.442  0.00  0.00    -0.041 NA
ATOM     36  N8  684 d   1      20.196   9.983  12.258  0.00  0.00    -0.237 NA
ATOM     37  C7  684 d   1      20.717   8.892  12.788  0.00  0.00     0.030 A 
ATOM     38  H5  684 d   1      21.065   8.898  13.815  0.00  0.00     0.118 H 
BRANCH  31  39
ATOM     39  N4  684 d   1      19.537   7.749   8.071  0.00  0.00    -0.381 N 
ATOM     40  H3  684 d   1      19.918   6.873   8.457  0.00  0.00     0.157 HD
ATOM     41  H4  684 d   1      19.235   7.790   7.087  0.00  0.00     0.157 HD
ENDBRANCH  31  39
BRANCH  34  42
ATOM     42  N2  684 d   1      18.319  12.249   8.712  0.00  0.00    -0.231 N 
ATOM     43  H1  684 d   1      18.255  13.066   9.336  0.00  0.00     0.174 HD
ATOM     44  H2  684 d   1      17.984  12.316   7.740  0.00  0.00     0.174 HD
ENDBRANCH  34  42
ENDBRANCH  25  28
ENDBRANCH   1  25
BRANCH  11  45
ATOM     45  OAW 684 d   1      16.076   5.933  15.561  0.00  0.00    -0.351 OA
BRANCH  45  46
ATOM     46  CAP 684 d   1      15.861   6.041  17.008  0.00  0.00     0.026 C 
ATOM     47  H19 684 d   1      15.101   5.305  17.308  0.00  0.00     0.075 H 
ATOM     48  H20 684 d   1      16.808   5.821  17.523  0.00  0.00     0.075 H 
BRANCH  46  49
ATOM     49  CAO 684 d   1      15.388   7.432  17.426  0.00  0.00    -0.036 C 
ATOM     50  H17 684 d   1      14.293   7.422  17.534  0.00  0.00     0.036 H 
ATOM     51  H18 684 d   1      15.673   8.157  16.650  0.00  0.00     0.036 H 
BRANCH  49  52
ATOM     52  CAQ 684 d   1      16.020   7.851  18.760  0.00  0.00     0.018 C 
ATOM     53  H21 684 d   1      16.880   8.510  18.570  0.00  0.00     0.049 H 
ATOM     54  H22 684 d   1      16.356   6.957  19.306  0.00  0.00     0.049 H 
BRANCH  52  55
ATOM     55  CAX 684 d   1      14.977   8.596  19.589  0.00  0.00     0.172 C 
ATOM     56  OAC 684 d   1      13.855   8.060  19.661  0.00  0.00    -0.648 OA
ATOM     57  OAD 684 d   1      15.287   9.721  20.048  0.00  0.00    -0.648 OA
ENDBRANCH  52  55
ENDBRANCH  49  52
ENDBRANCH  46  49
ENDBRANCH  45  46
ENDBRANCH  11  45
TORSDOF 9
