REMARK  14 active torsions:
REMARK  status: ('A' for Active; 'I' for Inactive)
REMARK    1  A    between atoms: C6_6  and  C7_7 
REMARK    2  A    between atoms: C7_7  and  C8_8 
REMARK    3  A    between atoms: C8_8  and  N9_9 
REMARK    4  A    between atoms: N9_9  and  C10_10 
REMARK    5  A    between atoms: C10_10  and  C11_11 
REMARK    6  A    between atoms: C11_11  and  C12_12 
REMARK       I    between atoms: C12_12  and  N14_14 
REMARK    7  A    between atoms: N14_14  and  C15_15 
REMARK    8  A    between atoms: N14_14  and  C32_32 
REMARK    9  A    between atoms: C15_15  and  C16_16 
REMARK   10  A    between atoms: C16_16  and  N17_17 
REMARK   11  A    between atoms: N17_17  and  C18_18 
REMARK   12  A    between atoms: C18_18  and  C19_19 
REMARK   13  A    between atoms: C19_19  and  C20_20 
REMARK   14  A    between atoms: C23_23  and  O31_31 
ROOT
ATOM      1  C12 NH5 d   1     -17.236 -58.645   0.049  0.00  0.00     0.221 C 
ATOM      2  O13 NH5 d   1     -18.447 -58.577   0.166  0.00  0.00    -0.273 OA
ATOM      3  N14 NH5 d   1     -16.501 -57.528  -0.191  0.00  0.00    -0.346 N 
ENDROOT
BRANCH   3   4
ATOM      4  C15 NH5 d   1     -17.090 -56.197  -0.395  0.00  0.00     0.021 C 
ATOM      5  H   NH5 d   1     -17.537 -56.192  -1.389  0.00  0.00     0.067 H 
ATOM      6  H   NH5 d   1     -16.291 -55.468  -0.261  0.00  0.00     0.067 H 
BRANCH   4   7
ATOM      7  C16 NH5 d   1     -18.202 -55.841   0.605  0.00  0.00     0.096 C 
ATOM      8  H   NH5 d   1     -18.723 -56.762   0.868  0.00  0.00     0.078 H 
ATOM      9  H   NH5 d   1     -18.856 -55.108   0.132  0.00  0.00     0.078 H 
BRANCH   7  10
ATOM     10  N17 NH5 d   1     -17.683 -55.249   1.840  0.00  0.00    -0.073 N 
ATOM     11  H   NH5 d   1     -16.905 -54.630   1.613  0.00  0.00     0.277 HD
ATOM     12  H   NH5 d   1     -17.369 -55.994   2.462  0.00  0.00     0.277 HD
BRANCH  10  13
ATOM     13  C18 NH5 d   1     -18.742 -54.469   2.515  0.00  0.00     0.085 C 
ATOM     14  H   NH5 d   1     -19.396 -54.092   1.728  0.00  0.00     0.076 H 
ATOM     15  H   NH5 d   1     -18.234 -53.712   3.112  0.00  0.00     0.076 H 
BRANCH  13  16
ATOM     16  C19 NH5 d   1     -19.640 -55.259   3.486  0.00  0.00    -0.016 C 
ATOM     17  H   NH5 d   1     -19.256 -56.273   3.602  0.00  0.00     0.042 H 
ATOM     18  H   NH5 d   1     -20.655 -55.310   3.091  0.00  0.00     0.042 H 
BRANCH  16  19
ATOM     19  C20 NH5 d   1     -19.646 -54.556   4.828  0.00  0.00    -0.021 A 
ATOM     20  C21 NH5 d   1     -20.449 -53.420   5.058  0.00  0.00    -0.071 A 
ATOM     21  C22 NH5 d   1     -20.463 -52.761   6.299  0.00  0.00    -0.048 A 
ATOM     22  H   NH5 d   1     -21.076 -53.042   4.251  0.00  0.00     0.084 H 
ATOM     23  C23 NH5 d   1     -19.625 -53.228   7.325  0.00  0.00     0.095 A 
ATOM     24  H   NH5 d   1     -21.113 -51.902   6.463  0.00  0.00     0.087 H 
ATOM     25  C24 NH5 d   1     -18.849 -54.371   7.105  0.00  0.00     0.102 A 
ATOM     26  C25 NH5 d   1     -18.852 -54.989   5.871  0.00  0.00     0.105 A 
ATOM     27  N30 NH5 d   1     -17.899 -54.781   8.042  0.00  0.00    -0.321 N 
ATOM     28  O26 NH5 d   1     -18.014 -56.028   5.639  0.00  0.00    -0.339 OA
ATOM     29  C27 NH5 d   1     -16.721 -55.974   6.288  0.00  0.00     0.100 C 
ATOM     30  C28 NH5 d   1     -16.827 -55.525   7.734  0.00  0.00     0.246 C 
ATOM     31  H   NH5 d   1     -16.102 -55.254   5.753  0.00  0.00     0.089 H 
ATOM     32  H   NH5 d   1     -16.291 -56.975   6.273  0.00  0.00     0.089 H 
ATOM     33  O29 NH5 d   1     -15.995 -55.812   8.563  0.00  0.00    -0.271 OA
ATOM     34  H   NH5 d   1     -18.027 -54.499   9.014  0.00  0.00     0.169 HD
BRANCH  23  35
ATOM     35  O31 NH5 d   1     -19.492 -52.663   8.548  0.00  0.00    -0.358 OA
ATOM     36  H   NH5 d   1     -19.745 -53.298   9.222  0.00  0.00     0.217 HD
ENDBRANCH  23  35
ENDBRANCH  16  19
ENDBRANCH  13  16
ENDBRANCH  10  13
ENDBRANCH   7  10
ENDBRANCH   4   7
ENDBRANCH   3   4
BRANCH   3  37
ATOM     37  C32 NH5 d   1     -15.017 -57.624  -0.371  0.00  0.00     0.014 C 
ATOM     38  C33 NH5 d   1     -14.645 -57.746  -1.868  0.00  0.00    -0.046 C 
ATOM     39  C34 NH5 d   1     -13.129 -57.876  -2.071  0.00  0.00    -0.063 C 
ATOM     40  H   NH5 d   1     -14.983 -56.844  -2.379  0.00  0.00     0.036 H 
ATOM     41  H   NH5 d   1     -15.122 -58.641  -2.267  0.00  0.00     0.036 H 
ATOM     42  C35 NH5 d   1     -12.369 -56.712  -1.406  0.00  0.00    -0.065 C 
ATOM     43  H   NH5 d   1     -12.921 -57.858  -3.141  0.00  0.00     0.033 H 
ATOM     44  H   NH5 d   1     -12.798 -58.809  -1.616  0.00  0.00     0.033 H 
ATOM     45  C36 NH5 d   1     -12.717 -56.558   0.086  0.00  0.00    -0.063 C 
ATOM     46  H   NH5 d   1     -12.652 -55.791  -1.915  0.00  0.00     0.033 H 
ATOM     47  H   NH5 d   1     -11.302 -56.919  -1.483  0.00  0.00     0.033 H 
ATOM     48  C37 NH5 d   1     -14.239 -56.484   0.314  0.00  0.00    -0.046 C 
ATOM     49  H   NH5 d   1     -12.271 -55.632   0.448  0.00  0.00     0.033 H 
ATOM     50  H   NH5 d   1     -12.333 -57.428   0.619  0.00  0.00     0.033 H 
ATOM     51  H   NH5 d   1     -14.415 -56.565   1.387  0.00  0.00     0.036 H 
ATOM     52  H   NH5 d   1     -14.590 -55.544  -0.113  0.00  0.00     0.036 H 
ATOM     53  H   NH5 d   1     -14.708 -58.538   0.137  0.00  0.00     0.072 H 
ENDBRANCH   3  37
BRANCH   1  54
ATOM     54  C11 NH5 d   1     -16.517 -59.977   0.214  0.00  0.00     0.032 C 
ATOM     55  H   NH5 d   1     -15.894 -60.142  -0.665  0.00  0.00     0.049 H 
ATOM     56  H   NH5 d   1     -15.924 -59.936   1.127  0.00  0.00     0.049 H 
BRANCH  54  57
ATOM     57  C10 NH5 d   1     -17.506 -61.146   0.332  0.00  0.00     0.089 C 
ATOM     58  H   NH5 d   1     -17.596 -61.459   1.372  0.00  0.00     0.076 H 
ATOM     59  H   NH5 d   1     -18.493 -60.840  -0.015  0.00  0.00     0.076 H 
BRANCH  57  60
ATOM     60  N9  NH5 d   1     -17.001 -62.252  -0.487  0.00  0.00    -0.074 N 
ATOM     61  H   NH5 d   1     -16.382 -61.872  -1.203  0.00  0.00     0.277 HD
ATOM     62  H   NH5 d   1     -16.504 -62.906   0.118  0.00  0.00     0.277 HD
BRANCH  60  63
ATOM     63  C8  NH5 d   1     -18.106 -62.968  -1.150  0.00  0.00     0.085 C 
ATOM     64  H   NH5 d   1     -19.034 -62.459  -0.890  0.00  0.00     0.076 H 
ATOM     65  H   NH5 d   1     -17.905 -62.969  -2.221  0.00  0.00     0.076 H 
BRANCH  63  66
ATOM     66  C7  NH5 d   1     -18.233 -64.433  -0.697  0.00  0.00    -0.018 C 
ATOM     67  H   NH5 d   1     -19.060 -64.481   0.012  0.00  0.00     0.042 H 
ATOM     68  H   NH5 d   1     -18.380 -65.036  -1.593  0.00  0.00     0.042 H 
BRANCH  66  69
ATOM     69  C6  NH5 d   1     -17.006 -64.969   0.008  0.00  0.00    -0.055 A 
ATOM     70  C1  NH5 d   1     -16.948 -64.964   1.401  0.00  0.00    -0.075 A 
ATOM     71  C2  NH5 d   1     -15.839 -65.474   2.066  0.00  0.00    -0.060 A 
ATOM     72  H   NH5 d   1     -17.780 -64.556   1.974  0.00  0.00     0.084 H 
ATOM     73  C3  NH5 d   1     -14.782 -66.000   1.328  0.00  0.00     0.055 A 
ATOM     74  H   NH5 d   1     -15.797 -65.462   3.155  0.00  0.00     0.086 H 
ATOM     75  C4  NH5 d   1     -14.829 -66.007  -0.071  0.00  0.00     0.056 A 
ATOM     76 CL39 NH5 d   1     -13.372 -66.603   2.141  0.00  0.00    -0.083 Cl
ATOM     77  C5  NH5 d   1     -15.944 -65.490  -0.726  0.00  0.00    -0.054 A 
ATOM     78 CL38 NH5 d   1     -13.524 -66.666  -1.025  0.00  0.00    -0.083 Cl
ATOM     79  H   NH5 d   1     -15.985 -65.493  -1.815  0.00  0.00     0.086 H 
ENDBRANCH  66  69
ENDBRANCH  63  66
ENDBRANCH  60  63
ENDBRANCH  57  60
ENDBRANCH  54  57
ENDBRANCH   1  54
TORSDOF 14
