REMARK WARNING: 32 MAX_TORS EXCEEDED!!!
REMARK  33 active torsions:
REMARK  status: ('A' for Active; 'I' for Inactive)
REMARK    1  A    between atoms: N_1  and  CA_2 
REMARK    2  A    between atoms: CA_2  and  C_3 
REMARK    3  A    between atoms: CA_2  and  CB_5 
REMARK       I    between atoms: C_3  and  N_9 
REMARK    4  A    between atoms: CB_5  and  CG_6 
REMARK    5  A    between atoms: CG_6  and  CD1_7 
REMARK    6  A    between atoms: CG_6  and  CD2_8 
REMARK    7  A    between atoms: N_9  and  CA_10 
REMARK    8  A    between atoms: CA_10  and  C_11 
REMARK    9  A    between atoms: CA_10  and  CB_13 
REMARK       I    between atoms: C_11  and  N_18 
REMARK   10  A    between atoms: CB_13  and  CG_14 
REMARK   11  A    between atoms: CG_14  and  CD_15 
REMARK   12  A    between atoms: CD_15  and  CE_16 
REMARK   13  A    between atoms: CE_16  and  NZ_17 
REMARK   14  A    between atoms: N_18  and  CA_19 
REMARK   15  A    between atoms: CA_19  and  C_20 
REMARK   16  A    between atoms: CA_19  and  CB_22 
REMARK       I    between atoms: C_20  and  N_24 
REMARK   17  A    between atoms: CB_22  and  OG_23 
REMARK   18  A    between atoms: N_24  and  CA_25 
REMARK   19  A    between atoms: CA_25  and  C_26 
REMARK   20  A    between atoms: CA_25  and  CB_28 
REMARK       I    between atoms: C_26  and  N_33 
REMARK   21  A    between atoms: CB_28  and  CG_29 
REMARK   22  A    between atoms: CG_29  and  CD_30 
REMARK   23  A    between atoms: CD_30  and  CE_31 
REMARK   24  A    between atoms: CE_31  and  NZ_32 
REMARK   25  A    between atoms: N_33  and  CA_34 
REMARK   26  A    between atoms: CA_34  and  C_35 
REMARK   27  A    between atoms: CA_34  and  CB_37 
REMARK       I    between atoms: C_35  and  N_42 
REMARK   28  A    between atoms: CB_37  and  CG_38 
REMARK   29  A    between atoms: CG_38  and  CD_39 
REMARK   30  A    between atoms: CD_39  and  CE_40 
REMARK   31  A    between atoms: CE_40  and  NZ_41 
REMARK   32  A    between atoms: N_42  and  CA_43 
REMARK   33  A    between atoms: CA_43  and  C_44 
ROOT
ATOM      1  N   LYS d   1      23.552  51.344   1.953  0.00  0.00    -0.346 N 
ATOM      2  H   LYS d   1      22.926  50.578   1.705  0.00  0.00     0.163 HD
ATOM      3  C   SER d   1      22.944  52.504   2.311  0.00  0.00     0.243 C 
ATOM      4  O   SER d   1      23.554  53.531   2.638  0.00  0.00    -0.271 OA
ENDROOT
BRANCH   3   5
ATOM      5  CA  SER d   1      21.395  52.477   2.275  0.00  0.00     0.109 C 
ATOM      6  H   SER d   1      21.091  51.595   2.839  0.00  0.00     0.090 H 
BRANCH   5   7
ATOM      7  N   SER d   1      20.765  53.622   2.961  0.00  0.00    -0.344 N 
ATOM      8  C   LYS d   1      19.548  53.633   3.536  0.00  0.00     0.241 C 
ATOM      9  O   LYS d   1      18.778  52.678   3.511  0.00  0.00    -0.271 OA
ATOM     10  H   SER d   1      21.303  54.487   3.003  0.00  0.00     0.163 HD
BRANCH   8  11
ATOM     11  CA  LYS d   1      19.149  54.933   4.183  0.00  0.00     0.089 C 
ATOM     12  H   LYS d   1      20.046  55.547   4.269  0.00  0.00     0.087 H 
BRANCH  11  13
ATOM     13  N   LYS d   1      18.184  55.659   3.357  0.00  0.00    -0.346 N 
ATOM     14  C   LEU d   1      18.323  56.099   2.083  0.00  0.00     0.249 C 
ATOM     15  O   LEU d   1      19.336  55.933   1.404  0.00  0.00    -0.271 OA
ATOM     16  H   LYS d   1      17.287  55.861   3.799  0.00  0.00     0.163 HD
BRANCH  14  17
ATOM     17  CA  LEU d   1      17.141  56.897   1.520  0.00  0.00     0.176 C 
ATOM     18  H   LEU d   1      16.771  57.494   2.354  0.00  0.00     0.099 H 
BRANCH  17  19
ATOM     19  N   LEU d   1      17.520  57.873   0.498  0.00  0.00    -0.066 N 
ATOM     20  H   LEU d   1      18.292  58.443   0.844  0.00  0.00     0.275 HD
ATOM     21  H   LEU d   1      17.810  57.382  -0.348  0.00  0.00     0.275 HD
ATOM     22  H   LEU d   1      16.721  58.471   0.288  0.00  0.00     0.275 HD
ENDBRANCH  17  19
BRANCH  17  23
ATOM     23  CB  LEU d   1      15.964  55.980   1.074  0.00  0.00    -0.028 C 
ATOM     24  H   LEU d   1      15.765  55.329   1.925  0.00  0.00     0.037 H 
ATOM     25  H   LEU d   1      16.294  55.517   0.144  0.00  0.00     0.037 H 
BRANCH  23  26
ATOM     26  CG  LEU d   1      14.571  56.669   0.733  0.00  0.00    -0.059 C 
ATOM     27  H   LEU d   1      14.686  57.036  -0.287  0.00  0.00     0.038 H 
BRANCH  26  28
ATOM     28  CD1 LEU d   1      13.387  55.655   0.746  0.00  0.00    -0.073 C 
ATOM     29  H   LEU d   1      13.204  55.325   1.769  0.00  0.00     0.028 H 
ATOM     30  H   LEU d   1      12.492  56.138   0.353  0.00  0.00     0.028 H 
ATOM     31  H   LEU d   1      13.640  54.795   0.125  0.00  0.00     0.028 H 
ENDBRANCH  26  28
BRANCH  26  32
ATOM     32  CD2 LEU d   1      14.248  57.933   1.621  0.00  0.00    -0.073 C 
ATOM     33  H   LEU d   1      13.359  58.430   1.233  0.00  0.00     0.028 H 
ATOM     34  H   LEU d   1      14.070  57.617   2.649  0.00  0.00     0.028 H 
ATOM     35  H   LEU d   1      15.093  58.621   1.592  0.00  0.00     0.028 H 
ENDBRANCH  26  32
ENDBRANCH  23  26
ENDBRANCH  17  23
ENDBRANCH  14  17
ENDBRANCH  11  13
BRANCH  11  36
ATOM     36  CB  LYS d   1      18.595  54.704   5.606  0.00  0.00    -0.038 C 
ATOM     37  H   LYS d   1      19.383  54.211   6.175  0.00  0.00     0.036 H 
ATOM     38  H   LYS d   1      17.677  54.127   5.497  0.00  0.00     0.036 H 
BRANCH  36  39
ATOM     39  CG  LYS d   1      18.225  55.992   6.378  0.00  0.00    -0.061 C 
ATOM     40  H   LYS d   1      17.302  56.383   5.950  0.00  0.00     0.033 H 
ATOM     41  H   LYS d   1      19.061  56.685   6.289  0.00  0.00     0.033 H 
BRANCH  39  42
ATOM     42  CD  LYS d   1      17.981  55.744   7.865  0.00  0.00    -0.043 C 
ATOM     43  H   LYS d   1      18.967  55.663   8.323  0.00  0.00     0.035 H 
ATOM     44  H   LYS d   1      17.344  54.861   7.923  0.00  0.00     0.035 H 
BRANCH  42  45
ATOM     45  CE  LYS d   1      17.251  56.842   8.625  0.00  0.00     0.080 C 
ATOM     46  H   LYS d   1      16.424  57.226   8.028  0.00  0.00     0.075 H 
ATOM     47  H   LYS d   1      17.930  57.668   8.835  0.00  0.00     0.075 H 
BRANCH  45  48
ATOM     48  NZ  LYS d   1      16.737  56.261   9.902  0.00  0.00    -0.079 N 
ATOM     49  H   LYS d   1      16.243  56.982  10.428  0.00  0.00     0.274 HD
ATOM     50  H   LYS d   1      16.098  55.494   9.692  0.00  0.00     0.274 HD
ATOM     51  H   LYS d   1      17.520  55.912  10.455  0.00  0.00     0.274 HD
ENDBRANCH  45  48
ENDBRANCH  42  45
ENDBRANCH  39  42
ENDBRANCH  36  39
ENDBRANCH  11  36
ENDBRANCH   8  11
ENDBRANCH   5   7
BRANCH   5  52
ATOM     52  CB  SER d   1      20.891  52.344   0.836  0.00  0.00     0.044 C 
ATOM     53  H   SER d   1      19.802  52.372   0.856  0.00  0.00     0.077 H 
ATOM     54  H   SER d   1      21.274  51.408   0.429  0.00  0.00     0.077 H 
BRANCH  52  55
ATOM     55  OG  SER d   1      21.343  53.403   0.006  0.00  0.00    -0.398 OA
ATOM     56  H   SER d   1      22.303  53.405  -0.014  0.00  0.00     0.209 HD
ENDBRANCH  52  55
ENDBRANCH   5  52
ENDBRANCH   3   5
BRANCH   1  57
ATOM     57  CA  LYS d   1      24.983  51.040   1.874  0.00  0.00     0.089 C 
ATOM     58  H   LYS d   1      25.435  51.451   2.777  0.00  0.00     0.087 H 
BRANCH  57  59
ATOM     59  C   LYS d   1      25.643  51.690   0.653  0.00  0.00     0.241 C 
ATOM     60  O   LYS d   1      26.802  52.062   0.748  0.00  0.00    -0.271 OA
ATOM     61  N   LYS d   1      24.943  51.776  -0.507  0.00  0.00    -0.346 N 
ATOM     62  H   LYS d   1      24.010  51.365  -0.541  0.00  0.00     0.163 HD
BRANCH  61  63
ATOM     63  CA  LYS d   1      25.464  52.433  -1.719  0.00  0.00     0.089 C 
ATOM     64  H   LYS d   1      26.344  52.998  -1.412  0.00  0.00     0.087 H 
BRANCH  63  65
ATOM     65  C   LYS d   1      24.471  53.477  -2.306  0.00  0.00     0.240 C 
ATOM     66  O   LYS d   1      23.257  53.225  -2.326  0.00  0.00    -0.271 OA
ATOM     67  N   GLY d   1      25.006  54.617  -2.769  0.00  0.00    -0.349 N 
ATOM     68  H   GLY d   1      26.018  54.725  -2.704  0.00  0.00     0.163 HD
BRANCH  67  69
ATOM     69  CA  GLY d   1      24.242  55.716  -3.361  0.00  0.00     0.075 C 
ATOM     70  H   GLY d   1      24.471  56.614  -2.788  0.00  0.00     0.080 H 
ATOM     71  H   GLY d   1      23.191  55.429  -3.335  0.00  0.00     0.080 H 
BRANCH  69  72
ATOM     72  C   GLY d   1      24.594  56.004  -4.807  0.00  0.00     0.191 C 
ATOM     73  O   GLY d   1      23.970  55.470  -5.726  0.00  0.00    -0.647 OA
ATOM     74  O   GLY d   1      25.535  56.798  -5.072  0.00  0.00    -0.647 OA
ENDBRANCH  69  72
ENDBRANCH  67  69
ENDBRANCH  63  65
BRANCH  63  75
ATOM     75  CB  LYS d   1      25.946  51.413  -2.771  0.00  0.00    -0.038 C 
ATOM     76  H   LYS d   1      26.556  50.685  -2.236  0.00  0.00     0.036 H 
ATOM     77  H   LYS d   1      26.459  51.987  -3.543  0.00  0.00     0.036 H 
BRANCH  75  78
ATOM     78  CG  LYS d   1      24.846  50.616  -3.483  0.00  0.00    -0.061 C 
ATOM     79  H   LYS d   1      24.099  51.309  -3.871  0.00  0.00     0.033 H 
ATOM     80  H   LYS d   1      24.390  49.927  -2.772  0.00  0.00     0.033 H 
BRANCH  78  81
ATOM     81  CD  LYS d   1      25.436  49.817  -4.644  0.00  0.00    -0.043 C 
ATOM     82  H   LYS d   1      25.308  48.760  -4.410  0.00  0.00     0.035 H 
ATOM     83  H   LYS d   1      26.478  50.120  -4.751  0.00  0.00     0.035 H 
BRANCH  81  84
ATOM     84  CE  LYS d   1      24.751  50.073  -5.972  0.00  0.00     0.080 C 
ATOM     85  H   LYS d   1      24.937  51.109  -6.255  0.00  0.00     0.075 H 
ATOM     86  H   LYS d   1      23.688  49.864  -5.851  0.00  0.00     0.075 H 
BRANCH  84  87
ATOM     87  NZ  LYS d   1      25.279  49.190  -7.061  0.00  0.00    -0.079 N 
ATOM     88  H   LYS d   1      24.790  49.397  -7.932  0.00  0.00     0.274 HD
ATOM     89  H   LYS d   1      26.277  49.360  -7.181  0.00  0.00     0.274 HD
ATOM     90  H   LYS d   1      25.127  48.213  -6.809  0.00  0.00     0.274 HD
ENDBRANCH  84  87
ENDBRANCH  81  84
ENDBRANCH  78  81
ENDBRANCH  75  78
ENDBRANCH  63  75
ENDBRANCH  61  63
ENDBRANCH  57  59
BRANCH  57  91
ATOM     91  CB  LYS d   1      25.222  49.518   1.815  0.00  0.00    -0.038 C 
ATOM     92  H   LYS d   1      26.253  49.370   2.137  0.00  0.00     0.036 H 
ATOM     93  H   LYS d   1      24.965  49.220   0.799  0.00  0.00     0.036 H 
BRANCH  91  94
ATOM     94  CG  LYS d   1      24.371  48.632   2.733  0.00  0.00    -0.061 C 
ATOM     95  H   LYS d   1      24.310  47.639   2.287  0.00  0.00     0.033 H 
ATOM     96  H   LYS d   1      23.390  49.095   2.838  0.00  0.00     0.033 H 
BRANCH  94  97
ATOM     97  CD  LYS d   1      24.984  48.492   4.126  0.00  0.00    -0.043 C 
ATOM     98  H   LYS d   1      25.841  49.159   4.216  0.00  0.00     0.035 H 
ATOM     99  H   LYS d   1      25.310  47.463   4.279  0.00  0.00     0.035 H 
BRANCH  97 100
ATOM    100  CE  LYS d   1      23.958  48.852   5.159  0.00  0.00     0.080 C 
ATOM    101  H   LYS d   1      23.516  49.808   4.879  0.00  0.00     0.075 H 
ATOM    102  H   LYS d   1      24.454  48.896   6.128  0.00  0.00     0.075 H 
BRANCH 100 103
ATOM    103  NZ  LYS d   1      22.867  47.845   5.243  0.00  0.00    -0.079 N 
ATOM    104  H   LYS d   1      22.196  48.131   5.956  0.00  0.00     0.274 HD
ATOM    105  H   LYS d   1      22.398  47.778   4.340  0.00  0.00     0.274 HD
ATOM    106  H   LYS d   1      23.262  46.938   5.491  0.00  0.00     0.274 HD
ENDBRANCH 100 103
ENDBRANCH  97 100
ENDBRANCH  94  97
ENDBRANCH  91  94
ENDBRANCH  57  91
ENDBRANCH   1  57
TORSDOF 33
