REMARK  7 active torsions:
REMARK  status: ('A' for Active; 'I' for Inactive)
REMARK    1  A    between atoms: C2_4  and  C1_1 
REMARK    2  A    between atoms: N1_2  and  C2_4 
REMARK    3  A    between atoms: N3_7  and  C9_17 
REMARK    4  A    between atoms: C6_12  and  C4_8 
REMARK    5  A    between atoms: C8_16  and  N5_11 
REMARK    6  A    between atoms: C10_18  and  C6_12 
REMARK    7  A    between atoms: C16_24  and  C14_22 
ROOT
ATOM      1  O1  591 d   1      14.194  -6.049  18.922  0.00  0.00    -0.269 OA
ATOM      2  N3  591 d   1      15.185  -5.063  17.095  0.00  0.00    -0.153 N 
ATOM      3  N4  591 d   1      14.854  -6.586  15.485  0.00  0.00    -0.199 N 
ATOM      4  C6  591 d   1      14.121  -7.065  16.686  0.00  0.00     0.186 C 
ATOM      5  C7  591 d   1      14.490  -6.028  17.741  0.00  0.00     0.276 C 
ATOM      6  C8  591 d   1      15.295  -5.420  15.796  0.00  0.00     0.677 C 
ATOM      7  H7  591 d   1      14.982  -7.084  14.592  0.00  0.00     0.179 HD
ENDROOT
BRANCH   4   8
ATOM      8  C4  591 d   1      14.644  -8.422  17.005  0.00  0.00     0.021 A 
ATOM      9  C3  591 d   1      15.117  -8.881  18.209  0.00  0.00     0.009 A 
ATOM     10  N1  591 d   1      15.494 -10.165  17.993  0.00  0.00    -0.281 N 
ATOM     11  H6  591 d   1      15.177  -8.328  19.145  0.00  0.00     0.115 H 
ATOM     12  N2  591 d   1      15.308 -10.577  16.734  0.00  0.00    -0.185 NA
ATOM     13  C5  591 d   1      14.791  -9.518  16.132  0.00  0.00     0.032 A 
ATOM     14  H8  591 d   1      14.511  -9.496  15.080  0.00  0.00     0.118 H 
BRANCH  10  15
ATOM     15  C2  591 d   1      16.059 -11.077  18.961  0.00  0.00     0.013 C 
ATOM     16  H4  591 d   1      15.861 -10.710  19.979  0.00  0.00     0.066 H 
ATOM     17  H5  591 d   1      15.613 -12.075  18.838  0.00  0.00     0.066 H 
BRANCH  15  18
ATOM     18  C1  591 d   1      17.553 -11.150  18.723  0.00  0.00    -0.059 C 
ATOM     19  H1  591 d   1      18.007 -11.840  19.450  0.00  0.00     0.029 H 
ATOM     20  H2  591 d   1      17.993 -10.149  18.844  0.00  0.00     0.029 H 
ATOM     21  H3  591 d   1      17.744 -11.514  17.703  0.00  0.00     0.029 H 
ENDBRANCH  15  18
ENDBRANCH  10  15
ENDBRANCH   4   8
BRANCH   4  22
ATOM     22  C10 591 d   1      12.590  -7.121  16.584  0.00  0.00    -0.015 A 
ATOM     23  C11 591 d   1      11.828  -8.248  16.957  0.00  0.00    -0.074 A 
ATOM     24  C12 591 d   1      10.442  -8.238  16.844  0.00  0.00    -0.082 A 
ATOM     25  H14 591 d   1      12.328  -9.132  17.336  0.00  0.00     0.084 H 
ATOM     26  C13 591 d   1       9.785  -7.107  16.367  0.00  0.00    -0.072 A 
ATOM     27  H15 591 d   1       9.871  -9.114  17.128  0.00  0.00     0.083 H 
ATOM     28  C14 591 d   1      10.505  -5.960  15.985  0.00  0.00    -0.022 A 
ATOM     29  H16 591 d   1       8.704  -7.110  16.289  0.00  0.00     0.084 H 
ATOM     30  C15 591 d   1      11.898  -5.994  16.109  0.00  0.00    -0.063 A 
ATOM     31  H17 591 d   1      12.467  -5.115  15.827  0.00  0.00     0.085 H 
BRANCH  28  32
ATOM     32  C16 591 d   1       9.873  -4.724  15.498  0.00  0.00     0.009 A 
ATOM     33  C17 591 d   1      10.230  -4.078  14.319  0.00  0.00     0.015 A 
ATOM     34  N6  591 d   1       9.654  -2.933  13.861  0.00  0.00    -0.253 NA
ATOM     35  H18 591 d   1      11.022  -4.517  13.723  0.00  0.00     0.116 H 
ATOM     36  C18 591 d   1       8.678  -2.415  14.626  0.00  0.00     0.086 A 
ATOM     37  N7  591 d   1       8.243  -2.941  15.783  0.00  0.00    -0.253 NA
ATOM     38  H19 591 d   1       8.205  -1.502  14.283  0.00  0.00     0.146 H 
ATOM     39  C19 591 d   1       8.856  -4.084  16.189  0.00  0.00     0.015 A 
ATOM     40  H20 591 d   1       8.525  -4.527  17.121  0.00  0.00     0.116 H 
ENDBRANCH  28  32
ENDBRANCH   4  22
BRANCH   6  41
ATOM     41  N5  591 d   1      16.233  -4.869  15.020  0.00  0.00    -0.234 N 
ATOM     42  H9  591 d   1      16.605  -3.935  15.245  0.00  0.00     0.174 HD
ATOM     43  H10 591 d   1      16.584  -5.378  14.196  0.00  0.00     0.174 HD
ENDBRANCH   6  41
BRANCH   2  44
ATOM     44  C9  591 d   1      15.703  -3.899  17.771  0.00  0.00     0.005 C 
ATOM     45  H11 591 d   1      15.420  -3.936  18.833  0.00  0.00     0.058 H 
ATOM     46  H12 591 d   1      15.285  -2.991  17.311  0.00  0.00     0.058 H 
ATOM     47  H13 591 d   1      16.799  -3.882  17.684  0.00  0.00     0.058 H 
ENDBRANCH   2  44
TORSDOF 7
