REMARK  5 active torsions:
REMARK  status: ('A' for Active; 'I' for Inactive)
REMARK    1  A    between atoms: N1_2  and  C1_1 
REMARK    2  A    between atoms: C3_7  and  C5_11 
REMARK    3  A    between atoms: C16_22  and  C3_7 
REMARK    4  A    between atoms: C4_9  and  N3_8 
REMARK    5  A    between atoms: C9_15  and  C11_17 
ROOT
ATOM      1  N1  532 d   1      15.071  -5.319  16.931  0.00  0.00    -0.153 N 
ATOM      2  O1  532 d   1      13.915  -6.108  18.749  0.00  0.00    -0.269 OA
ATOM      3  C2  532 d   1      14.303  -6.206  17.586  0.00  0.00     0.276 A 
ATOM      4  N2  532 d   1      14.686  -6.816  15.311  0.00  0.00    -0.199 N 
ATOM      5  C3  532 d   1      13.999  -7.291  16.554  0.00  0.00     0.184 A 
ATOM      6  C4  532 d   1      15.262  -5.730  15.672  0.00  0.00     0.677 A 
ATOM      7  H4  532 d   1      14.694  -7.260  14.381  0.00  0.00     0.179 HD
ENDROOT
BRANCH   5   8
ATOM      8  C5  532 d   1      12.482  -7.379  16.446  0.00  0.00    -0.015 A 
ATOM      9  C6  532 d   1      11.702  -8.489  16.785  0.00  0.00    -0.074 A 
ATOM     10  C7  532 d   1      10.313  -8.416  16.635  0.00  0.00    -0.082 A 
ATOM     11  H7  532 d   1      12.167  -9.394  17.159  0.00  0.00     0.084 H 
ATOM     12  C8  532 d   1       9.684  -7.265  16.169  0.00  0.00    -0.072 A 
ATOM     13  H8  532 d   1       9.710  -9.280  16.889  0.00  0.00     0.083 H 
ATOM     14  C9  532 d   1      10.452  -6.141  15.818  0.00  0.00    -0.024 A 
ATOM     15  H9  532 d   1       8.604  -7.235  16.077  0.00  0.00     0.084 H 
ATOM     16  C10 532 d   1      11.833  -6.250  15.983  0.00  0.00    -0.063 A 
ATOM     17  H10 532 d   1      12.440  -5.388  15.730  0.00  0.00     0.085 H 
BRANCH  14  18
ATOM     18  C11 532 d   1       9.893  -4.858  15.329  0.00  0.00    -0.008 A 
ATOM     19  C12 532 d   1       8.757  -4.271  15.914  0.00  0.00    -0.070 A 
ATOM     20  C13 532 d   1       8.264  -3.064  15.425  0.00  0.00    -0.065 A 
ATOM     21  H11 532 d   1       8.264  -4.759  16.747  0.00  0.00     0.085 H 
ATOM     22  C14 532 d   1       8.911  -2.447  14.353  0.00  0.00     0.002 A 
ATOM     23  H12 532 d   1       7.388  -2.609  15.872  0.00  0.00     0.085 H 
ATOM     24  N4  532 d   1       9.995  -2.965  13.762  0.00  0.00    -0.272 NA
ATOM     25  H13 532 d   1       8.518  -1.507  13.983  0.00  0.00     0.114 H 
ATOM     26  C15 532 d   1      10.452  -4.145  14.264  0.00  0.00     0.012 A 
ATOM     27  H14 532 d   1      11.331  -4.572  13.794  0.00  0.00     0.116 H 
ENDBRANCH  14  18
ENDBRANCH   5   8
BRANCH   5  28
ATOM     28  C16 532 d   1      14.521  -8.640  16.957  0.00  0.00    -0.009 A 
ATOM     29  C17 532 d   1      14.950  -9.631  16.028  0.00  0.00    -0.067 A 
ATOM     30  C18 532 d   1      15.383 -10.772  16.659  0.00  0.00    -0.044 A 
ATOM     31  H15 532 d   1      14.936  -9.500  14.947  0.00  0.00     0.085 H 
ATOM     32  S1  532 d   1      15.289 -10.687  18.360  0.00  0.00    -0.113 SA
ATOM     33  H16 532 d   1      15.751 -11.647  16.125  0.00  0.00     0.095 H 
ATOM     34  C19 532 d   1      14.662  -9.095  18.250  0.00  0.00    -0.036 A 
ATOM     35  H17 532 d   1      14.399  -8.498  19.122  0.00  0.00     0.096 H 
ENDBRANCH   5  28
BRANCH   1  36
ATOM     36  C1  532 d   1      15.556  -4.112  17.541  0.00  0.00     0.005 C 
ATOM     37  H1  532 d   1      15.224  -4.072  18.589  0.00  0.00     0.058 H 
ATOM     38  H2  532 d   1      15.160  -3.242  16.997  0.00  0.00     0.058 H 
ATOM     39  H3  532 d   1      16.655  -4.098  17.504  0.00  0.00     0.058 H 
ENDBRANCH   1  36
BRANCH   6  40
ATOM     40  N3  532 d   1      16.101  -5.064  14.878  0.00  0.00    -0.234 N 
ATOM     41  H5  532 d   1      16.542  -4.194  15.209  0.00  0.00     0.174 HD
ATOM     42  H6  532 d   1      16.308  -5.419  13.934  0.00  0.00     0.174 HD
ENDBRANCH   6  40
TORSDOF 5
