REMARK  7 active torsions:
REMARK  status: ('A' for Active; 'I' for Inactive)
REMARK    1  A    between atoms: C4_4  and  C8_8 
REMARK    2  A    between atoms: C6_6  and  S9_9 
REMARK    3  A    between atoms: S9_9  and  C10_10 
REMARK    4  A    between atoms: C10_10  and  C11_11 
REMARK    5  A    between atoms: C11_11  and  C13_13 
REMARK    6  A    between atoms: C16_16  and  S19_19 
REMARK    7  A    between atoms: S19_19  and  N22_22 
ROOT
ATOM      1  C11 E59 d   1      -4.138   5.383  13.365  0.00  0.00     0.169 C 
ATOM      2  O12 E59 d   1      -4.812   6.392  13.113  0.00  0.00    -0.291 OA
ENDROOT
BRANCH   1   3
ATOM      3  C10 E59 d   1      -2.778   5.119  12.824  0.00  0.00     0.043 C 
ATOM      4  H6  E59 d   1      -2.702   4.047  12.589  0.00  0.00     0.061 H 
ATOM      5  H7  E59 d   1      -2.653   5.706  11.902  0.00  0.00     0.061 H 
BRANCH   3   6
ATOM      6  S9  E59 d   1      -1.455   5.543  13.941  0.00  0.00    -0.084 SA
BRANCH   6   7
ATOM      7  C6  E59 d   1      -1.452   7.304  13.657  0.00  0.00     0.169 A 
ATOM      8  N1  E59 d   1      -1.989   7.779  12.539  0.00  0.00    -0.302 N 
ATOM      9  C2  E59 d   1      -2.006   9.079  12.285  0.00  0.00     0.249 A 
ATOM     10  H1  E59 d   1      -2.388   7.144  11.877  0.00  0.00     0.171 HD
ATOM     11  C3  E59 d   1      -1.459   9.961  13.208  0.00  0.00     0.006 A 
ATOM     12  O7  E59 d   1      -2.513   9.488  11.238  0.00  0.00    -0.268 OA
ATOM     13  C4  E59 d   1      -0.908   9.431  14.364  0.00  0.00     0.038 A 
ATOM     14  H2  E59 d   1      -1.463  11.035  13.029  0.00  0.00     0.095 H 
ATOM     15  N5  E59 d   1      -0.919   8.121  14.558  0.00  0.00    -0.229 NA
BRANCH  13  16
ATOM     16  C8  E59 d   1      -0.295  10.321  15.400  0.00  0.00    -0.035 C 
ATOM     17  H3  E59 d   1       0.082   9.709  16.233  0.00  0.00     0.035 H 
ATOM     18  H4  E59 d   1      -1.054  11.024  15.775  0.00  0.00     0.035 H 
ATOM     19  H5  E59 d   1       0.537  10.884  14.953  0.00  0.00     0.035 H 
ENDBRANCH  13  16
ENDBRANCH   6   7
ENDBRANCH   3   6
ENDBRANCH   1   3
BRANCH   1  20
ATOM     20  C13 E59 d   1      -4.613   4.313  14.231  0.00  0.00     0.011 A 
ATOM     21  C14 E59 d   1      -5.904   4.295  14.723  0.00  0.00    -0.068 A 
ATOM     22  C15 E59 d   1      -6.301   3.241  15.532  0.00  0.00    -0.059 A 
ATOM     23  H8  E59 d   1      -6.596   5.093  14.480  0.00  0.00     0.085 H 
ATOM     24  C16 E59 d   1      -5.407   2.224  15.838  0.00  0.00     0.079 A 
ATOM     25  H9  E59 d   1      -7.311   3.211  15.926  0.00  0.00     0.085 H 
ATOM     26  C17 E59 d   1      -4.115   2.236  15.341  0.00  0.00    -0.059 A 
ATOM     27  C18 E59 d   1      -3.718   3.290  14.534  0.00  0.00    -0.068 A 
ATOM     28  H10 E59 d   1      -3.425   1.434  15.579  0.00  0.00     0.085 H 
ATOM     29  H11 E59 d   1      -2.709   3.318  14.138  0.00  0.00     0.085 H 
BRANCH  24  30
ATOM     30  S19 E59 d   1      -5.924   0.888  16.854  0.00  0.00     0.256 S 
ATOM     31  O20 E59 d   1      -7.438   0.878  16.825  0.00  0.00    -0.201 OA
ATOM     32  O21 E59 d   1      -5.388   1.058  18.258  0.00  0.00    -0.201 OA
BRANCH  30  33
ATOM     33  N22 E59 d   1      -5.331  -0.577  16.139  0.00  0.00    -0.324 N 
ATOM     34  H12 E59 d   1      -5.522  -1.458  16.572  0.00  0.00     0.169 HD
ATOM     35  H13 E59 d   1      -4.798  -0.541  15.293  0.00  0.00     0.169 HD
ENDBRANCH  30  33
ENDBRANCH  24  30
ENDBRANCH   1  20
TORSDOF 7
