REMARK  5 active torsions:
REMARK  status: ('A' for Active; 'I' for Inactive)
REMARK    1  A    between atoms: O8_1  and  C9_2 
REMARK    2  A    between atoms: C9_2  and  C10_3 
REMARK    3  A    between atoms: C9_2  and  C8_6 
REMARK    4  A    between atoms: C8_6  and  C7_7 
REMARK    5  A    between atoms: C7_7  and  C1_8 
ROOT
ATOM      1  C7  XI7 d   1      35.121  79.205  62.567  0.00  0.00     0.162 C 
ATOM      2  O14 XI7 d   1      35.386  79.647  61.458  0.00  0.00    -0.292 OA
ENDROOT
BRANCH   1   3
ATOM      3  C8  XI7 d   1      35.741  79.849  63.693  0.00  0.00     0.028 C 
ATOM      4  H3  XI7 d   1      34.922  80.195  64.341  0.00  0.00     0.049 H 
ATOM      5  H4  XI7 d   1      36.317  79.071  64.215  0.00  0.00     0.049 H 
BRANCH   3   6
ATOM      6  C9  XI7 d   1      36.745  81.116  63.510  0.00  0.00     0.125 C 
ATOM      7  H2  XI7 d   1      36.242  81.973  63.982  0.00  0.00     0.100 H 
BRANCH   6   8
ATOM      8  O8  XI7 d   1      37.045  81.589  62.257  0.00  0.00    -0.384 OA
ATOM      9  H1  XI7 d   1      37.530  80.928  61.778  0.00  0.00     0.210 HD
ENDBRANCH   6   8
BRANCH   6  10
ATOM     10  C10 XI7 d   1      37.888  80.730  64.429  0.00  0.00     0.203 C 
ATOM     11  O11 XI7 d   1      39.023  80.770  63.890  0.00  0.00    -0.646 OA
ATOM     12  O10 XI7 d   1      37.737  80.501  65.647  0.00  0.00    -0.646 OA
ENDBRANCH   6  10
ENDBRANCH   3   6
ENDBRANCH   1   3
BRANCH   1  13
ATOM     13  C1  XI7 d   1      34.181  78.032  62.608  0.00  0.00     0.010 A 
ATOM     14  C6  XI7 d   1      33.056  78.014  61.616  0.00  0.00    -0.070 A 
ATOM     15  C5  XI7 d   1      32.130  76.837  61.641  0.00  0.00    -0.082 A 
ATOM     16  H5  XI7 d   1      32.918  78.823  60.907  0.00  0.00     0.085 H 
ATOM     17  C4  XI7 d   1      32.326  75.743  62.584  0.00  0.00    -0.083 A 
ATOM     18  H6  XI7 d   1      31.299  76.798  60.946  0.00  0.00     0.083 H 
ATOM     19  C3  XI7 d   1      33.381  75.733  63.550  0.00  0.00    -0.082 A 
ATOM     20  H7  XI7 d   1      31.643  74.901  62.552  0.00  0.00     0.083 H 
ATOM     21  C2  XI7 d   1      34.366  76.921  63.572  0.00  0.00    -0.070 A 
ATOM     22  H8  XI7 d   1      33.486  74.911  64.249  0.00  0.00     0.083 H 
ATOM     23  H9  XI7 d   1      35.183  76.943  64.284  0.00  0.00     0.085 H 
ENDBRANCH   1  13
TORSDOF 5
