REMARK  8 active torsions:
REMARK  status: ('A' for Active; 'I' for Inactive)
REMARK    1  A    between atoms: C2_2  and  S7_7 
REMARK    2  A    between atoms: C4_4  and  C11_11 
REMARK    3  A    between atoms: C6_6  and  C12_12 
REMARK    4  A    between atoms: S7_7  and  C8_8 
REMARK    5  A    between atoms: C8_8  and  C9_9 
REMARK    6  A    between atoms: C9_9  and  C13_13 
REMARK    7  A    between atoms: C15_15  and  S19_19 
REMARK    8  A    between atoms: S19_19  and  N23_22 
ROOT
ATOM      1  C8  E49 d   1      -3.080   1.964  12.054  0.00  0.00     0.043 C 
ATOM      2  H2  E49 d   1      -2.521   1.895  12.999  0.00  0.00     0.061 H 
ATOM      3  H3  E49 d   1      -3.495   0.977  11.801  0.00  0.00     0.061 H 
ENDROOT
BRANCH   1   4
ATOM      4  S7  E49 d   1      -1.931   2.501  10.707  0.00  0.00    -0.082 SA
BRANCH   4   5
ATOM      5  C2  E49 d   1      -1.517   4.150  11.113  0.00  0.00     0.189 A 
ATOM      6  N1  E49 d   1      -0.774   4.767  10.215  0.00  0.00    -0.228 NA
ATOM      7  C6  E49 d   1      -0.437   6.063  10.412  0.00  0.00     0.035 A 
ATOM      8  C5  E49 d   1      -0.895   6.704  11.570  0.00  0.00    -0.036 A 
ATOM      9  C4  E49 d   1      -1.629   6.019  12.524  0.00  0.00     0.035 A 
ATOM     10  H1  E49 d   1      -0.671   7.754  11.722  0.00  0.00     0.089 H 
ATOM     11  N3  E49 d   1      -1.889   4.728  12.258  0.00  0.00    -0.228 NA
BRANCH   7  12
ATOM     12  C12 E49 d   1       0.406   6.742   9.444  0.00  0.00    -0.035 C 
ATOM     13  H7  E49 d   1       0.573   7.780   9.767  0.00  0.00     0.035 H 
ATOM     14  H8  E49 d   1      -0.088   6.739   8.461  0.00  0.00     0.035 H 
ATOM     15  H9  E49 d   1       1.372   6.221   9.370  0.00  0.00     0.035 H 
ENDBRANCH   7  12
BRANCH   9  16
ATOM     16  C11 E49 d   1      -2.170   6.731  13.796  0.00  0.00    -0.035 C 
ATOM     17  H4  E49 d   1      -1.832   7.778  13.802  0.00  0.00     0.035 H 
ATOM     18  H5  E49 d   1      -1.791   6.218  14.692  0.00  0.00     0.035 H 
ATOM     19  H6  E49 d   1      -3.270   6.701  13.793  0.00  0.00     0.035 H 
ENDBRANCH   9  16
ENDBRANCH   4   5
ENDBRANCH   1   4
BRANCH   1  20
ATOM     20  C9  E49 d   1      -4.228   2.963  12.223  0.00  0.00     0.169 C 
ATOM     21  O10 E49 d   1      -4.678   3.607  11.212  0.00  0.00    -0.291 OA
BRANCH  20  22
ATOM     22  C13 E49 d   1      -4.844   3.121  13.586  0.00  0.00     0.012 C 
ATOM     23  C14 E49 d   1      -5.059   2.085  14.456  0.00  0.00    -0.045 C 
ATOM     24  C15 E49 d   1      -5.636   2.276  15.637  0.00  0.00     0.101 C 
ATOM     25  H10 E49 d   1      -4.751   1.085  14.174  0.00  0.00     0.087 H 
ATOM     26  C16 E49 d   1      -6.197   3.492  15.925  0.00  0.00     0.057 C 
ATOM     27  C17 E49 d   1      -5.933   4.636  15.135  0.00  0.00    -0.059 C 
ATOM     28 CL21 E49 d   1      -6.849   3.818  17.458  0.00  0.00    -0.083 Cl
ATOM     29  C18 E49 d   1      -5.428   4.359  13.957  0.00  0.00    -0.068 C 
ATOM     30  H11 E49 d   1      -6.130   5.647  15.472  0.00  0.00     0.086 H 
ATOM     31  H12 E49 d   1      -5.460   5.140  13.206  0.00  0.00     0.085 H 
BRANCH  24  32
ATOM     32  S19 E49 d   1      -5.954   0.835  16.689  0.00  0.00     0.258 S 
ATOM     33  O20 E49 d   1      -7.458   0.784  16.722  0.00  0.00    -0.201 OA
ATOM     34  O22 E49 d   1      -5.356   1.046  17.954  0.00  0.00    -0.201 OA
BRANCH  32  35
ATOM     35  N23 E49 d   1      -5.297  -0.506  16.058  0.00  0.00    -0.324 N 
ATOM     36  H13 E49 d   1      -5.393  -1.381  16.533  0.00  0.00     0.169 HD
ATOM     37  H14 E49 d   1      -4.796  -0.458  15.194  0.00  0.00     0.169 HD
ENDBRANCH  32  35
ENDBRANCH  24  32
ENDBRANCH  20  22
ENDBRANCH   1  20
TORSDOF 8
