REMARK  6 active torsions:
REMARK  status: ('A' for Active; 'I' for Inactive)
REMARK    1  A    between atoms: O5'_23  and  P_1 
REMARK    2  A    between atoms: C1'_11  and  N1_2 
REMARK    3  A    between atoms: C2'_13  and  O2'_14 
REMARK    4  A    between atoms: C3'_17  and  O3'_18 
REMARK    5  A    between atoms: C5'_22  and  C4'_20 
REMARK    6  A    between atoms: C5'_22  and  O5'_23 
ROOT
ATOM      1  C1' FNU d   1      10.128   5.788  31.625  0.00  0.00     0.142 C 
ATOM      2  C2' FNU d   1      10.720   5.551  30.198  0.00  0.00     0.105 C 
ATOM      3  C3' FNU d   1      10.524   4.057  30.016  0.00  0.00     0.091 C 
ATOM      4  C4' FNU d   1      10.756   3.523  31.424  0.00  0.00     0.089 C 
ATOM      5  O4' FNU d   1      10.383   4.576  32.340  0.00  0.00    -0.353 OA
ATOM      6  H4  FNU d   1       9.043   5.949  31.538  0.00  0.00     0.123 H 
ATOM      7  H5  FNU d   1      11.788   5.813  30.186  0.00  0.00     0.093 H 
ATOM      8  H7  FNU d   1      11.229   3.632  29.286  0.00  0.00     0.091 H 
ATOM      9  H9  FNU d   1      10.141   2.628  31.599  0.00  0.00     0.090 H 
ENDROOT
BRANCH   1  10
ATOM     10  N1  FNU d   1      10.699   6.934  32.352  0.00  0.00    -0.264 N 
ATOM     11  C2  FNU d   1      12.019   7.072  32.564  0.00  0.00     0.264 A 
ATOM     12  N2  FNU d   1      12.531   8.097  33.261  0.00  0.00    -0.295 N 
ATOM     13  O2  FNU d   1      12.902   6.190  32.079  0.00  0.00    -0.151 OA
ATOM     14  C4  FNU d   1      11.688   9.020  33.783  0.00  0.00     0.224 A 
ATOM     15  H1  FNU d   1      13.519   8.179  33.393  0.00  0.00     0.171 HD
ATOM     16  O4  FNU d   1      12.256  10.007  34.484  0.00  0.00    -0.169 OA
ATOM     17  C5  FNU d   1      10.305   8.918  33.643  0.00  0.00     0.213 A 
ATOM     18  C6  FNU d   1       9.846   7.828  32.925  0.00  0.00     0.150 A 
ATOM     19  F24 FNU d   1       9.475   9.862  34.140  0.00  0.00    -0.197 F 
ATOM     20  N3  FNU d   1       8.532   7.604  32.789  0.00  0.00    -0.383 N 
ATOM     21  H2  FNU d   1       7.853   8.256  33.207  0.00  0.00     0.157 HD
ATOM     22  H3  FNU d   1       8.201   6.780  32.267  0.00  0.00     0.157 HD
ENDBRANCH   1  10
BRANCH   2  23
ATOM     23  O2' FNU d   1      10.066   6.268  29.146  0.00  0.00    -0.388 OA
ATOM     24  H6  FNU d   1      10.126   7.201  29.315  0.00  0.00     0.210 HD
ENDBRANCH   2  23
BRANCH   3  25
ATOM     25  O3' FNU d   1       9.176   3.786  29.637  0.00  0.00    -0.390 OA
ATOM     26  H8  FNU d   1       9.062   2.849  29.525  0.00  0.00     0.210 HD
ENDBRANCH   3  25
BRANCH   4  27
ATOM     27  C5' FNU d   1      12.238   3.178  31.613  0.00  0.00     0.059 C 
ATOM     28  H10 FNU d   1      12.493   3.165  32.683  0.00  0.00     0.079 H 
ATOM     29  H11 FNU d   1      12.870   3.913  31.094  0.00  0.00     0.079 H 
BRANCH  27  30
ATOM     30  O5' FNU d   1      12.420   1.876  31.043  0.00  0.00    -0.280 OA
BRANCH  30  31
ATOM     31  P   FNU d   1      13.859   1.133  31.119  0.00  0.00     0.422 P 
ATOM     32  O1P FNU d   1      13.849   0.244  32.361  0.00  0.00    -0.617 OA
ATOM     33  O2P FNU d   1      14.891   2.212  31.151  0.00  0.00    -0.617 OA
ATOM     34  O3P FNU d   1      13.812   0.328  29.814  0.00  0.00    -0.617 OA
ENDBRANCH  30  31
ENDBRANCH  27  30
ENDBRANCH   4  27
TORSDOF 6
