REMARK  4 active torsions:
REMARK  status: ('A' for Active; 'I' for Inactive)
REMARK    1  A    between atoms: C02_2  and  C04_4 
REMARK    2  A    between atoms: C04_4  and  C06_6 
REMARK    3  A    between atoms: C07_7  and  O08_8 
REMARK    4  A    between atoms: C07_7  and  C09_9 
ROOT
ATOM      1  C09 I92 d   1      34.527  77.851  62.902  0.00  0.00     0.015 A 
ATOM      2  C10 I92 d   1      35.093  76.882  63.761  0.00  0.00    -0.069 A 
ATOM      3  C11 I92 d   1      34.395  75.683  64.012  0.00  0.00    -0.082 A 
ATOM      4  C12 I92 d   1      33.131  75.424  63.420  0.00  0.00    -0.082 A 
ATOM      5  C13 I92 d   1      32.560  76.381  62.553  0.00  0.00    -0.065 A 
ATOM      6  C14 I92 d   1      33.267  77.587  62.319  0.00  0.00     0.024 A 
ATOM      7 BR15 I92 d   1      32.477  78.883  61.147  0.00  0.00    -0.050 Br
ATOM      8  H3  I92 d   1      36.057  77.059  64.224  0.00  0.00     0.085 H 
ATOM      9  H4  I92 d   1      34.833  74.943  64.671  0.00  0.00     0.083 H 
ATOM     10  H5  I92 d   1      32.608  74.498  63.632  0.00  0.00     0.083 H 
ATOM     11  H6  I92 d   1      31.603  76.198  62.077  0.00  0.00     0.085 H 
ENDROOT
BRANCH   1  12
ATOM     12  C07 I92 d   1      35.292  79.161  62.643  0.00  0.00     0.081 C 
ATOM     13  C06 I92 d   1      35.982  79.717  63.622  0.00  0.00     0.005 C 
ATOM     14  H1  I92 d   1      35.794  79.376  64.639  0.00  0.00     0.094 H 
BRANCH  13  15
ATOM     15  C04 I92 d   1      37.030  80.812  63.414  0.00  0.00     0.250 C 
ATOM     16  O05 I92 d   1      37.023  81.561  62.496  0.00  0.00    -0.281 OA
BRANCH  15  17
ATOM     17  C02 I92 d   1      38.173  80.898  64.406  0.00  0.00     0.251 C 
ATOM     18  O01 I92 d   1      37.869  80.538  65.698  0.00  0.00    -0.642 OA
ATOM     19  O03 I92 d   1      39.293  80.820  64.019  0.00  0.00    -0.642 OA
ENDBRANCH  15  17
ENDBRANCH  13  15
BRANCH  12  20
ATOM     20  O08 I92 d   1      35.174  79.837  61.435  0.00  0.00    -0.360 OA
ATOM     21  H2  I92 d   1      36.038  79.980  61.068  0.00  0.00     0.217 HD
ENDBRANCH  12  20
ENDBRANCH   1  12
TORSDOF 4
