REMARK  5 active torsions:
REMARK  status: ('A' for Active; 'I' for Inactive)
REMARK    1  A    between atoms: C01_1  and  C02_2 
REMARK    2  A    between atoms: C03_3  and  C04_4 
REMARK    3  A    between atoms: C04_4  and  O05_5 
REMARK    4  A    between atoms: C06_6  and  C07_7 
REMARK    5  A    between atoms: C07_7  and  C08_8 
ROOT
ATOM      1  C02 040 d   1      33.281  75.469  61.322  0.00  0.00    -0.049 A 
ATOM      2  C03 040 d   1      34.558  75.708  61.875  0.00  0.00     0.003 A 
ATOM      3  C12 040 d   1      35.145  74.775  62.756  0.00  0.00    -0.070 A 
ATOM      4  C13 040 d   1      34.489  73.592  63.073  0.00  0.00    -0.082 A 
ATOM      5  C14 040 d   1      33.225  73.343  62.512  0.00  0.00    -0.082 A 
ATOM      6  C15 040 d   1      32.632  74.268  61.648  0.00  0.00    -0.076 A 
ATOM      7  H6  040 d   1      36.117  74.983  63.189  0.00  0.00     0.084 H 
ATOM      8  H7  040 d   1      34.945  72.872  63.743  0.00  0.00     0.083 H 
ATOM      9  H8  040 d   1      32.704  72.423  62.752  0.00  0.00     0.083 H 
ATOM     10  H9  040 d   1      31.657  74.055  61.224  0.00  0.00     0.084 H 
ENDROOT
BRANCH   2  11
ATOM     11  C04 040 d   1      35.348  76.920  61.614  0.00  0.00     0.080 C 
ATOM     12  C06 040 d   1      35.922  77.635  62.594  0.00  0.00     0.005 C 
ATOM     13  H5  040 d   1      35.686  77.364  63.622  0.00  0.00     0.094 H 
BRANCH  11  14
ATOM     14  O05 040 d   1      35.563  77.278  60.297  0.00  0.00    -0.360 OA
ATOM     15  H4  040 d   1      36.083  78.073  60.267  0.00  0.00     0.217 HD
ENDBRANCH  11  14
BRANCH  12  16
ATOM     16  C07 040 d   1      36.840  78.750  62.381  0.00  0.00     0.250 C 
ATOM     17  O11 040 d   1      36.960  79.376  61.330  0.00  0.00    -0.281 OA
BRANCH  16  18
ATOM     18  C08 040 d   1      37.882  78.938  63.445  0.00  0.00     0.251 C 
ATOM     19  O09 040 d   1      39.159  78.894  62.966  0.00  0.00    -0.642 OA
ATOM     20  O10 040 d   1      37.807  78.550  64.609  0.00  0.00    -0.642 OA
ENDBRANCH  16  18
ENDBRANCH  12  16
ENDBRANCH   2  11
BRANCH   1  21
ATOM     21  C01 040 d   1      32.619  76.419  60.390  0.00  0.00    -0.050 C 
ATOM     22  H1  040 d   1      31.638  76.019  60.095  0.00  0.00     0.033 H 
ATOM     23  H2  040 d   1      33.245  76.551  59.495  0.00  0.00     0.033 H 
ATOM     24  H3  040 d   1      32.484  77.389  60.890  0.00  0.00     0.033 H 
ENDBRANCH   1  21
TORSDOF 5
