REMARK  8 active torsions:
REMARK  status: ('A' for Active; 'I' for Inactive)
REMARK    1  A    between atoms: C2_2  and  S7_7 
REMARK    2  A    between atoms: C5_5  and  C11_11 
REMARK    3  A    between atoms: S7_7  and  C8_8 
REMARK    4  A    between atoms: C8_8  and  C9_9 
REMARK    5  A    between atoms: C9_9  and  C13_13 
REMARK    6  A    between atoms: C11_11  and  C12_12 
REMARK    7  A    between atoms: C15_15  and  S19_19 
REMARK    8  A    between atoms: S19_19  and  N23_23 
ROOT
ATOM      1  C8  E50 d   1      -2.999   1.978  12.156  0.00  0.00     0.043 C 
ATOM      2  H3  E50 d   1      -2.563   1.836  13.156  0.00  0.00     0.061 H 
ATOM      3  H4  E50 d   1      -3.359   1.012  11.773  0.00  0.00     0.061 H 
ENDROOT
BRANCH   1   4
ATOM      4  S7  E50 d   1      -1.711   2.594  11.048  0.00  0.00    -0.082 SA
BRANCH   4   5
ATOM      5  C2  E50 d   1      -1.411   4.150  11.785  0.00  0.00     0.188 A 
ATOM      6  N1  E50 d   1      -0.491   4.896  11.195  0.00  0.00    -0.235 NA
ATOM      7  C6  E50 d   1      -0.256   6.137  11.746  0.00  0.00     0.012 A 
ATOM      8  C5  E50 d   1      -0.927   6.633  12.891  0.00  0.00    -0.023 A 
ATOM      9  H2  E50 d   1       0.486   6.771  11.275  0.00  0.00     0.115 H 
ATOM     10  C4  E50 d   1      -1.894   5.807  13.456  0.00  0.00     0.012 A 
ATOM     11  N3  E50 d   1      -2.090   4.566  12.889  0.00  0.00    -0.235 NA
ATOM     12  H1  E50 d   1      -2.474   6.129  14.313  0.00  0.00     0.115 H 
BRANCH   8  13
ATOM     13  C11 E50 d   1      -0.594   8.031  13.407  0.00  0.00    -0.042 C 
ATOM     14  H5  E50 d   1      -0.922   8.771  12.662  0.00  0.00     0.039 H 
ATOM     15  H6  E50 d   1       0.494   8.108  13.546  0.00  0.00     0.039 H 
BRANCH  13  16
ATOM     16  C12 E50 d   1      -1.299   8.338  14.767  0.00  0.00    -0.073 C 
ATOM     17  H7  E50 d   1      -1.031   9.352  15.098  0.00  0.00     0.028 H 
ATOM     18  H8  E50 d   1      -0.973   7.607  15.522  0.00  0.00     0.028 H 
ATOM     19  H9  E50 d   1      -2.389   8.271  14.638  0.00  0.00     0.028 H 
ENDBRANCH  13  16
ENDBRANCH   8  13
ENDBRANCH   4   5
ENDBRANCH   1   4
BRANCH   1  20
ATOM     20  C9  E50 d   1      -4.179   2.921  12.273  0.00  0.00     0.169 C 
ATOM     21  O10 E50 d   1      -4.544   3.582  11.244  0.00  0.00    -0.291 OA
BRANCH  20  22
ATOM     22  C13 E50 d   1      -4.857   3.083  13.629  0.00  0.00     0.012 A 
ATOM     23  C14 E50 d   1      -4.981   2.057  14.551  0.00  0.00    -0.045 A 
ATOM     24  C15 E50 d   1      -5.620   2.254  15.772  0.00  0.00     0.101 A 
ATOM     25  H10 E50 d   1      -4.572   1.081  14.317  0.00  0.00     0.087 H 
ATOM     26  C16 E50 d   1      -6.078   3.546  16.067  0.00  0.00     0.057 A 
ATOM     27  C17 E50 d   1      -5.908   4.595  15.206  0.00  0.00    -0.059 A 
ATOM     28 CL21 E50 d   1      -6.851   3.810  17.576  0.00  0.00    -0.083 Cl
ATOM     29  C18 E50 d   1      -5.301   4.368  13.962  0.00  0.00    -0.068 A 
ATOM     30  H11 E50 d   1      -6.238   5.590  15.482  0.00  0.00     0.086 H 
ATOM     31  H12 E50 d   1      -5.176   5.185  13.261  0.00  0.00     0.085 H 
BRANCH  24  32
ATOM     32  S19 E50 d   1      -5.982   0.813  16.806  0.00  0.00     0.258 S 
ATOM     33  O20 E50 d   1      -5.340   1.055  18.079  0.00  0.00    -0.201 OA
ATOM     34  O22 E50 d   1      -7.437   0.770  16.790  0.00  0.00    -0.201 OA
BRANCH  32  35
ATOM     35  N23 E50 d   1      -5.428  -0.478  16.083  0.00  0.00    -0.324 N 
ATOM     36  H13 E50 d   1      -5.538  -1.376  16.509  0.00  0.00     0.169 HD
ATOM     37  H14 E50 d   1      -4.968  -0.397  15.199  0.00  0.00     0.169 HD
ENDBRANCH  32  35
ENDBRANCH  24  32
ENDBRANCH  20  22
ENDBRANCH   1  20
TORSDOF 8
