REMARK  4 active torsions:
REMARK  status: ('A' for Active; 'I' for Inactive)
REMARK    1  A    between atoms: C02_2  and  C04_4 
REMARK    2  A    between atoms: C04_4  and  C06_6 
REMARK    3  A    between atoms: C07_7  and  O08_8 
REMARK    4  A    between atoms: C07_7  and  C09_9 
ROOT
ATOM      1  C09 043 d   1      34.235  76.446  62.230  0.00  0.00    -0.002 A 
ATOM      2  C10 043 d   1      34.603  75.466  63.194  0.00  0.00    -0.070 A 
ATOM      3  C11 043 d   1      33.810  74.318  63.384  0.00  0.00    -0.081 A 
ATOM      4  C12 043 d   1      32.642  74.159  62.601  0.00  0.00    -0.066 A 
ATOM      5  C13 043 d   1      32.288  75.139  61.640  0.00  0.00     0.011 A 
ATOM      6 BR14 043 d   1      30.687  74.931  60.570  0.00  0.00    -0.051 Br
ATOM      7  C15 043 d   1      33.075  76.293  61.446  0.00  0.00    -0.054 A 
ATOM      8  H3  043 d   1      35.500  75.604  63.786  0.00  0.00     0.084 H 
ATOM      9  H4  043 d   1      34.089  73.570  64.117  0.00  0.00     0.083 H 
ATOM     10  H5  043 d   1      32.016  73.285  62.737  0.00  0.00     0.085 H 
ATOM     11  H6  043 d   1      32.795  77.042  60.714  0.00  0.00     0.086 H 
ENDROOT
BRANCH   1  12
ATOM     12  C07 043 d   1      35.103  77.686  62.023  0.00  0.00     0.080 C 
ATOM     13  C06 043 d   1      35.695  78.248  63.056  0.00  0.00     0.005 C 
ATOM     14  H1  043 d   1      35.498  77.866  64.056  0.00  0.00     0.094 H 
BRANCH  13  15
ATOM     15  C04 043 d   1      36.652  79.425  62.880  0.00  0.00     0.250 C 
ATOM     16  O05 043 d   1      36.680  80.083  61.887  0.00  0.00    -0.281 OA
BRANCH  15  17
ATOM     17  C02 043 d   1      37.777  79.556  63.887  0.00  0.00     0.251 C 
ATOM     18  O01 043 d   1      39.053  79.603  63.348  0.00  0.00    -0.642 OA
ATOM     19  O03 043 d   1      37.628  79.235  65.027  0.00  0.00    -0.642 OA
ENDBRANCH  15  17
ENDBRANCH  13  15
BRANCH  12  20
ATOM     20  O08 043 d   1      35.140  78.298  60.773  0.00  0.00    -0.360 OA
ATOM     21  H2  043 d   1      36.043  78.392  60.494  0.00  0.00     0.217 HD
ENDBRANCH  12  20
ENDBRANCH   1  12
TORSDOF 4
