REMARK  5 active torsions:
REMARK  status: ('A' for Active; 'I' for Inactive)
REMARK    1  A    between atoms: C01_1  and  C02_2 
REMARK    2  A    between atoms: C07_7  and  C08_8 
REMARK    3  A    between atoms: C08_8  and  C10_10 
REMARK    4  A    between atoms: C11_11  and  O12_12 
REMARK    5  A    between atoms: C11_11  and  C13_13 
ROOT
ATOM      1  C02 I93 d   1      32.221  75.634  61.395  0.00  0.00    -0.039 A 
ATOM      2  C03 I93 d   1      32.674  74.615  62.256  0.00  0.00    -0.073 A 
ATOM      3  C04 I93 d   1      33.864  74.724  62.978  0.00  0.00    -0.044 A 
ATOM      4  C05 I93 d   1      34.658  75.883  62.860  0.00  0.00     0.132 A 
ATOM      5  F06 I93 d   1      35.816  75.968  63.557  0.00  0.00    -0.205 F 
ATOM      6  C07 I93 d   1      34.248  76.936  62.014  0.00  0.00     0.075 A 
ATOM      7  C16 I93 d   1      33.042  76.778  61.298  0.00  0.00     0.057 A 
ATOM      8 CL17 I93 d   1      32.567  78.073  60.307  0.00  0.00    -0.083 Cl
ATOM      9  H4  I93 d   1      32.078  73.716  62.361  0.00  0.00     0.084 H 
ATOM     10  H5  I93 d   1      34.178  73.917  63.630  0.00  0.00     0.088 H 
ENDROOT
BRANCH   6  11
ATOM     11  C08 I93 d   1      35.095  78.171  61.850  0.00  0.00     0.189 C 
ATOM     12  O09 I93 d   1      35.374  78.524  60.695  0.00  0.00    -0.287 OA
BRANCH  11  13
ATOM     13  C10 I93 d   1      35.920  78.694  62.953  0.00  0.00     0.005 C 
ATOM     14  C11 I93 d   1      36.747  79.768  62.843  0.00  0.00     0.146 C 
ATOM     15  H6  I93 d   1      35.864  78.189  63.916  0.00  0.00     0.094 H 
BRANCH  14  16
ATOM     16  O12 I93 d   1      36.747  80.556  61.723  0.00  0.00    -0.355 OA
ATOM     17  H7  I93 d   1      36.973  80.028  60.966  0.00  0.00     0.218 HD
ENDBRANCH  14  16
BRANCH  14  18
ATOM     18  C13 I93 d   1      37.854  80.062  63.794  0.00  0.00     0.233 C 
ATOM     19  O14 I93 d   1      37.696  79.737  65.102  0.00  0.00    -0.642 OA
ATOM     20  O15 I93 d   1      39.036  80.026  63.443  0.00  0.00    -0.642 OA
ENDBRANCH  14  18
ENDBRANCH  11  13
ENDBRANCH   6  11
BRANCH   1  21
ATOM     21  C01 I93 d   1      30.926  75.486  60.654  0.00  0.00    -0.050 C 
ATOM     22  H1  I93 d   1      30.475  74.512  60.894  0.00  0.00     0.033 H 
ATOM     23  H2  I93 d   1      31.114  75.546  59.572  0.00  0.00     0.033 H 
ATOM     24  H3  I93 d   1      30.239  76.291  60.952  0.00  0.00     0.033 H 
ENDBRANCH   1  21
TORSDOF 5
