REMARK  8 active torsions:
REMARK  status: ('A' for Active; 'I' for Inactive)
REMARK    1  A    between atoms: C2_2  and  S7_7 
REMARK    2  A    between atoms: C4_4  and  C11_11 
REMARK    3  A    between atoms: C6_6  and  C12_12 
REMARK    4  A    between atoms: S7_7  and  C8_8 
REMARK    5  A    between atoms: C8_8  and  C9_9 
REMARK    6  A    between atoms: C9_9  and  C13_13 
REMARK    7  A    between atoms: C16_16  and  S19_19 
REMARK    8  A    between atoms: S19_19  and  N22_22 
ROOT
ATOM      1  C8  E65 d   1      -2.045   5.178  12.948  0.00  0.00     0.043 C 
ATOM      2  H2  E65 d   1      -1.415   5.587  13.752  0.00  0.00     0.061 H 
ATOM      3  H3  E65 d   1      -1.752   4.137  12.746  0.00  0.00     0.061 H 
ENDROOT
BRANCH   1   4
ATOM      4  S7  E65 d   1      -1.887   6.179  11.453  0.00  0.00    -0.082 SA
BRANCH   4   5
ATOM      5  C2  E65 d   1      -1.544   7.850  12.112  0.00  0.00     0.189 A 
ATOM      6  N1  E65 d   1      -1.356   9.012  11.460  0.00  0.00    -0.228 NA
ATOM      7  C6  E65 d   1      -1.094  10.192  12.125  0.00  0.00     0.035 A 
ATOM      8  C5  E65 d   1      -1.002  10.241  13.511  0.00  0.00    -0.036 A 
ATOM      9  C4  E65 d   1      -1.190   9.005  14.149  0.00  0.00     0.035 A 
ATOM     10  H1  E65 d   1      -0.802  11.158  14.054  0.00  0.00     0.089 H 
ATOM     11  N3  E65 d   1      -1.442   7.954  13.436  0.00  0.00    -0.228 NA
BRANCH   7  12
ATOM     12  C12 E65 d   1      -0.898  11.497  11.390  0.00  0.00    -0.035 C 
ATOM     13  H7  E65 d   1      -0.702  12.300  12.115  0.00  0.00     0.035 H 
ATOM     14  H8  E65 d   1      -1.806  11.735  10.816  0.00  0.00     0.035 H 
ATOM     15  H9  E65 d   1      -0.043  11.406  10.704  0.00  0.00     0.035 H 
ENDBRANCH   7  12
BRANCH   9  16
ATOM     16  C11 E65 d   1      -1.136   8.732  15.579  0.00  0.00    -0.035 C 
ATOM     17  H4  E65 d   1      -0.919   9.664  16.122  0.00  0.00     0.035 H 
ATOM     18  H5  E65 d   1      -0.344   7.996  15.782  0.00  0.00     0.035 H 
ATOM     19  H6  E65 d   1      -2.104   8.330  15.912  0.00  0.00     0.035 H 
ENDBRANCH   9  16
ENDBRANCH   4   5
ENDBRANCH   1   4
BRANCH   1  20
ATOM     20  C9  E65 d   1      -3.503   5.249  13.333  0.00  0.00     0.169 C 
ATOM     21  O10 E65 d   1      -4.195   6.099  12.809  0.00  0.00    -0.291 OA
BRANCH  20  22
ATOM     22  C13 E65 d   1      -4.180   4.236  14.217  0.00  0.00     0.011 A 
ATOM     23  C14 E65 d   1      -3.395   3.179  14.578  0.00  0.00    -0.068 A 
ATOM     24  C15 E65 d   1      -3.921   2.182  15.431  0.00  0.00    -0.059 A 
ATOM     25  H10 E65 d   1      -2.377   3.105  14.214  0.00  0.00     0.085 H 
ATOM     26  C16 E65 d   1      -5.253   2.238  15.783  0.00  0.00     0.079 A 
ATOM     27  H11 E65 d   1      -3.287   1.385  15.803  0.00  0.00     0.085 H 
ATOM     28  C17 E65 d   1      -6.063   3.296  15.387  0.00  0.00    -0.059 A 
ATOM     29  C18 E65 d   1      -5.546   4.327  14.582  0.00  0.00    -0.068 A 
ATOM     30  H12 E65 d   1      -7.100   3.327  15.701  0.00  0.00     0.085 H 
ATOM     31  H13 E65 d   1      -6.165   5.155  14.255  0.00  0.00     0.085 H 
BRANCH  26  32
ATOM     32  S19 E65 d   1      -5.903   0.876  16.761  0.00  0.00     0.256 S 
ATOM     33  O20 E65 d   1      -7.379   0.896  16.553  0.00  0.00    -0.201 OA
ATOM     34  O21 E65 d   1      -5.308   1.000  18.090  0.00  0.00    -0.201 OA
BRANCH  32  35
ATOM     35  N22 E65 d   1      -5.219  -0.473  16.014  0.00  0.00    -0.324 N 
ATOM     36  H14 E65 d   1      -5.416  -1.390  16.361  0.00  0.00     0.169 HD
ATOM     37  H15 E65 d   1      -4.617  -0.356  15.224  0.00  0.00     0.169 HD
ENDBRANCH  32  35
ENDBRANCH  26  32
ENDBRANCH  20  22
ENDBRANCH   1  20
TORSDOF 8
