REMARK  6 active torsions:
REMARK  status: ('A' for Active; 'I' for Inactive)
REMARK    1  A    between atoms: C2_2  and  S7_7 
REMARK    2  A    between atoms: S7_7  and  C8_8 
REMARK    3  A    between atoms: C8_8  and  C9_9 
REMARK    4  A    between atoms: C9_9  and  C11_11 
REMARK    5  A    between atoms: C14_14  and  S17_17 
REMARK    6  A    between atoms: S17_17  and  N20_20 
ROOT
ATOM      1  C11 E90 d   1      -4.205   4.253  14.393  0.00  0.00     0.011 A 
ATOM      2  C12 E90 d   1      -3.405   3.172  14.804  0.00  0.00    -0.068 A 
ATOM      3  C13 E90 d   1      -3.948   2.164  15.563  0.00  0.00    -0.059 A 
ATOM      4  C14 E90 d   1      -5.302   2.208  15.873  0.00  0.00     0.079 A 
ATOM      5  C15 E90 d   1      -6.125   3.232  15.479  0.00  0.00    -0.059 A 
ATOM      6  C16 E90 d   1      -5.545   4.285  14.768  0.00  0.00    -0.068 A 
ATOM      7  H6  E90 d   1      -2.359   3.134  14.522  0.00  0.00     0.085 H 
ATOM      8  H7  E90 d   1      -3.329   1.346  15.915  0.00  0.00     0.085 H 
ATOM      9  H8  E90 d   1      -7.184   3.224  15.710  0.00  0.00     0.085 H 
ATOM     10  H9  E90 d   1      -6.151   5.144  14.503  0.00  0.00     0.085 H 
ENDROOT
BRANCH   1  11
ATOM     11  C9  E90 d   1      -3.607   5.329  13.537  0.00  0.00     0.169 C 
ATOM     12  O10 E90 d   1      -4.323   6.282  13.176  0.00  0.00    -0.291 OA
BRANCH  11  13
ATOM     13  C8  E90 d   1      -2.129   5.191  13.130  0.00  0.00     0.043 C 
ATOM     14  H4  E90 d   1      -1.507   5.250  14.036  0.00  0.00     0.061 H 
ATOM     15  H5  E90 d   1      -1.986   4.212  12.650  0.00  0.00     0.061 H 
BRANCH  13  16
ATOM     16  S7  E90 d   1      -1.594   6.500  11.964  0.00  0.00    -0.082 SA
BRANCH  16  17
ATOM     17  C2  E90 d   1      -1.418   7.833  13.018  0.00  0.00     0.188 A 
ATOM     18  N1  E90 d   1      -1.479   7.683  14.379  0.00  0.00    -0.235 NA
ATOM     19  C6  E90 d   1      -1.300   8.759  15.146  0.00  0.00     0.006 A 
ATOM     20  C5  E90 d   1      -0.981  10.009  14.559  0.00  0.00    -0.049 A 
ATOM     21  H3  E90 d   1      -1.399   8.677  16.222  0.00  0.00     0.114 H 
ATOM     22  C4  E90 d   1      -0.988  10.110  13.151  0.00  0.00     0.006 A 
ATOM     23  H2  E90 d   1      -0.738  10.866  15.176  0.00  0.00     0.087 H 
ATOM     24  N3  E90 d   1      -1.160   8.992  12.371  0.00  0.00    -0.235 NA
ATOM     25  H1  E90 d   1      -0.857  11.078  12.681  0.00  0.00     0.114 H 
ENDBRANCH  16  17
ENDBRANCH  13  16
ENDBRANCH  11  13
ENDBRANCH   1  11
BRANCH   4  26
ATOM     26  S17 E90 d   1      -5.947   0.867  16.839  0.00  0.00     0.256 S 
ATOM     27  O18 E90 d   1      -5.392   1.064  18.165  0.00  0.00    -0.201 OA
ATOM     28  O19 E90 d   1      -7.402   0.958  16.700  0.00  0.00    -0.201 OA
BRANCH  26  29
ATOM     29  N20 E90 d   1      -5.327  -0.512  16.225  0.00  0.00    -0.324 N 
ATOM     30  H10 E90 d   1      -5.569  -1.393  16.631  0.00  0.00     0.169 HD
ATOM     31  H11 E90 d   1      -4.706  -0.476  15.442  0.00  0.00     0.169 HD
ENDBRANCH  26  29
ENDBRANCH   4  26
TORSDOF 6
