REMARK  3 active torsions:
REMARK  status: ('A' for Active; 'I' for Inactive)
REMARK    1  A    between atoms: C8_8  and  C7_9 
REMARK    2  A    between atoms: C2_12  and  C1_16 
REMARK    3  A    between atoms: C1_16  and  O1_19 
ROOT
ATOM      1  C9  3S1 d   1      35.063  26.105  29.249  0.00  0.00    -0.071 A 
ATOM      2  C10 3S1 d   1      33.737  26.568  29.082  0.00  0.00    -0.066 A 
ATOM      3  C16 3S1 d   1      35.930  28.090  28.076  0.00  0.00    -0.061 A 
ATOM      4  C8  3S1 d   1      36.185  26.853  28.750  0.00  0.00    -0.025 A 
ATOM      5  C11 3S1 d   1      33.505  27.800  28.408  0.00  0.00     0.042 A 
ATOM      6  C15 3S1 d   1      34.607  28.576  27.900  0.00  0.00    -0.018 A 
ATOM      7  C14 3S1 d   1      34.359  29.863  27.201  0.00  0.00    -0.057 A 
ATOM      8  C13 3S1 d   1      33.084  30.287  27.058  0.00  0.00    -0.019 A 
ATOM      9  C12 3S1 d   1      32.112  28.324  28.217  0.00  0.00     0.256 A 
ATOM     10  N1  3S1 d   1      32.013  29.553  27.542  0.00  0.00    -0.333 N 
ATOM     11  O2  3S1 d   1      31.142  27.702  28.631  0.00  0.00    -0.267 OA
ATOM     12  H   3S1 d   1      35.238  25.162  29.767  0.00  0.00     0.084 H 
ATOM     13  H   3S1 d   1      32.899  25.986  29.466  0.00  0.00     0.085 H 
ATOM     14  H   3S1 d   1      36.768  28.671  27.690  0.00  0.00     0.086 H 
ATOM     15  H   3S1 d   1      35.188  30.453  26.811  0.00  0.00     0.086 H 
ATOM     16  H   3S1 d   1      32.893  31.231  26.548  0.00  0.00     0.111 H 
ATOM     17  H   3S1 d   1      31.078  29.935  27.397  0.00  0.00     0.168 HD
ENDROOT
BRANCH   4  18
ATOM     18  C7  3S1 d   1      37.592  26.379  28.918  0.00  0.00    -0.018 A 
ATOM     19  C6  3S1 d   1      38.479  27.203  29.715  0.00  0.00    -0.072 A 
ATOM     20  C5  3S1 d   1      39.833  26.847  29.936  0.00  0.00    -0.082 A 
ATOM     21  H   3S1 d   1      38.094  28.122  30.157  0.00  0.00     0.084 H 
ATOM     22  C4  3S1 d   1      40.346  25.658  29.370  0.00  0.00    -0.082 A 
ATOM     23  H   3S1 d   1      40.476  27.488  30.540  0.00  0.00     0.083 H 
ATOM     24  C3  3S1 d   1      39.513  24.822  28.582  0.00  0.00    -0.074 A 
ATOM     25  H   3S1 d   1      41.387  25.382  29.540  0.00  0.00     0.083 H 
ATOM     26  C2  3S1 d   1      38.138  25.153  28.335  0.00  0.00    -0.024 A 
ATOM     27  H   3S1 d   1      39.926  23.908  28.155  0.00  0.00     0.084 H 
BRANCH  26  28
ATOM     28  C1  3S1 d   1      37.358  24.179  27.469  0.00  0.00     0.041 C 
ATOM     29  H   3S1 d   1      38.053  23.509  26.963  0.00  0.00     0.081 H 
ATOM     30  H   3S1 d   1      36.780  24.735  26.731  0.00  0.00     0.081 H 
BRANCH  28  31
ATOM     31  O1  3S1 d   1      36.477  23.417  28.279  0.00  0.00    -0.396 OA
ATOM     32  H   3S1 d   1      35.987  22.803  27.727  0.00  0.00     0.209 HD
ENDBRANCH  28  31
ENDBRANCH  26  28
ENDBRANCH   4  18
TORSDOF 3
