REMARK  4 active torsions:
REMARK  status: ('A' for Active; 'I' for Inactive)
REMARK    1  A    between atoms: N01_1  and  C02_2 
REMARK    2  A    between atoms: C04_4  and  C26_26 
REMARK    3  A    between atoms: C05_5  and  C08_8 
REMARK    4  A    between atoms: C10_10  and  N20_20 
ROOT
ATOM      1  C08 SD5 d   1      23.721  13.474  21.022  0.00  0.00     0.092 A 
ATOM      2  C09 SD5 d   1      23.336  14.747  20.635  0.00  0.00    -0.009 A 
ATOM      3  C10 SD5 d   1      22.048  15.154  20.991  0.00  0.00     0.147 A 
ATOM      4  N11 SD5 d   1      21.230  14.354  21.673  0.00  0.00    -0.045 NA
ATOM      5  C12 SD5 d   1      21.691  13.140  22.007  0.00  0.00     0.727 A 
ATOM      6  N13 SD5 d   1      22.909  12.645  21.712  0.00  0.00    -0.062 NA
ATOM      7  N14 SD5 d   1      20.866  12.346  22.728  0.00  0.00    -0.210 N 
ATOM      8  C15 SD5 d   1      21.226  11.000  23.161  0.00  0.00     0.031 C 
ATOM      9  C16 SD5 d   1      20.661  10.743  24.533  0.00  0.00     0.035 C 
ATOM     10  O17 SD5 d   1      19.250  10.942  24.565  0.00  0.00    -0.388 OA
ATOM     11  C18 SD5 d   1      18.941  12.281  24.198  0.00  0.00     0.035 C 
ATOM     12  C19 SD5 d   1      19.420  12.593  22.809  0.00  0.00     0.031 C 
ATOM     13  H   SD5 d   1      24.007  15.401  20.078  0.00  0.00     0.093 H 
ATOM     14  H   SD5 d   1      22.312  10.908  23.193  0.00  0.00     0.068 H 
ATOM     15  H   SD5 d   1      20.818  10.273  22.459  0.00  0.00     0.068 H 
ATOM     16  H   SD5 d   1      21.123  11.440  25.232  0.00  0.00     0.076 H 
ATOM     17  H   SD5 d   1      20.869   9.708  24.803  0.00  0.00     0.076 H 
ATOM     18  H   SD5 d   1      19.439  12.955  24.895  0.00  0.00     0.076 H 
ATOM     19  H   SD5 d   1      17.859  12.407  24.227  0.00  0.00     0.076 H 
ATOM     20  H   SD5 d   1      18.900  11.957  22.092  0.00  0.00     0.068 H 
ATOM     21  H   SD5 d   1      19.215  13.638  22.578  0.00  0.00     0.068 H 
ENDROOT
BRANCH   1  22
ATOM     22  C05 SD5 d   1      25.078  12.935  20.716  0.00  0.00     0.026 A 
ATOM     23  C04 SD5 d   1      25.658  13.022  19.440  0.00  0.00     0.065 A 
ATOM     24  C03 SD5 d   1      26.948  12.540  19.242  0.00  0.00    -0.024 A 
ATOM     25  C02 SD5 d   1      27.655  11.981  20.300  0.00  0.00     0.121 A 
ATOM     26  H   SD5 d   1      27.405  12.601  18.255  0.00  0.00     0.090 H 
ATOM     27  N07 SD5 d   1      27.103  11.887  21.523  0.00  0.00    -0.243 NA
ATOM     28  C06 SD5 d   1      25.862  12.354  21.695  0.00  0.00     0.017 A 
ATOM     29  H   SD5 d   1      25.432  12.269  22.693  0.00  0.00     0.116 H 
BRANCH  23  30
ATOM     30  C26 SD5 d   1      24.964  13.630  18.251  0.00  0.00     0.418 C 
ATOM     31  F27 SD5 d   1      25.579  13.366  17.111  0.00  0.00    -0.166 F 
ATOM     32  F28 SD5 d   1      24.902  14.956  18.321  0.00  0.00    -0.166 F 
ATOM     33  F29 SD5 d   1      23.714  13.188  18.109  0.00  0.00    -0.166 F 
ENDBRANCH  23  30
BRANCH  25  34
ATOM     34  N01 SD5 d   1      28.916  11.525  20.150  0.00  0.00    -0.384 N 
ATOM     35  H   SD5 d   1      29.375  11.586  19.241  0.00  0.00     0.157 HD
ATOM     36  H   SD5 d   1      29.410  11.120  20.945  0.00  0.00     0.157 HD
ENDBRANCH  25  34
ENDBRANCH   1  22
BRANCH   3  37
ATOM     37  N20 SD5 d   1      21.567  16.392  20.660  0.00  0.00    -0.361 N 
ATOM     38  C21 SD5 d   1      20.165  16.778  20.863  0.00  0.00     0.016 C 
ATOM     39  C22 SD5 d   1      20.107  18.040  21.672  0.00  0.00     0.034 C 
ATOM     40  H   SD5 d   1      19.642  15.982  21.393  0.00  0.00     0.067 H 
ATOM     41  H   SD5 d   1      19.690  16.944  19.896  0.00  0.00     0.067 H 
ATOM     42  O23 SD5 d   1      20.856  19.083  21.064  0.00  0.00    -0.388 OA
ATOM     43  H   SD5 d   1      20.530  17.839  22.656  0.00  0.00     0.076 H 
ATOM     44  H   SD5 d   1      19.067  18.358  21.742  0.00  0.00     0.076 H 
ATOM     45  C24 SD5 d   1      22.224  18.705  20.985  0.00  0.00     0.034 C 
ATOM     46  C25 SD5 d   1      22.411  17.469  20.147  0.00  0.00     0.016 C 
ATOM     47  H   SD5 d   1      22.581  18.494  21.993  0.00  0.00     0.076 H 
ATOM     48  H   SD5 d   1      22.780  19.521  20.523  0.00  0.00     0.076 H 
ATOM     49  H   SD5 d   1      22.132  17.686  19.116  0.00  0.00     0.067 H 
ATOM     50  H   SD5 d   1      23.455  17.160  20.188  0.00  0.00     0.067 H 
ENDBRANCH   3  37
TORSDOF 4
