REMARK  5 active torsions:
REMARK  status: ('A' for Active; 'I' for Inactive)
REMARK    1  A    between atoms: C3_2  and  C2_3 
REMARK       I    between atoms: C3_2  and  N_9 
REMARK    2  A    between atoms: C2_3  and  C1_4 
REMARK    3  A    between atoms: C1_4  and  C_5 
REMARK    4  A    between atoms: C6_12  and  C9_15 
REMARK    5  A    between atoms: C10_17  and  C11_20 
ROOT
ATOM      1  O   3SE d   1      14.065  28.571   0.938  0.00  0.00    -0.273 OA
ATOM      2  C3  3SE d   1      13.815  28.981   2.064  0.00  0.00     0.220 C 
ATOM      3  N   3SE d   1      12.661  28.646   2.663  0.00  0.00    -0.352 N 
ATOM      4  C8  3SE d   1      12.458  29.115   4.087  0.00  0.00    -0.002 C 
ATOM      5  C7  3SE d   1      11.001  29.019   4.573  0.00  0.00    -0.040 C 
ATOM      6  C6  3SE d   1      10.415  27.703   4.039  0.00  0.00     0.015 C 
ATOM      7  C5  3SE d   1      10.344  27.778   2.510  0.00  0.00    -0.040 C 
ATOM      8  C4  3SE d   1      11.770  27.677   2.020  0.00  0.00    -0.002 C 
ATOM      9  H5  3SE d   1      12.777  30.166   4.155  0.00  0.00     0.064 H 
ATOM     10  H6  3SE d   1      13.085  28.498   4.748  0.00  0.00     0.064 H 
ATOM     11  H7  3SE d   1      10.421  29.871   4.188  0.00  0.00     0.036 H 
ATOM     12  H8  3SE d   1      10.972  29.023   5.673  0.00  0.00     0.036 H 
ATOM     13  H9  3SE d   1      11.015  26.843   4.370  0.00  0.00     0.053 H 
ATOM     14  H10 3SE d   1       9.899  28.733   2.195  0.00  0.00     0.036 H 
ATOM     15  H11 3SE d   1       9.744  26.945   2.114  0.00  0.00     0.036 H 
ATOM     16  H12 3SE d   1      12.143  26.664   2.230  0.00  0.00     0.064 H 
ATOM     17  H13 3SE d   1      11.782  27.855   0.934  0.00  0.00     0.064 H 
ENDROOT
BRANCH   6  18
ATOM     18  C9  3SE d   1       9.050  27.603   4.495  0.00  0.00     0.177 A 
ATOM     19  N2  3SE d   1       7.916  27.735   3.777  0.00  0.00    -0.202 NA
ATOM     20  C10 3SE d   1       6.955  27.650   4.662  0.00  0.00     0.215 A 
ATOM     21  N1  3SE d   1       7.417  27.449   5.889  0.00  0.00    -0.103 NA
ATOM     22  O1  3SE d   1       8.812  27.444   5.707  0.00  0.00    -0.195 OA
BRANCH  20  23
ATOM     23  C11 3SE d   1       5.607  27.712   4.226  0.00  0.00     0.147 A 
ATOM     24  S   3SE d   1       4.278  27.673   5.268  0.00  0.00    -0.077 SA
ATOM     25  C13 3SE d   1       3.049  27.834   4.036  0.00  0.00    -0.026 A 
ATOM     26  C12 3SE d   1       3.796  27.958   2.860  0.00  0.00     0.010 A 
ATOM     27  H14 3SE d   1       1.966  27.837   4.155  0.00  0.00     0.097 H 
ATOM     28  N3  3SE d   1       5.181  27.886   2.969  0.00  0.00    -0.249 NA
ATOM     29  H15 3SE d   1       3.312  28.105   1.896  0.00  0.00     0.115 H 
ENDBRANCH  20  23
ENDBRANCH   6  18
BRANCH   2  30
ATOM     30  C2  3SE d   1      14.851  29.792   2.836  0.00  0.00     0.017 C 
ATOM     31  H1  3SE d   1      14.682  29.599   3.905  0.00  0.00     0.047 H 
ATOM     32  H2  3SE d   1      14.658  30.853   2.620  0.00  0.00     0.047 H 
BRANCH  30  33
ATOM     33  C1  3SE d   1      16.398  29.530   2.551  0.00  0.00     0.034 C 
ATOM     34  H3  3SE d   1      16.523  28.537   2.094  0.00  0.00     0.046 H 
ATOM     35  H4  3SE d   1      16.957  29.571   3.498  0.00  0.00     0.046 H 
BRANCH  33  36
ATOM     36  C   3SE d   1      16.928  30.591   1.606  0.00  0.00     0.388 C 
ATOM     37  F2  3SE d   1      16.172  30.434   0.531  0.00  0.00    -0.171 F 
ATOM     38  F1  3SE d   1      18.123  30.425   1.111  0.00  0.00    -0.171 F 
ATOM     39  F   3SE d   1      16.825  31.810   2.151  0.00  0.00    -0.171 F 
ENDBRANCH  33  36
ENDBRANCH  30  33
ENDBRANCH   2  30
TORSDOF 5
