REMARK  19 active torsions:
REMARK  status: ('A' for Active; 'I' for Inactive)
REMARK    1  A    between atoms: C5_2  and  C6_3 
REMARK    2  A    between atoms: C41_7  and  C3_6 
REMARK       I    between atoms: N7_11  and  C41_7 
REMARK    3  A    between atoms: C10_10  and  C8_9 
REMARK    4  A    between atoms: C8_9  and  N7_11 
REMARK    5  A    between atoms: C8_9  and  C9_12 
REMARK       I    between atoms: N13_22  and  C10_10 
REMARK    6  A    between atoms: C9_12  and  C33_13 
REMARK       I    between atoms: C33_13  and  N34_15 
REMARK    7  A    between atoms: N34_15  and  C36_16 
REMARK    8  A    between atoms: C36_16  and  C37_17 
REMARK    9  A    between atoms: C37_17  and  C40_18 
REMARK   10  A    between atoms: C37_17  and  C38_19 
REMARK   11  A    between atoms: C37_17  and  C39_20 
REMARK   12  A    between atoms: C12_23  and  N13_22 
REMARK   13  A    between atoms: C15_24  and  C12_23 
REMARK   14  A    between atoms: C12_23  and  C14_26 
REMARK       I    between atoms: N16_39  and  C15_24 
REMARK   15  A    between atoms: C14_26  and  C17_27 
REMARK   16  A    between atoms: C17_27  and  C18_28 
REMARK   17  A    between atoms: C20_34  and  C21_35 
REMARK   18  A    between atoms: C20_34  and  N16_39 
REMARK   19  A    between atoms: C24_37  and  C27_41 
ROOT
ATOM      1  C10 3SD d   1      11.053-136.240  18.166  0.00  0.00     0.241 C 
ATOM      2  O11 3SD d   1      11.724-135.219  18.044  0.00  0.00    -0.271 OA
ATOM      3  N13 3SD d   1      11.066-137.237  17.298  0.00  0.00    -0.346 N 
ATOM      4  H   3SD d   1      10.465-138.044  17.466  0.00  0.00     0.163 HD
ENDROOT
BRANCH   3   5
ATOM      5  C12 3SD d   1      11.910-137.224  16.108  0.00  0.00     0.089 C 
ATOM      6  H   3SD d   1      12.698-136.474  16.181  0.00  0.00     0.087 H 
BRANCH   5   7
ATOM      7  C15 3SD d   1      10.979-136.941  14.931  0.00  0.00     0.240 C 
ATOM      8  O19 3SD d   1       9.829-137.372  14.901  0.00  0.00    -0.271 OA
ATOM      9  N16 3SD d   1      11.481-136.184  13.976  0.00  0.00    -0.355 N 
ATOM     10  H   3SD d   1      12.431-135.823  14.057  0.00  0.00     0.162 HD
BRANCH   9  11
ATOM     11  C20 3SD d   1      10.678-135.864  12.806  0.00  0.00     0.019 C 
ATOM     12  H   3SD d   1      11.335-135.786  11.940  0.00  0.00     0.071 H 
ATOM     13  H   3SD d   1       9.938-136.651  12.662  0.00  0.00     0.071 H 
BRANCH  11  14
ATOM     14  C21 3SD d   1       9.955-134.540  12.993  0.00  0.00    -0.041 A 
ATOM     15  C22 3SD d   1      10.465-133.402  12.392  0.00  0.00    -0.075 A 
ATOM     16  C23 3SD d   1       9.808-132.187  12.548  0.00  0.00    -0.077 A 
ATOM     17  H   3SD d   1      11.378-133.458  11.799  0.00  0.00     0.084 H 
ATOM     18  C24 3SD d   1       8.643-132.118  13.290  0.00  0.00    -0.062 A 
ATOM     19  H   3SD d   1      10.212-131.287  12.085  0.00  0.00     0.084 H 
ATOM     20  C25 3SD d   1       8.132-133.262  13.880  0.00  0.00    -0.077 A 
ATOM     21  C26 3SD d   1       8.786-134.476  13.733  0.00  0.00    -0.075 A 
ATOM     22  H   3SD d   1       7.212-133.208  14.462  0.00  0.00     0.084 H 
ATOM     23  H   3SD d   1       8.382-135.375  14.198  0.00  0.00     0.084 H 
BRANCH  18  24
ATOM     24  C27 3SD d   1       7.923-130.777  13.441  0.00  0.00    -0.051 C 
ATOM     25  H   3SD d   1       8.590-130.060  13.920  0.00  0.00     0.033 H 
ATOM     26  H   3SD d   1       7.637-130.407  12.457  0.00  0.00     0.033 H 
ATOM     27  H   3SD d   1       7.031-130.912  14.053  0.00  0.00     0.033 H 
ENDBRANCH  18  24
ENDBRANCH  11  14
ENDBRANCH   9  11
ENDBRANCH   5   7
BRANCH   5  28
ATOM     28  C14 3SD d   1      12.573-138.582  15.933  0.00  0.00    -0.034 C 
ATOM     29  H   3SD d   1      13.227-138.556  15.062  0.00  0.00     0.037 H 
ATOM     30  H   3SD d   1      11.806-139.344  15.792  0.00  0.00     0.037 H 
BRANCH  28  31
ATOM     31  C17 3SD d   1      13.389-138.912  17.165  0.00  0.00    -0.039 C 
ATOM     32  H   3SD d   1      13.769-139.929  17.069  0.00  0.00     0.040 H 
ATOM     33  H   3SD d   1      12.751-138.812  18.043  0.00  0.00     0.040 H 
BRANCH  31  34
ATOM     34  C18 3SD d   1      14.574-137.960  17.312  0.00  0.00    -0.058 A 
ATOM     35  C28 3SD d   1      15.505-137.829  16.272  0.00  0.00    -0.077 A 
ATOM     36  C29 3SD d   1      16.603-136.972  16.402  0.00  0.00    -0.082 A 
ATOM     37  H   3SD d   1      15.372-138.400  15.353  0.00  0.00     0.084 H 
ATOM     38  C30 3SD d   1      16.759-136.248  17.580  0.00  0.00    -0.083 A 
ATOM     39  H   3SD d   1      17.326-136.873  15.592  0.00  0.00     0.083 H 
ATOM     40  C31 3SD d   1      15.827-136.373  18.621  0.00  0.00    -0.082 A 
ATOM     41  H   3SD d   1      17.612-135.579  17.695  0.00  0.00     0.083 H 
ATOM     42  C32 3SD d   1      14.731-137.234  18.493  0.00  0.00    -0.077 A 
ATOM     43  H   3SD d   1      15.957-135.795  19.536  0.00  0.00     0.083 H 
ATOM     44  H   3SD d   1      14.010-137.336  19.304  0.00  0.00     0.084 H 
ENDBRANCH  31  34
ENDBRANCH  28  31
ENDBRANCH   5  28
ENDBRANCH   3   5
BRANCH   1  45
ATOM     45  C8  3SD d   1      10.020-136.407  19.265  0.00  0.00     0.097 C 
ATOM     46  H   3SD d   1       9.730-137.451  19.383  0.00  0.00     0.088 H 
BRANCH  45  47
ATOM     47  N7  3SD d   1      10.519-136.010  20.587  0.00  0.00    -0.342 N 
ATOM     48  C41 3SD d   1      11.334-136.786  21.292  0.00  0.00     0.273 C 
ATOM     49  O42 3SD d   1      11.775-137.860  20.898  0.00  0.00    -0.266 OA
ATOM     50  H   3SD d   1      10.231-135.112  20.976  0.00  0.00     0.163 HD
BRANCH  48  51
ATOM     51  C3  3SD d   1      11.777-136.257  22.655  0.00  0.00     0.154 A 
ATOM     52  C4  3SD d   1      12.336-137.034  23.598  0.00  0.00    -0.017 A 
ATOM     53  C5  3SD d   1      12.609-136.245  24.644  0.00  0.00     0.077 A 
ATOM     54  H   3SD d   1      12.530-138.104  23.525  0.00  0.00     0.091 H 
ATOM     55  O1  3SD d   1      12.224-134.952  24.375  0.00  0.00    -0.218 OA
ATOM     56  N2  3SD d   1      11.681-134.987  23.052  0.00  0.00    -0.123 NA
BRANCH  53  57
ATOM     57  C6  3SD d   1      13.245-136.712  25.953  0.00  0.00    -0.029 C 
ATOM     58  H   3SD d   1      12.609-137.467  26.416  0.00  0.00     0.036 H 
ATOM     59  H   3SD d   1      14.226-137.139  25.747  0.00  0.00     0.036 H 
ATOM     60  H   3SD d   1      13.352-135.862  26.627  0.00  0.00     0.036 H 
ENDBRANCH  53  57
ENDBRANCH  48  51
ENDBRANCH  45  47
BRANCH  45  61
ATOM     61  C9  3SD d   1       8.884-135.504  18.830  0.00  0.00     0.036 C 
ATOM     62  H   3SD d   1       8.670-135.738  17.787  0.00  0.00     0.051 H 
ATOM     63  H   3SD d   1       9.207-134.477  19.003  0.00  0.00     0.051 H 
BRANCH  61  64
ATOM     64  C33 3SD d   1       7.601-135.702  19.601  0.00  0.00     0.220 C 
ATOM     65  O35 3SD d   1       7.381-136.753  20.213  0.00  0.00    -0.274 OA
ATOM     66  N34 3SD d   1       6.786-134.644  19.507  0.00  0.00    -0.360 N 
ATOM     67  H   3SD d   1       7.108-133.848  18.956  0.00  0.00     0.162 HD
BRANCH  66  68
ATOM     68  C36 3SD d   1       5.457-134.543  20.141  0.00  0.00     0.001 C 
ATOM     69  H   3SD d   1       5.457-133.696  20.827  0.00  0.00     0.065 H 
ATOM     70  H   3SD d   1       5.250-135.470  20.675  0.00  0.00     0.065 H 
BRANCH  68  71
ATOM     71  C37 3SD d   1       4.361-134.324  19.076  0.00  0.00    -0.035 C 
BRANCH  71  72
ATOM     72  C40 3SD d   1       4.289-135.530  18.142  0.00  0.00    -0.068 C 
ATOM     73  H   3SD d   1       5.250-135.661  17.645  0.00  0.00     0.028 H 
ATOM     74  H   3SD d   1       4.053-136.423  18.721  0.00  0.00     0.028 H 
ATOM     75  H   3SD d   1       3.513-135.364  17.395  0.00  0.00     0.028 H 
ENDBRANCH  71  72
BRANCH  71  76
ATOM     76  C38 3SD d   1       3.006-134.133  19.753  0.00  0.00    -0.068 C 
ATOM     77  H   3SD d   1       2.766-135.020  20.339  0.00  0.00     0.028 H 
ATOM     78  H   3SD d   1       3.048-133.263  20.409  0.00  0.00     0.028 H 
ATOM     79  H   3SD d   1       2.240-133.979  18.993  0.00  0.00     0.028 H 
ENDBRANCH  71  76
BRANCH  71  80
ATOM     80  C39 3SD d   1       4.654-133.080  18.244  0.00  0.00    -0.068 C 
ATOM     81  H   3SD d   1       4.689-132.208  18.897  0.00  0.00     0.028 H 
ATOM     82  H   3SD d   1       5.614-133.198  17.741  0.00  0.00     0.028 H 
ATOM     83  H   3SD d   1       3.867-132.948  17.501  0.00  0.00     0.028 H 
ENDBRANCH  71  80
ENDBRANCH  68  71
ENDBRANCH  66  68
ENDBRANCH  61  64
ENDBRANCH  45  61
ENDBRANCH   1  45
TORSDOF 19
