REMARK  18 active torsions:
REMARK  status: ('A' for Active; 'I' for Inactive)
REMARK    1  A    between atoms: C28_2  and  C35_3 
REMARK    2  A    between atoms: C33_7  and  C31_6 
REMARK       I    between atoms: N4_21  and  C33_7 
REMARK    3  A    between atoms: C5_9  and  C3_20 
REMARK       I    between atoms: N8_23  and  C5_9 
REMARK    4  A    between atoms: C40_11  and  C41_10 
REMARK    5  A    between atoms: C40_11  and  C42_12 
REMARK    6  A    between atoms: C40_11  and  C43_13 
REMARK    7  A    between atoms: C37_14  and  C40_11 
REMARK    8  A    between atoms: C2_19  and  C1_18 
REMARK    9  A    between atoms: C3_20  and  C2_19 
REMARK   10  A    between atoms: C3_20  and  N4_21 
REMARK   11  A    between atoms: C7_24  and  N8_23 
REMARK   12  A    between atoms: C10_25  and  C7_24 
REMARK   13  A    between atoms: C7_24  and  C9_27 
REMARK       I    between atoms: N11_40  and  C10_25 
REMARK   14  A    between atoms: C9_27  and  C12_28 
REMARK   15  A    between atoms: C12_28  and  C13_29 
REMARK   16  A    between atoms: C15_35  and  C16_36 
REMARK   17  A    between atoms: C15_35  and  N11_40 
REMARK   18  A    between atoms: C19_38  and  C22_42 
ROOT
ATOM      1  C5  P3N d   1      11.131-136.710  18.999  0.00  0.00     0.241 C 
ATOM      2  O6  P3N d   1      11.821-135.697  18.966  0.00  0.00    -0.271 OA
ATOM      3  N8  P3N d   1      11.066-137.601  18.011  0.00  0.00    -0.346 N 
ATOM      4  H   P3N d   1      10.466-138.417  18.131  0.00  0.00     0.163 HD
ENDROOT
BRANCH   3   5
ATOM      5  C7  P3N d   1      11.821-137.464  16.752  0.00  0.00     0.089 C 
ATOM      6  H   P3N d   1      12.532-136.645  16.863  0.00  0.00     0.087 H 
BRANCH   5   7
ATOM      7  C10 P3N d   1      10.853-137.200  15.611  0.00  0.00     0.240 C 
ATOM      8  O14 P3N d   1       9.724-137.675  15.618  0.00  0.00    -0.271 OA
ATOM      9  N11 P3N d   1      11.334-136.465  14.621  0.00  0.00    -0.355 N 
ATOM     10  H   P3N d   1      12.289-136.112  14.679  0.00  0.00     0.162 HD
BRANCH   9  11
ATOM     11  C15 P3N d   1      10.526-136.150  13.448  0.00  0.00     0.019 C 
ATOM     12  H   P3N d   1      11.182-136.083  12.580  0.00  0.00     0.071 H 
ATOM     13  H   P3N d   1       9.781-136.935  13.316  0.00  0.00     0.071 H 
BRANCH  11  14
ATOM     14  C16 P3N d   1       9.804-134.812  13.622  0.00  0.00    -0.041 A 
ATOM     15  C17 P3N d   1       8.662-134.712  14.408  0.00  0.00    -0.075 A 
ATOM     16  C18 P3N d   1       8.031-133.478  14.535  0.00  0.00    -0.077 A 
ATOM     17  H   P3N d   1       8.265-135.589  14.919  0.00  0.00     0.084 H 
ATOM     18  C19 P3N d   1       8.531-132.362  13.874  0.00  0.00    -0.062 A 
ATOM     19  H   P3N d   1       7.140-133.386  15.156  0.00  0.00     0.084 H 
ATOM     20  C20 P3N d   1       9.666-132.464  13.091  0.00  0.00    -0.077 A 
ATOM     21  C21 P3N d   1      10.299-133.693  12.962  0.00  0.00    -0.075 A 
ATOM     22  H   P3N d   1      10.061-131.586  12.579  0.00  0.00     0.084 H 
ATOM     23  H   P3N d   1      11.189-133.781  12.339  0.00  0.00     0.084 H 
BRANCH  18  24
ATOM     24  C22 P3N d   1       7.845-131.007  14.005  0.00  0.00    -0.051 C 
ATOM     25  H   P3N d   1       6.820-131.083  13.641  0.00  0.00     0.033 H 
ATOM     26  H   P3N d   1       7.839-130.704  15.052  0.00  0.00     0.033 H 
ATOM     27  H   P3N d   1       8.387-130.268  13.415  0.00  0.00     0.033 H 
ENDBRANCH  18  24
ENDBRANCH  11  14
ENDBRANCH   9  11
ENDBRANCH   5   7
BRANCH   5  28
ATOM     28  C9  P3N d   1      12.550-138.761  16.437  0.00  0.00    -0.034 C 
ATOM     29  H   P3N d   1      13.205-138.587  15.583  0.00  0.00     0.037 H 
ATOM     30  H   P3N d   1      11.806-139.530  16.227  0.00  0.00     0.037 H 
BRANCH  28  31
ATOM     31  C12 P3N d   1      13.399-139.226  17.601  0.00  0.00    -0.039 C 
ATOM     32  H   P3N d   1      13.702-140.259  17.427  0.00  0.00     0.040 H 
ATOM     33  H   P3N d   1      12.815-139.147  18.518  0.00  0.00     0.040 H 
BRANCH  31  34
ATOM     34  C13 P3N d   1      14.645-138.362  17.733  0.00  0.00    -0.058 A 
ATOM     35  C23 P3N d   1      15.512-138.209  16.651  0.00  0.00    -0.077 A 
ATOM     36  C24 P3N d   1      16.662-137.426  16.769  0.00  0.00    -0.082 A 
ATOM     37  H   P3N d   1      15.290-138.705  15.706  0.00  0.00     0.084 H 
ATOM     38  C25 P3N d   1      16.933-136.786  17.974  0.00  0.00    -0.083 A 
ATOM     39  H   P3N d   1      17.342-137.317  15.924  0.00  0.00     0.083 H 
ATOM     40  C26 P3N d   1      16.059-136.930  19.058  0.00  0.00    -0.082 A 
ATOM     41  H   P3N d   1      17.828-136.171  18.074  0.00  0.00     0.083 H 
ATOM     42  C27 P3N d   1      14.914-137.723  18.937  0.00  0.00    -0.077 A 
ATOM     43  H   P3N d   1      16.272-136.423  19.999  0.00  0.00     0.083 H 
ATOM     44  H   P3N d   1      14.236-137.839  19.783  0.00  0.00     0.084 H 
ENDBRANCH  31  34
ENDBRANCH  28  31
ENDBRANCH   5  28
ENDBRANCH   3   5
BRANCH   1  45
ATOM     45  C3  P3N d   1      10.290-137.053  20.222  0.00  0.00     0.096 C 
ATOM     46  H   P3N d   1      10.297-138.142  20.274  0.00  0.00     0.088 H 
BRANCH  45  47
ATOM     47  C2  P3N d   1       8.884-136.519  20.083  0.00  0.00     0.025 C 
ATOM     48  H   P3N d   1       8.878-135.435  20.196  0.00  0.00     0.049 H 
ATOM     49  H   P3N d   1       8.486-136.753  19.096  0.00  0.00     0.049 H 
BRANCH  47  50
ATOM     50  C1  P3N d   1       8.027-137.170  21.168  0.00  0.00     0.175 A 
ATOM     51  N36 P3N d   1       8.240-137.299  22.494  0.00  0.00    -0.208 NA
ATOM     52  C37 P3N d   1       7.197-137.957  23.021  0.00  0.00     0.163 A 
ATOM     53  N38 P3N d   1       6.324-138.258  22.063  0.00  0.00    -0.110 NA
ATOM     54  O39 P3N d   1       6.848-137.757  20.850  0.00  0.00    -0.196 OA
BRANCH  52  55
ATOM     55  C40 P3N d   1       6.991-138.347  24.506  0.00  0.00     0.013 C 
BRANCH  55  56
ATOM     56  C41 P3N d   1       6.328-137.189  25.245  0.00  0.00    -0.063 C 
ATOM     57  H   P3N d   1       5.376-136.953  24.769  0.00  0.00     0.029 H 
ATOM     58  H   P3N d   1       6.155-137.473  26.283  0.00  0.00     0.029 H 
ATOM     59  H   P3N d   1       6.980-136.316  25.209  0.00  0.00     0.029 H 
ENDBRANCH  55  56
BRANCH  55  60
ATOM     60  C42 P3N d   1       6.064-139.566  24.564  0.00  0.00    -0.063 C 
ATOM     61  H   P3N d   1       5.893-139.841  25.605  0.00  0.00     0.029 H 
ATOM     62  H   P3N d   1       5.113-139.321  24.090  0.00  0.00     0.029 H 
ATOM     63  H   P3N d   1       6.529-140.400  24.038  0.00  0.00     0.029 H 
ENDBRANCH  55  60
BRANCH  55  64
ATOM     64  C43 P3N d   1       8.339-138.715  25.133  0.00  0.00    -0.063 C 
ATOM     65  H   P3N d   1       9.005-137.853  25.092  0.00  0.00     0.029 H 
ATOM     66  H   P3N d   1       8.187-139.010  26.171  0.00  0.00     0.029 H 
ATOM     67  H   P3N d   1       8.781-139.544  24.580  0.00  0.00     0.029 H 
ENDBRANCH  55  64
ENDBRANCH  52  55
ENDBRANCH  47  50
ENDBRANCH  45  47
BRANCH  45  68
ATOM     68  N4  P3N d   1      10.839-136.502  21.472  0.00  0.00    -0.342 N 
ATOM     69  C33 P3N d   1      11.811-137.092  22.166  0.00  0.00     0.273 C 
ATOM     70  O34 P3N d   1      12.384-138.127  21.822  0.00  0.00    -0.266 OA
ATOM     71  H   P3N d   1      10.456-135.625  21.824  0.00  0.00     0.163 HD
BRANCH  69  72
ATOM     72  C31 P3N d   1      12.191-136.395  23.477  0.00  0.00     0.154 A 
ATOM     73  C32 P3N d   1      13.076-136.870  24.370  0.00  0.00    -0.017 A 
ATOM     74  C28 P3N d   1      13.125-135.994  25.379  0.00  0.00     0.077 A 
ATOM     75  H   P3N d   1      13.646-137.795  24.287  0.00  0.00     0.091 H 
ATOM     76  O29 P3N d   1      12.261-134.957  25.140  0.00  0.00    -0.218 OA
ATOM     77  N30 P3N d   1      11.660-135.244  23.889  0.00  0.00    -0.123 NA
BRANCH  74  78
ATOM     78  C35 P3N d   1      14.010-136.121  26.626  0.00  0.00    -0.029 C 
ATOM     79  H   P3N d   1      13.757-137.038  27.158  0.00  0.00     0.036 H 
ATOM     80  H   P3N d   1      15.057-136.151  26.325  0.00  0.00     0.036 H 
ATOM     81  H   P3N d   1      13.843-135.263  27.278  0.00  0.00     0.036 H 
ENDBRANCH  74  78
ENDBRANCH  69  72
ENDBRANCH  45  68
ENDBRANCH   1  45
TORSDOF 18
