REMARK  5 active torsions:
REMARK  status: ('A' for Active; 'I' for Inactive)
REMARK       I    between atoms: C14_22  and  N1_3 
REMARK       I    between atoms: N2_8  and  C5_13 
REMARK    1  A    between atoms: C6_14  and  N3_11 
REMARK    2  A    between atoms: C5_13  and  C6_14 
REMARK    3  A    between atoms: C6_14  and  C7_15 
REMARK    4  A    between atoms: C7_15  and  C8_16 
REMARK    5  A    between atoms: C15_23  and  C14_22 
ROOT
ATOM      1  C1  0DI d   1      10.080  13.035 -25.963  0.00  0.00     0.013 C 
ATOM      2  N1  0DI d   1      10.938  14.227 -26.228  0.00  0.00    -0.345 N 
ATOM      3  O1  0DI d   1       6.776  15.773 -24.188  0.00  0.00    -0.271 OA
ATOM      4  C2  0DI d   1       9.297  13.178 -24.641  0.00  0.00     0.013 C 
ATOM      5  N2  0DI d   1       8.606  14.503 -24.579  0.00  0.00    -0.347 N 
ATOM      6  O2  0DI d   1      12.959  15.249 -26.597  0.00  0.00    -0.267 OA
ATOM      7  C3  0DI d   1       9.482  15.660 -24.924  0.00  0.00     0.013 C 
ATOM      8  C4  0DI d   1      10.173  15.492 -26.297  0.00  0.00     0.013 C 
ATOM      9  C5  0DI d   1       7.300  14.649 -24.202  0.00  0.00     0.250 C 
ATOM     10  C14 0DI d   1      12.302  14.230 -26.364  0.00  0.00     0.257 C 
ATOM     11  H1  0DI d   1      10.719  12.142 -25.904  0.00  0.00     0.066 H 
ATOM     12  H2  0DI d   1       9.364  12.920 -26.790  0.00  0.00     0.066 H 
ATOM     13  H3  0DI d   1       9.996  13.095 -23.796  0.00  0.00     0.066 H 
ATOM     14  H4  0DI d   1       8.547  12.376 -24.576  0.00  0.00     0.066 H 
ATOM     15  H5  0DI d   1      10.257  15.759 -24.149  0.00  0.00     0.066 H 
ATOM     16  H6  0DI d   1       8.868  16.572 -24.948  0.00  0.00     0.066 H 
ATOM     17  H10 0DI d   1       9.421  15.438 -27.098  0.00  0.00     0.066 H 
ATOM     18  H11 0DI d   1      10.851  16.337 -26.487  0.00  0.00     0.066 H 
ENDROOT
BRANCH   9  19
ATOM     19  C6  0DI d   1       6.374  13.474 -23.780  0.00  0.00     0.179 C 
ATOM     20  H12 0DI d   1       6.561  12.662 -24.499  0.00  0.00     0.099 H 
BRANCH  19  21
ATOM     21  N3  0DI d   1       4.931  13.772 -23.881  0.00  0.00    -0.066 N 
ATOM     22  H7  0DI d   1       4.400  12.965 -23.592  0.00  0.00     0.275 HD
ATOM     23  H8  0DI d   1       4.701  14.001 -24.835  0.00  0.00     0.275 HD
ATOM     24  H9  0DI d   1       4.707  14.553 -23.285  0.00  0.00     0.275 HD
ENDBRANCH  19  21
BRANCH  19  25
ATOM     25  C7  0DI d   1       6.792  12.930 -22.385  0.00  0.00    -0.006 C 
ATOM     26  H13 0DI d   1       7.891  12.930 -22.334  0.00  0.00     0.043 H 
ATOM     27  H14 0DI d   1       6.421  11.899 -22.295  0.00  0.00     0.043 H 
BRANCH  25  28
ATOM     28  C8  0DI d   1       6.265  13.725 -21.204  0.00  0.00    -0.054 A 
ATOM     29  C9  0DI d   1       6.933  14.927 -20.829  0.00  0.00    -0.056 A 
ATOM     30  C10 0DI d   1       6.429  15.718 -19.771  0.00  0.00     0.034 A 
ATOM     31  H15 0DI d   1       7.829  15.235 -21.356  0.00  0.00     0.086 H 
ATOM     32 CL1  0DI d   1       7.211  17.219 -19.419  0.00  0.00    -0.084 Cl
ATOM     33  C11 0DI d   1       5.337  15.255 -19.002  0.00  0.00    -0.062 A 
ATOM     34  C12 0DI d   1       4.706  14.040 -19.340  0.00  0.00    -0.081 A 
ATOM     35  H16 0DI d   1       4.986  15.832 -18.155  0.00  0.00     0.086 H 
ATOM     36  C13 0DI d   1       5.145  13.281 -20.455  0.00  0.00    -0.077 A 
ATOM     37  H17 0DI d   1       3.876  13.682 -18.741  0.00  0.00     0.083 H 
ATOM     38  H18 0DI d   1       4.629  12.369 -20.733  0.00  0.00     0.084 H 
ENDBRANCH  25  28
ENDBRANCH  19  25
ENDBRANCH   9  19
BRANCH  10  39
ATOM     39  C15 0DI d   1      13.087  12.952 -26.277  0.00  0.00     0.073 A 
ATOM     40  C16 0DI d   1      13.598  12.367 -27.458  0.00  0.00     0.132 A 
ATOM     41  F2  0DI d   1      13.345  12.950 -28.650  0.00  0.00    -0.205 F 
ATOM     42  C17 0DI d   1      14.364  11.178 -27.412  0.00  0.00    -0.042 A 
ATOM     43  C18 0DI d   1      14.596  10.565 -26.167  0.00  0.00    -0.043 A 
ATOM     44  H19 0DI d   1      14.766  10.746 -28.322  0.00  0.00     0.088 H 
ATOM     45  C19 0DI d   1      14.116  11.157 -24.975  0.00  0.00     0.117 A 
ATOM     46  H20 0DI d   1      15.146   9.632 -26.121  0.00  0.00     0.088 H 
ATOM     47  F1  0DI d   1      14.395  10.563 -23.787  0.00  0.00    -0.206 F 
ATOM     48  C20 0DI d   1      13.359  12.355 -25.015  0.00  0.00    -0.027 A 
ATOM     49  H21 0DI d   1      12.994  12.808 -24.100  0.00  0.00     0.089 H 
ENDBRANCH  10  39
TORSDOF 5
