REMARK  4 active torsions:
REMARK  status: ('A' for Active; 'I' for Inactive)
REMARK    1  A    between atoms: N1_1  and  C2_2 
REMARK    2  A    between atoms: C2_2  and  C3_3 
REMARK    3  A    between atoms: C2_2  and  C12_12 
REMARK    4  A    between atoms: C3_3  and  C4_4 
REMARK       I    between atoms: C12_12  and  N14_14 
ROOT
ATOM      1  C2  1DI d   1       7.017  13.291 -23.300  0.00  0.00     0.179 C 
ATOM      2  H   1DI d   1       7.106  12.364 -23.867  0.00  0.00     0.099 H 
ENDROOT
BRANCH   1   3
ATOM      3  N1  1DI d   1       5.570  13.605 -23.318  0.00  0.00    -0.066 N 
ATOM      4  H   1DI d   1       5.057  12.866 -22.838  0.00  0.00     0.275 HD
ATOM      5  H   1DI d   1       5.410  14.494 -22.845  0.00  0.00     0.275 HD
ATOM      6  H   1DI d   1       5.250  13.670 -24.284  0.00  0.00     0.275 HD
ENDBRANCH   1   3
BRANCH   1   7
ATOM      7  C3  1DI d   1       7.553  13.063 -21.831  0.00  0.00    -0.005 C 
ATOM      8  H   1DI d   1       8.636  12.962 -21.906  0.00  0.00     0.044 H 
ATOM      9  H   1DI d   1       7.029  12.191 -21.440  0.00  0.00     0.044 H 
BRANCH   7  10
ATOM     10  C4  1DI d   1       7.284  14.225 -20.838  0.00  0.00    -0.034 A 
ATOM     11  C5  1DI d   1       8.298  15.269 -20.697  0.00  0.00    -0.074 A 
ATOM     12  C6  1DI d   1       8.101  16.373 -19.798  0.00  0.00    -0.061 A 
ATOM     13  H   1DI d   1       9.216  15.209 -21.282  0.00  0.00     0.084 H 
ATOM     14  C7  1DI d   1       6.890  16.454 -19.024  0.00  0.00     0.035 A 
ATOM     15  H   1DI d   1       8.865  17.145 -19.703  0.00  0.00     0.086 H 
ATOM     16 CL8  1DI d   1       6.646  17.786 -17.939  0.00  0.00    -0.084 Cl
ATOM     17  C9  1DI d   1       5.876  15.432 -19.143  0.00  0.00    -0.040 A 
ATOM     18  C10 1DI d   1       6.053  14.317 -20.038  0.00  0.00     0.042 A 
ATOM     19  H   1DI d   1       4.966  15.505 -18.548  0.00  0.00     0.088 H 
ATOM     20 CL11 1DI d   1       4.760  13.127 -20.114  0.00  0.00    -0.084 Cl
ENDBRANCH   7  10
ENDBRANCH   1   7
BRANCH   1  21
ATOM     21  C12 1DI d   1       7.894  14.355 -24.007  0.00  0.00     0.251 C 
ATOM     22  O13 1DI d   1       7.422  15.490 -23.973  0.00  0.00    -0.271 OA
ATOM     23  N14 1DI d   1       9.137  14.128 -24.639  0.00  0.00    -0.342 N 
ATOM     24  C15 1DI d   1       9.720  12.759 -24.704  0.00  0.00     0.022 C 
ATOM     25  C22 1DI d   1       9.954  15.227 -25.219  0.00  0.00     0.022 C 
ATOM     26  C16 1DI d   1      10.933  13.023 -25.575  0.00  0.00    -0.032 A 
ATOM     27  H   1DI d   1       9.042  12.002 -25.098  0.00  0.00     0.071 H 
ATOM     28  H   1DI d   1       9.953  12.325 -23.732  0.00  0.00     0.071 H 
ATOM     29  C17 1DI d   1      11.882  12.066 -26.089  0.00  0.00    -0.075 A 
ATOM     30  C21 1DI d   1      11.065  14.418 -25.869  0.00  0.00    -0.032 A 
ATOM     31  C18 1DI d   1      12.979  12.536 -26.913  0.00  0.00    -0.082 A 
ATOM     32  H   1DI d   1      11.776  11.005 -25.861  0.00  0.00     0.084 H 
ATOM     33  C19 1DI d   1      13.117  13.948 -27.215  0.00  0.00    -0.082 A 
ATOM     34  H   1DI d   1      13.704  11.824 -27.308  0.00  0.00     0.083 H 
ATOM     35  C20 1DI d   1      12.156  14.904 -26.692  0.00  0.00    -0.075 A 
ATOM     36  H   1DI d   1      13.944  14.293 -27.836  0.00  0.00     0.083 H 
ATOM     37  H   1DI d   1      12.253  15.967 -26.914  0.00  0.00     0.084 H 
ATOM     38  H   1DI d   1      10.299  15.962 -24.492  0.00  0.00     0.071 H 
ATOM     39  H   1DI d   1       9.411  15.877 -25.905  0.00  0.00     0.071 H 
ENDBRANCH   1  21
TORSDOF 4
