REMARK  6 active torsions:
REMARK  status: ('A' for Active; 'I' for Inactive)
REMARK    1  A    between atoms: C1_6  and  C_1 
REMARK       I    between atoms: N_3  and  C4_15 
REMARK    2  A    between atoms: C2_10  and  C1_6 
REMARK    3  A    between atoms: C3_13  and  C2_10 
REMARK    4  A    between atoms: C4_15  and  C3_13 
REMARK    5  A    between atoms: C10_21  and  C7_18 
REMARK    6  A    between atoms: C11_22  and  C12_23 
ROOT
ATOM      1  N   3SF d   1      27.680 -11.742  -5.594  0.00  0.00    -0.352 N 
ATOM      2  O   3SF d   1      27.813 -12.865  -7.426  0.00  0.00    -0.273 OA
ATOM      3  C4  3SF d   1      28.134 -12.752  -6.276  0.00  0.00     0.219 C 
ATOM      4  C5  3SF d   1      28.125 -11.510  -4.195  0.00  0.00    -0.002 C 
ATOM      5  C6  3SF d   1      27.819 -10.110  -3.663  0.00  0.00    -0.040 C 
ATOM      6  C7  3SF d   1      26.658  -9.429  -4.356  0.00  0.00     0.015 C 
ATOM      7  C8  3SF d   1      26.909  -9.500  -5.853  0.00  0.00    -0.040 C 
ATOM      8  C9  3SF d   1      26.678 -10.924  -6.272  0.00  0.00    -0.002 C 
ATOM      9  H7  3SF d   1      29.213 -11.666  -4.149  0.00  0.00     0.064 H 
ATOM     10  H8  3SF d   1      27.622 -12.243  -3.547  0.00  0.00     0.064 H 
ATOM     11  H9  3SF d   1      28.715  -9.486  -3.795  0.00  0.00     0.036 H 
ATOM     12  H10 3SF d   1      27.583 -10.191  -2.592  0.00  0.00     0.036 H 
ATOM     13  H11 3SF d   1      25.686  -9.857  -4.071  0.00  0.00     0.053 H 
ATOM     14  H12 3SF d   1      27.945  -9.204  -6.077  0.00  0.00     0.036 H 
ATOM     15  H13 3SF d   1      26.214  -8.833  -6.384  0.00  0.00     0.036 H 
ATOM     16  H14 3SF d   1      25.668 -11.244  -5.977  0.00  0.00     0.064 H 
ATOM     17  H15 3SF d   1      26.789 -11.019  -7.362  0.00  0.00     0.064 H 
ENDROOT
BRANCH   3  18
ATOM     18  C3  3SF d   1      28.979 -13.804  -5.626  0.00  0.00     0.010 C 
ATOM     19  H5  3SF d   1      29.960 -13.399  -5.336  0.00  0.00     0.047 H 
ATOM     20  H6  3SF d   1      28.478 -14.221  -4.740  0.00  0.00     0.047 H 
BRANCH  18  21
ATOM     21  C2  3SF d   1      29.121 -14.847  -6.710  0.00  0.00    -0.049 C 
ATOM     22  H3  3SF d   1      28.190 -15.429  -6.779  0.00  0.00     0.034 H 
ATOM     23  H4  3SF d   1      29.313 -14.348  -7.671  0.00  0.00     0.034 H 
BRANCH  21  24
ATOM     24  C1  3SF d   1      30.263 -15.773  -6.394  0.00  0.00     0.026 C 
ATOM     25  H1  3SF d   1      31.196 -15.200  -6.290  0.00  0.00     0.046 H 
ATOM     26  H2  3SF d   1      30.061 -16.316  -5.459  0.00  0.00     0.046 H 
BRANCH  24  27
ATOM     27  C   3SF d   1      30.377 -16.738  -7.534  0.00  0.00     0.387 C 
ATOM     28  F   3SF d   1      30.988 -16.193  -8.554  0.00  0.00    -0.171 F 
ATOM     29  F1  3SF d   1      31.081 -17.735  -7.067  0.00  0.00    -0.171 F 
ATOM     30  F2  3SF d   1      29.199 -17.175  -7.936  0.00  0.00    -0.171 F 
ENDBRANCH  24  27
ENDBRANCH  21  24
ENDBRANCH  18  21
ENDBRANCH   3  18
BRANCH   6  31
ATOM     31  C10 3SF d   1      26.785  -8.018  -4.009  0.00  0.00     0.177 A 
ATOM     32  O1  3SF d   1      26.787  -7.704  -2.792  0.00  0.00    -0.195 OA
ATOM     33  N1  3SF d   1      26.972  -6.370  -2.632  0.00  0.00    -0.103 NA
ATOM     34  C11 3SF d   1      27.054  -5.932  -3.912  0.00  0.00     0.215 A 
ATOM     35  N2  3SF d   1      26.949  -6.929  -4.797  0.00  0.00    -0.202 NA
BRANCH  34  36
ATOM     36  C12 3SF d   1      27.231  -4.607  -4.315  0.00  0.00     0.147 A 
ATOM     37  S   3SF d   1      27.375  -3.325  -3.204  0.00  0.00    -0.077 SA
ATOM     38  C14 3SF d   1      27.552  -2.090  -4.422  0.00  0.00    -0.026 A 
ATOM     39  C13 3SF d   1      27.485  -2.777  -5.631  0.00  0.00     0.010 A 
ATOM     40  H17 3SF d   1      27.685  -1.020  -4.271  0.00  0.00     0.097 H 
ATOM     41  N3  3SF d   1      27.306  -4.152  -5.587  0.00  0.00    -0.249 NA
ATOM     42  H16 3SF d   1      27.570  -2.252  -6.581  0.00  0.00     0.115 H 
ENDBRANCH  34  36
ENDBRANCH   6  31
TORSDOF 6
