REMARK  7 active torsions:
REMARK  status: ('A' for Active; 'I' for Inactive)
REMARK    1  A    between atoms: CAU_21  and  CAA_1 
REMARK    2  A    between atoms: CAV_22  and  CAB_2 
REMARK       I    between atoms: CAT_20  and  NAQ_17 
REMARK    3  A    between atoms: NAQ_17  and  CAW_23 
REMARK    4  A    between atoms: CAX_24  and  OAR_18 
REMARK    5  A    between atoms: OAR_18  and  CAY_25 
REMARK    6  A    between atoms: CAZ_26  and  CAS_19 
REMARK    7  A    between atoms: CAT_20  and  CBA_27 
ROOT
ATOM      1  CAK P09 d   1     -12.175   2.806   4.003  0.00  0.00    -0.054 A 
ATOM      2  CAL P09 d   1     -12.724   4.046   2.013  0.00  0.00    -0.054 A 
ATOM      3  CAN P09 d   1     -11.693   1.748   3.198  0.00  0.00    -0.048 A 
ATOM      4  CAO P09 d   1     -12.245   3.011   1.220  0.00  0.00    -0.048 A 
ATOM      5  CAW P09 d   1     -12.683   3.967   3.409  0.00  0.00     0.035 A 
ATOM      6  CAX P09 d   1     -11.755   1.847   1.811  0.00  0.00     0.076 A 
ATOM      7  H   P09 d   1     -12.151   2.717   5.089  0.00  0.00     0.087 H 
ATOM      8  H   P09 d   1     -13.139   4.936   1.539  0.00  0.00     0.087 H 
ATOM      9  H   P09 d   1     -11.273   0.856   3.663  0.00  0.00     0.087 H 
ATOM     10  H   P09 d   1     -12.252   3.109   0.134  0.00  0.00     0.087 H 
ENDROOT
BRANCH   6  11
ATOM     11  OAR P09 d   1     -11.265   0.861   0.994  0.00  0.00    -0.311 OA
BRANCH  11  12
ATOM     12  CAY P09 d   1     -11.876  -0.344   0.871  0.00  0.00     0.076 A 
ATOM     13  CAM P09 d   1     -11.064  -1.360   0.327  0.00  0.00    -0.050 A 
ATOM     14  CAJ P09 d   1     -11.576  -2.634   0.173  0.00  0.00    -0.074 A 
ATOM     15  H   P09 d   1     -10.038  -1.142   0.030  0.00  0.00     0.087 H 
ATOM     16  CAU P09 d   1     -12.888  -2.925   0.553  0.00  0.00    -0.056 A 
ATOM     17  H   P09 d   1     -10.950  -3.420  -0.249  0.00  0.00     0.084 H 
ATOM     18  CAV P09 d   1     -13.690  -1.906   1.088  0.00  0.00    -0.053 A 
ATOM     19  CAP P09 d   1     -13.170  -0.610   1.272  0.00  0.00    -0.044 A 
ATOM     20  H   P09 d   1     -13.780   0.172   1.724  0.00  0.00     0.088 H 
BRANCH  16  21
ATOM     21  CAA P09 d   1     -13.363  -4.379   0.330  0.00  0.00    -0.051 C 
ATOM     22  H   P09 d   1     -13.298  -4.622  -0.730  0.00  0.00     0.033 H 
ATOM     23  H   P09 d   1     -12.729  -5.058   0.900  0.00  0.00     0.033 H 
ATOM     24  H   P09 d   1     -14.396  -4.478   0.664  0.00  0.00     0.033 H 
ENDBRANCH  16  21
BRANCH  18  25
ATOM     25  CAB P09 d   1     -15.117  -2.164   1.553  0.00  0.00    -0.051 C 
ATOM     26  H   P09 d   1     -15.189  -1.973   2.624  0.00  0.00     0.033 H 
ATOM     27  H   P09 d   1     -15.797  -1.501   1.018  0.00  0.00     0.033 H 
ATOM     28  H   P09 d   1     -15.382  -3.201   1.349  0.00  0.00     0.033 H 
ENDBRANCH  18  25
ENDBRANCH  11  12
ENDBRANCH   6  11
BRANCH   5  29
ATOM     29  NAQ P09 d   1     -13.216   4.972   4.156  0.00  0.00    -0.323 N 
ATOM     30  CAT P09 d   1     -13.014   5.083   5.468  0.00  0.00     0.257 C 
ATOM     31  OAD P09 d   1     -12.270   4.359   6.159  0.00  0.00    -0.267 OA
ATOM     32  H   P09 d   1     -13.796   5.671   3.691  0.00  0.00     0.169 HD
BRANCH  30  33
ATOM     33  CBA P09 d   1     -13.766   6.224   6.182  0.00  0.00     0.049 A 
ATOM     34  CAI P09 d   1     -15.145   6.115   6.267  0.00  0.00    -0.067 A 
ATOM     35  CAG P09 d   1     -15.891   7.069   6.932  0.00  0.00    -0.082 A 
ATOM     36  H   P09 d   1     -15.647   5.266   5.803  0.00  0.00     0.085 H 
ATOM     37  CAF P09 d   1     -15.224   8.142   7.526  0.00  0.00    -0.082 A 
ATOM     38  H   P09 d   1     -16.976   6.986   6.992  0.00  0.00     0.083 H 
ATOM     39  CAH P09 d   1     -13.837   8.256   7.470  0.00  0.00    -0.065 A 
ATOM     40  H   P09 d   1     -15.801   8.907   8.045  0.00  0.00     0.083 H 
ATOM     41  CAZ P09 d   1     -13.091   7.266   6.799  0.00  0.00     0.056 A 
ATOM     42  H   P09 d   1     -13.334   9.101   7.940  0.00  0.00     0.085 H 
BRANCH  41  43
ATOM     43  CAS P09 d   1     -11.552   7.395   6.719  0.00  0.00     0.210 C 
ATOM     44  OAC P09 d   1     -11.016   7.979   7.678  0.00  0.00    -0.644 OA
ATOM     45  OAE P09 d   1     -10.945   6.998   5.677  0.00  0.00    -0.644 OA
ENDBRANCH  41  43
ENDBRANCH  30  33
ENDBRANCH   5  29
TORSDOF 7
