REMARK  8 active torsions:
REMARK  status: ('A' for Active; 'I' for Inactive)
REMARK    1  A    between atoms: C8_16  and  C1_1 
REMARK    2  A    between atoms: C5_11  and  N1_2 
REMARK    3  A    between atoms: C2_4  and  C7_15 
REMARK       I    between atoms: N2_5  and  C8_16 
REMARK    4  A    between atoms: C9_17  and  N2_5 
REMARK    5  A    between atoms: O6_14  and  C13_21 
REMARK    6  A    between atoms: C14_22  and  O6_14 
REMARK    7  A    between atoms: C18_26  and  C19_27 
REMARK    8  A    between atoms: C20_28  and  C21_29 
ROOT
ATOM      1  C9  2BJ d   1     -14.255   1.377  -5.892  0.00  0.00     0.037 A 
ATOM      2  C10 2BJ d   1     -13.307   2.341  -5.495  0.00  0.00    -0.057 A 
ATOM      3  C11 2BJ d   1     -12.836   2.457  -4.163  0.00  0.00    -0.078 A 
ATOM      4  C12 2BJ d   1     -13.353   1.571  -3.222  0.00  0.00    -0.050 A 
ATOM      5  C14 2BJ d   1     -14.294   0.589  -3.573  0.00  0.00     0.078 A 
ATOM      6  C15 2BJ d   1     -14.728   0.499  -4.894  0.00  0.00    -0.025 A 
ATOM      7  H   2BJ d   1     -12.918   3.029  -6.246  0.00  0.00     0.086 H 
ATOM      8  H   2BJ d   1     -12.098   3.210  -3.887  0.00  0.00     0.083 H 
ATOM      9  H   2BJ d   1     -13.019   1.641  -2.187  0.00  0.00     0.087 H 
ATOM     10  H   2BJ d   1     -15.452  -0.270  -5.163  0.00  0.00     0.091 H 
ENDROOT
BRANCH   1  11
ATOM     11  N2  2BJ d   1     -14.717   1.255  -7.207  0.00  0.00    -0.323 N 
ATOM     12  C8  2BJ d   1     -14.311   2.118  -8.168  0.00  0.00     0.257 C 
ATOM     13  O5  2BJ d   1     -13.552   3.067  -7.967  0.00  0.00    -0.267 OA
ATOM     14  H   2BJ d   1     -15.368   0.506  -7.445  0.00  0.00     0.169 HD
BRANCH  12  15
ATOM     15  C1  2BJ d   1     -14.906   2.009  -9.584  0.00  0.00     0.051 A 
ATOM     16  C2  2BJ d   1     -14.825   0.889 -10.442  0.00  0.00     0.056 A 
ATOM     17  C3  2BJ d   1     -15.395   0.922 -11.704  0.00  0.00    -0.063 A 
ATOM     18  C4  2BJ d   1     -16.047   2.063 -12.130  0.00  0.00    -0.050 A 
ATOM     19  H   2BJ d   1     -15.329   0.052 -12.358  0.00  0.00     0.085 H 
ATOM     20  C5  2BJ d   1     -16.142   3.194 -11.307  0.00  0.00     0.103 A 
ATOM     21  H   2BJ d   1     -16.495   2.084 -13.123  0.00  0.00     0.087 H 
ATOM     22  C6  2BJ d   1     -15.560   3.181 -10.024  0.00  0.00    -0.035 A 
ATOM     23  H   2BJ d   1     -15.614   4.060  -9.382  0.00  0.00     0.088 H 
BRANCH  16  24
ATOM     24  C7  2BJ d   1     -14.126  -0.389 -10.062  0.00  0.00     0.210 C 
ATOM     25  O3  2BJ d   1     -13.756  -1.175 -10.968  0.00  0.00    -0.644 OA
ATOM     26  O4  2BJ d   1     -13.813  -0.517  -8.881  0.00  0.00    -0.644 OA
ENDBRANCH  16  24
BRANCH  20  27
ATOM     27  N1  2BJ d   1     -16.781   4.271 -11.789  0.00  0.00    -0.116 N 
ATOM     28  O1  2BJ d   1     -16.757   4.506 -13.242  0.00  0.00    -0.532 OA
ATOM     29  O2  2BJ d   1     -17.495   5.182 -10.872  0.00  0.00    -0.532 OA
ENDBRANCH  20  27
ENDBRANCH  12  15
ENDBRANCH   1  11
BRANCH   5  30
ATOM     30  O6  2BJ d   1     -14.791  -0.248  -2.568  0.00  0.00    -0.311 OA
BRANCH  30  31
ATOM     31  C13 2BJ d   1     -14.304  -1.505  -2.270  0.00  0.00     0.076 A 
ATOM     32  C16 2BJ d   1     -14.882  -2.223  -1.180  0.00  0.00    -0.050 A 
ATOM     33  C17 2BJ d   1     -14.442  -3.511  -0.861  0.00  0.00    -0.074 A 
ATOM     34  H   2BJ d   1     -15.675  -1.762  -0.590  0.00  0.00     0.087 H 
ATOM     35  C18 2BJ d   1     -13.412  -4.107  -1.589  0.00  0.00    -0.056 A 
ATOM     36  H   2BJ d   1     -14.907  -4.053  -0.038  0.00  0.00     0.084 H 
ATOM     37  C20 2BJ d   1     -12.837  -3.380  -2.660  0.00  0.00    -0.053 A 
ATOM     38  C22 2BJ d   1     -13.268  -2.095  -3.004  0.00  0.00    -0.044 A 
ATOM     39  H   2BJ d   1     -12.804  -1.560  -3.832  0.00  0.00     0.088 H 
BRANCH  35  40
ATOM     40  C19 2BJ d   1     -13.000  -5.545  -1.180  0.00  0.00    -0.051 C 
ATOM     41  H   2BJ d   1     -12.664  -5.544  -0.143  0.00  0.00     0.033 H 
ATOM     42  H   2BJ d   1     -13.857  -6.211  -1.285  0.00  0.00     0.033 H 
ATOM     43  H   2BJ d   1     -12.191  -5.887  -1.825  0.00  0.00     0.033 H 
ENDBRANCH  35  40
BRANCH  37  44
ATOM     44  C21 2BJ d   1     -11.817  -3.927  -3.570  0.00  0.00    -0.051 C 
ATOM     45  H   2BJ d   1     -12.224  -3.981  -4.580  0.00  0.00     0.033 H 
ATOM     46  H   2BJ d   1     -10.941  -3.278  -3.564  0.00  0.00     0.033 H 
ATOM     47  H   2BJ d   1     -11.534  -4.926  -3.238  0.00  0.00     0.033 H 
ENDBRANCH  37  44
ENDBRANCH  30  31
ENDBRANCH   5  30
TORSDOF 8
