REMARK  7 active torsions:
REMARK  status: ('A' for Active; 'I' for Inactive)
REMARK       I    between atoms: CAZ_26  and  NAV_22 
REMARK    1  A    between atoms: NAV_22  and  CBA_27 
REMARK    2  A    between atoms: CBB_28  and  OAW_23 
REMARK    3  A    between atoms: OAW_23  and  CBC_29 
REMARK    4  A    between atoms: CBG_33  and  CAX_24 
REMARK    5  A    between atoms: CBH_34  and  CAY_25 
REMARK    6  A    between atoms: CBD_30  and  CAZ_26 
REMARK    7  A    between atoms: CBE_31  and  CBF_32 
ROOT
ATOM      1  CAI 0FW d   1     -14.886  10.836   3.169  0.00  0.00    -0.078 A 
ATOM      2  CAJ 0FW d   1     -14.801   9.441   3.230  0.00  0.00    -0.057 A 
ATOM      3  CAK 0FW d   1     -13.775  11.582   2.811  0.00  0.00    -0.050 A 
ATOM      4  CAT 0FW d   1     -12.504   9.512   2.583  0.00  0.00    -0.025 A 
ATOM      5  CBA 0FW d   1     -13.619   8.749   2.937  0.00  0.00     0.037 A 
ATOM      6  CBB 0FW d   1     -12.587  10.899   2.519  0.00  0.00     0.078 A 
ATOM      7  H   0FW d   1     -15.826  11.336   3.403  0.00  0.00     0.083 H 
ATOM      8  H   0FW d   1     -15.686   8.872   3.516  0.00  0.00     0.086 H 
ATOM      9  H   0FW d   1     -13.824  12.670   2.758  0.00  0.00     0.087 H 
ATOM     10  H   0FW d   1     -11.560   9.016   2.355  0.00  0.00     0.091 H 
ENDROOT
BRANCH   5  11
ATOM     11  NAV 0FW d   1     -13.593   7.394   2.984  0.00  0.00    -0.323 N 
ATOM     12  CAZ 0FW d   1     -12.821   6.576   2.231  0.00  0.00     0.256 C 
ATOM     13  OAC 0FW d   1     -12.000   6.928   1.398  0.00  0.00    -0.267 OA
ATOM     14  H   0FW d   1     -14.218   6.946   3.654  0.00  0.00     0.169 HD
BRANCH  12  15
ATOM     15  CBD 0FW d   1     -12.992   5.077   2.428  0.00  0.00     0.032 A 
ATOM     16  CAO 0FW d   1     -13.126   4.542   3.701  0.00  0.00    -0.067 A 
ATOM     17  CAQ 0FW d   1     -13.276   3.178   3.873  0.00  0.00    -0.071 A 
ATOM     18  H   0FW d   1     -13.113   5.200   4.570  0.00  0.00     0.085 H 
ATOM     19  CBF 0FW d   1     -13.271   2.344   2.776  0.00  0.00    -0.026 A 
ATOM     20  H   0FW d   1     -13.398   2.764   4.874  0.00  0.00     0.084 H 
ATOM     21  CAR 0FW d   1     -13.164   2.883   1.499  0.00  0.00    -0.071 A 
ATOM     22  CAP 0FW d   1     -13.016   4.249   1.307  0.00  0.00    -0.067 A 
ATOM     23  H   0FW d   1     -13.197   2.221   0.634  0.00  0.00     0.084 H 
ATOM     24  H   0FW d   1     -12.921   4.665   0.304  0.00  0.00     0.085 H 
BRANCH  19  25
ATOM     25  CBE 0FW d   1     -13.480   0.975   2.911  0.00  0.00    -0.026 A 
ATOM     26  CAL 0FW d   1     -14.552   0.566   3.730  0.00  0.00    -0.072 A 
ATOM     27  CAG 0FW d   1     -14.875  -0.781   3.857  0.00  0.00    -0.082 A 
ATOM     28  H   0FW d   1     -15.134   1.313   4.269  0.00  0.00     0.084 H 
ATOM     29  CAF 0FW d   1     -14.145  -1.741   3.156  0.00  0.00    -0.083 A 
ATOM     30  H   0FW d   1     -15.698  -1.086   4.504  0.00  0.00     0.083 H 
ATOM     31  CAH 0FW d   1     -13.073  -1.337   2.341  0.00  0.00    -0.082 A 
ATOM     32  H   0FW d   1     -14.404  -2.796   3.240  0.00  0.00     0.083 H 
ATOM     33  CAM 0FW d   1     -12.733   0.022   2.199  0.00  0.00    -0.072 A 
ATOM     34  H   0FW d   1     -12.493  -2.091   1.808  0.00  0.00     0.083 H 
ATOM     35  H   0FW d   1     -11.910   0.327   1.552  0.00  0.00     0.084 H 
ENDBRANCH  19  25
ENDBRANCH  12  15
ENDBRANCH   5  11
BRANCH   6  36
ATOM     36  OAW 0FW d   1     -11.459  11.530   2.149  0.00  0.00    -0.311 OA
BRANCH  36  37
ATOM     37  CBC 0FW d   1     -11.373  12.885   2.207  0.00  0.00     0.077 A 
ATOM     38  CAN 0FW d   1     -11.462  13.677   1.070  0.00  0.00    -0.049 A 
ATOM     39  CAS 0FW d   1     -11.335  15.059   1.199  0.00  0.00    -0.063 A 
ATOM     40  H   0FW d   1     -11.629  13.225   0.092  0.00  0.00     0.087 H 
ATOM     41  CBG 0FW d   1     -11.096  15.644   2.443  0.00  0.00     0.058 A 
ATOM     42  H   0FW d   1     -11.424  15.692   0.316  0.00  0.00     0.085 H 
ATOM     43  CBH 0FW d   1     -10.987  14.825   3.579  0.00  0.00     0.060 A 
ATOM     44  CAU 0FW d   1     -11.127  13.462   3.435  0.00  0.00    -0.033 A 
ATOM     45  H   0FW d   1     -11.041  12.823   4.314  0.00  0.00     0.089 H 
BRANCH  41  46
ATOM     46  CAX 0FW d   1     -10.956  17.178   2.518  0.00  0.00     0.210 C 
ATOM     47  OAA 0FW d   1     -11.346  17.836   1.523  0.00  0.00    -0.644 OA
ATOM     48  OAD 0FW d   1     -10.416  17.680   3.545  0.00  0.00    -0.644 OA
ENDBRANCH  41  46
BRANCH  43  49
ATOM     49  CAY 0FW d   1     -10.747  15.334   5.011  0.00  0.00     0.210 C 
ATOM     50  OAB 0FW d   1     -10.041  14.641   5.800  0.00  0.00    -0.644 OA
ATOM     51  OAE 0FW d   1     -11.341  16.372   5.335  0.00  0.00    -0.644 OA
ENDBRANCH  43  49
ENDBRANCH  36  37
ENDBRANCH   6  36
TORSDOF 7
