REMARK  15 active torsions:
REMARK  status: ('A' for Active; 'I' for Inactive)
REMARK    1  A    between atoms: C1_1  and  C19_23 
REMARK    2  A    between atoms: C2_3  and  O1_2 
REMARK    3  A    between atoms: C6_10  and  O2_4 
REMARK    4  A    between atoms: O2_4  and  C7_11 
REMARK    5  A    between atoms: C7_11  and  C8_12 
REMARK    6  A    between atoms: C8_12  and  C9_13 
REMARK    7  A    between atoms: C9_13  and  C10_14 
REMARK    8  A    between atoms: C10_14  and  C11_15 
REMARK    9  A    between atoms: C11_15  and  C12_16 
REMARK   10  A    between atoms: C12_16  and  C13_17 
REMARK   11  A    between atoms: C13_17  and  C14_18 
REMARK   12  A    between atoms: C14_18  and  C15_19 
REMARK   13  A    between atoms: C15_19  and  C16_20 
REMARK   14  A    between atoms: C16_20  and  C17_21 
REMARK   15  A    between atoms: C17_21  and  C18_22 
ROOT
ATOM      1  C10 SAX d   1     -11.741   2.056   2.869  0.00  0.00    -0.065 C 
ATOM      2  H   SAX d   1     -11.413   1.543   3.773  0.00  0.00     0.033 H 
ATOM      3  H   SAX d   1     -10.914   2.673   2.517  0.00  0.00     0.033 H 
ENDROOT
BRANCH   1   4
ATOM      4  C9  SAX d   1     -12.948   2.914   3.162  0.00  0.00    -0.063 C 
ATOM      5  H   SAX d   1     -13.234   3.464   2.265  0.00  0.00     0.033 H 
ATOM      6  H   SAX d   1     -13.780   2.283   3.473  0.00  0.00     0.033 H 
BRANCH   4   7
ATOM      7  C8  SAX d   1     -12.607   3.885   4.266  0.00  0.00    -0.045 C 
ATOM      8  H   SAX d   1     -12.003   3.369   5.013  0.00  0.00     0.036 H 
ATOM      9  H   SAX d   1     -12.061   4.725   3.837  0.00  0.00     0.036 H 
BRANCH   7  10
ATOM     10  C7  SAX d   1     -13.859   4.407   4.930  0.00  0.00     0.026 C 
ATOM     11  H   SAX d   1     -14.505   4.890   4.197  0.00  0.00     0.075 H 
ATOM     12  H   SAX d   1     -14.422   3.588   5.377  0.00  0.00     0.075 H 
BRANCH  10  13
ATOM     13  O2  SAX d   1     -13.454   5.353   5.945  0.00  0.00    -0.350 OA
BRANCH  13  14
ATOM     14  C6  SAX d   1     -14.410   6.200   6.438  0.00  0.00     0.088 A 
ATOM     15  C1  SAX d   1     -14.080   7.236   7.322  0.00  0.00     0.107 A 
ATOM     16  C2  SAX d   1     -15.088   8.068   7.780  0.00  0.00     0.085 A 
ATOM     17  C3  SAX d   1     -16.399   7.886   7.345  0.00  0.00    -0.050 A 
ATOM     18  C4  SAX d   1     -16.745   6.861   6.449  0.00  0.00    -0.078 A 
ATOM     19  H   SAX d   1     -17.177   8.557   7.710  0.00  0.00     0.087 H 
ATOM     20  C5  SAX d   1     -15.734   6.007   5.997  0.00  0.00    -0.050 A 
ATOM     21  H   SAX d   1     -17.775   6.734   6.115  0.00  0.00     0.083 H 
ATOM     22  H   SAX d   1     -15.969   5.196   5.307  0.00  0.00     0.087 H 
BRANCH  15  23
ATOM     23  C19 SAX d   1     -12.699   7.493   7.864  0.00  0.00     0.215 C 
ATOM     24  O3  SAX d   1     -11.840   6.560   7.777  0.00  0.00    -0.644 OA
ATOM     25  O4  SAX d   1     -12.448   8.596   8.466  0.00  0.00    -0.644 OA
ENDBRANCH  15  23
BRANCH  16  26
ATOM     26  O1  SAX d   1     -14.743   9.075   8.653  0.00  0.00    -0.360 OA
ATOM     27  H   SAX d   1     -14.354   8.693   9.443  0.00  0.00     0.217 HD
ENDBRANCH  16  26
ENDBRANCH  13  14
ENDBRANCH  10  13
ENDBRANCH   7  10
ENDBRANCH   4   7
ENDBRANCH   1   4
BRANCH   1  28
ATOM     28  C11 SAX d   1     -12.136   1.048   1.805  0.00  0.00    -0.065 C 
ATOM     29  H   SAX d   1     -12.787   1.512   1.064  0.00  0.00     0.033 H 
ATOM     30  H   SAX d   1     -12.685   0.219   2.251  0.00  0.00     0.033 H 
BRANCH  28  31
ATOM     31  C12 SAX d   1     -10.846   0.543   1.144  0.00  0.00    -0.065 C 
ATOM     32  H   SAX d   1     -10.144   0.287   1.938  0.00  0.00     0.033 H 
ATOM     33  H   SAX d   1     -10.478   1.332   0.488  0.00  0.00     0.033 H 
BRANCH  31  34
ATOM     34  C13 SAX d   1     -11.063  -0.713   0.289  0.00  0.00    -0.065 C 
ATOM     35  H   SAX d   1     -11.269  -1.552   0.953  0.00  0.00     0.033 H 
ATOM     36  H   SAX d   1     -10.165  -0.887  -0.305  0.00  0.00     0.033 H 
BRANCH  34  37
ATOM     37  C14 SAX d   1     -12.243  -0.543  -0.657  0.00  0.00    -0.065 C 
ATOM     38  H   SAX d   1     -12.849   0.243  -0.207  0.00  0.00     0.033 H 
ATOM     39  H   SAX d   1     -12.661  -1.544  -0.763  0.00  0.00     0.033 H 
BRANCH  37  40
ATOM     40  C15 SAX d   1     -11.993  -0.072  -2.086  0.00  0.00    -0.065 C 
ATOM     41  H   SAX d   1     -11.151   0.620  -2.091  0.00  0.00     0.033 H 
ATOM     42  H   SAX d   1     -12.890   0.422  -2.460  0.00  0.00     0.033 H 
BRANCH  40  43
ATOM     43  C16 SAX d   1     -11.668  -1.256  -2.981  0.00  0.00    -0.065 C 
ATOM     44  H   SAX d   1     -11.674  -2.125  -2.323  0.00  0.00     0.033 H 
ATOM     45  H   SAX d   1     -10.734  -0.993  -3.478  0.00  0.00     0.033 H 
BRANCH  43  46
ATOM     46  C17 SAX d   1     -12.647  -1.599  -4.114  0.00  0.00    -0.069 C 
ATOM     47  H   SAX d   1     -12.660  -0.808  -4.864  0.00  0.00     0.032 H 
ATOM     48  H   SAX d   1     -13.663  -1.693  -3.730  0.00  0.00     0.032 H 
BRANCH  46  49
ATOM     49  C18 SAX d   1     -12.177  -2.922  -4.730  0.00  0.00    -0.077 C 
ATOM     50  H   SAX d   1     -11.166  -2.801  -5.118  0.00  0.00     0.027 H 
ATOM     51  H   SAX d   1     -12.184  -3.700  -3.966  0.00  0.00     0.027 H 
ATOM     52  H   SAX d   1     -12.848  -3.202  -5.542  0.00  0.00     0.027 H 
ENDBRANCH  46  49
ENDBRANCH  43  46
ENDBRANCH  40  43
ENDBRANCH  37  40
ENDBRANCH  34  37
ENDBRANCH  31  34
ENDBRANCH  28  31
ENDBRANCH   1  28
TORSDOF 15
