REMARK  20 active torsions:
REMARK  status: ('A' for Active; 'I' for Inactive)
REMARK    1  A    between atoms: C10_4  and  C12_5 
REMARK    2  A    between atoms: N7_8  and  C6_9 
REMARK    3  A    between atoms: C1_14  and  C13_15 
REMARK    4  A    between atoms: C13_15  and  O14_17 
REMARK    5  A    between atoms: O14_17  and  C15_18 
REMARK    6  A    between atoms: C15_18  and  C16_19 
REMARK    7  A    between atoms: C19_22  and  O19_23 
REMARK    8  A    between atoms: O19_23  and  C22_24 
REMARK    9  A    between atoms: C18_25  and  C30_32 
REMARK   10  A    between atoms: N23_28  and  C24_29 
REMARK   11  A    between atoms: C24_29  and  C25_30 
REMARK   12  A    between atoms: C35_35  and  O35_36 
REMARK   13  A    between atoms: O35_36  and  C37_37 
REMARK   14  A    between atoms: C38_40  and  O38_41 
REMARK   15  A    between atoms: O38_41  and  C39_42 
REMARK   16  A    between atoms: C32_43  and  O32_44 
REMARK   17  A    between atoms: C32_43  and  C27_45 
REMARK   18  A    between atoms: C27_45  and  O27_46 
REMARK   19  A    between atoms: C28_47  and  O28_48 
REMARK   20  A    between atoms: O28_48  and  C29_49 
ROOT
ATOM      1  C16 MLK d   1      23.949 -29.669  16.169  0.00  0.00     0.015 C 
ATOM      2  C21 MLK d   1      24.912 -29.245  17.272  0.00  0.00    -0.052 C 
ATOM      3  C20 MLK d   1      26.008 -28.294  16.769  0.00  0.00    -0.039 C 
ATOM      4  C19 MLK d   1      25.542 -27.333  15.683  0.00  0.00     0.048 C 
ATOM      5  C18 MLK d   1      24.776 -27.968  14.552  0.00  0.00     0.031 C 
ATOM      6  C17 MLK d   1      24.585 -29.479  14.768  0.00  0.00    -0.003 C 
ATOM      7  C26 MLK d   1      23.289 -27.515  14.375  0.00  0.00     0.179 C 
ATOM      8  N23 MLK d   1      22.610 -27.584  15.656  0.00  0.00     0.097 N 
ATOM      9  C23 MLK d   1      22.641 -28.873  16.320  0.00  0.00     0.123 C 
ATOM     10  C27 MLK d   1      22.810 -28.556  13.311  0.00  0.00     0.147 C 
ATOM     11  C28 MLK d   1      23.443 -29.890  13.799  0.00  0.00     0.077 C 
ATOM     12  H   MLK d   1      25.398 -30.142  17.655  0.00  0.00     0.034 H 
ATOM     13  H   MLK d   1      24.337 -28.719  18.034  0.00  0.00     0.034 H 
ATOM     14  H   MLK d   1      26.799 -28.909  16.339  0.00  0.00     0.036 H 
ATOM     15  H   MLK d   1      26.329 -27.691  17.619  0.00  0.00     0.036 H 
ATOM     16  H   MLK d   1      26.453 -26.954  15.221  0.00  0.00     0.084 H 
ATOM     17  H   MLK d   1      25.520 -30.024  14.640  0.00  0.00     0.046 H 
ATOM     18  H   MLK d   1      23.109 -26.489  14.053  0.00  0.00     0.095 H 
ATOM     19  H   MLK d   1      22.521 -28.675  17.385  0.00  0.00     0.081 H 
ATOM     20  H   MLK d   1      21.858 -29.476  15.861  0.00  0.00     0.081 H 
ATOM     21  H   MLK d   1      22.667 -30.489  14.275  0.00  0.00     0.088 H 
ENDROOT
BRANCH   1  22
ATOM     22  C15 MLK d   1      23.666 -31.154  16.378  0.00  0.00     0.038 C 
ATOM     23  H   MLK d   1      23.106 -31.323  17.297  0.00  0.00     0.076 H 
ATOM     24  H   MLK d   1      23.051 -31.556  15.572  0.00  0.00     0.076 H 
BRANCH  22  25
ATOM     25  O14 MLK d   1      24.963 -31.807  16.425  0.00  0.00    -0.317 OA
BRANCH  25  26
ATOM     26  C13 MLK d   1      25.064 -33.142  16.596  0.00  0.00     0.295 C 
ATOM     27  O13 MLK d   1      24.046 -33.790  16.760  0.00  0.00    -0.259 OA
BRANCH  26  28
ATOM     28  C1  MLK d   1      26.397 -33.800  16.571  0.00  0.00     0.066 A 
ATOM     29  C6  MLK d   1      26.544 -35.210  16.492  0.00  0.00     0.061 A 
ATOM     30  C5  MLK d   1      27.833 -35.747  16.461  0.00  0.00    -0.056 A 
ATOM     31  C4  MLK d   1      28.957 -34.946  16.521  0.00  0.00    -0.081 A 
ATOM     32  H   MLK d   1      27.956 -36.828  16.387  0.00  0.00     0.087 H 
ATOM     33  C3  MLK d   1      28.809 -33.572  16.609  0.00  0.00    -0.082 A 
ATOM     34  H   MLK d   1      29.951 -35.392  16.499  0.00  0.00     0.083 H 
ATOM     35  C2  MLK d   1      27.551 -33.004  16.632  0.00  0.00    -0.065 A 
ATOM     36  H   MLK d   1      29.692 -32.935  16.660  0.00  0.00     0.083 H 
ATOM     37  H   MLK d   1      27.453 -31.921  16.699  0.00  0.00     0.085 H 
BRANCH  29  38
ATOM     38  N7  MLK d   1      25.433 -36.085  16.415  0.00  0.00    -0.251 N 
ATOM     39  C8  MLK d   1      24.521 -36.053  15.420  0.00  0.00     0.232 C 
ATOM     40  O8  MLK d   1      24.588 -35.395  14.389  0.00  0.00    -0.273 OA
ATOM     41  C9  MLK d   1      23.414 -37.018  15.806  0.00  0.00     0.021 C 
ATOM     42  C10 MLK d   1      24.221 -38.037  16.628  0.00  0.00     0.029 C 
ATOM     43  H   MLK d   1      22.876 -37.447  14.961  0.00  0.00     0.048 H 
ATOM     44  H   MLK d   1      22.585 -36.560  16.346  0.00  0.00     0.048 H 
ATOM     45  C11 MLK d   1      25.173 -37.066  17.300  0.00  0.00     0.235 C 
ATOM     46  H   MLK d   1      24.718 -38.839  16.082  0.00  0.00     0.054 H 
ATOM     47  O11 MLK d   1      25.625 -37.147  18.421  0.00  0.00    -0.272 OA
BRANCH  42  48
ATOM     48  C12 MLK d   1      23.331 -38.850  17.573  0.00  0.00    -0.064 C 
ATOM     49  H   MLK d   1      23.957 -39.444  18.239  0.00  0.00     0.028 H 
ATOM     50  H   MLK d   1      22.714 -38.172  18.162  0.00  0.00     0.028 H 
ATOM     51  H   MLK d   1      22.691 -39.511  16.988  0.00  0.00     0.028 H 
ENDBRANCH  42  48
ENDBRANCH  29  38
ENDBRANCH  26  28
ENDBRANCH  25  26
ENDBRANCH  22  25
ENDBRANCH   1  22
BRANCH   5  52
ATOM     52  C30 MLK d   1      25.542 -27.635  13.284  0.00  0.00    -0.033 C 
ATOM     53  C33 MLK d   1      25.635 -26.116  13.077  0.00  0.00    -0.052 C 
ATOM     54  C34 MLK d   1      25.255 -25.866  11.590  0.00  0.00    -0.003 C 
ATOM     55  H   MLK d   1      26.637 -25.747  13.297  0.00  0.00     0.034 H 
ATOM     56  H   MLK d   1      24.966 -25.582  13.752  0.00  0.00     0.034 H 
ATOM     57  C35 MLK d   1      23.741 -25.549  11.578  0.00  0.00     0.046 C 
ATOM     58  C38 MLK d   1      25.464 -27.231  10.893  0.00  0.00     0.050 C 
ATOM     59  H   MLK d   1      25.826 -25.068  11.116  0.00  0.00     0.047 H 
ATOM     60  C36 MLK d   1      22.827 -26.771  11.615  0.00  0.00    -0.008 C 
ATOM     61  H   MLK d   1      23.538 -25.049  12.525  0.00  0.00     0.084 H 
ATOM     62  C32 MLK d   1      23.410 -28.145  11.937  0.00  0.00     0.102 C 
ATOM     63  H   MLK d   1      22.452 -26.864  10.596  0.00  0.00     0.041 H 
ATOM     64  H   MLK d   1      22.133 -26.570  12.431  0.00  0.00     0.041 H 
ATOM     65  C31 MLK d   1      24.932 -28.212  11.979  0.00  0.00     0.009 C 
ATOM     66  H   MLK d   1      25.197 -29.263  11.863  0.00  0.00     0.049 H 
ATOM     67  H   MLK d   1      26.496 -27.412  10.591  0.00  0.00     0.084 H 
ATOM     68  H   MLK d   1      26.515 -28.098  13.447  0.00  0.00     0.042 H 
BRANCH  57  69
ATOM     69  O35 MLK d   1      23.415 -24.646  10.519  0.00  0.00    -0.390 OA
BRANCH  69  70
ATOM     70  C37 MLK d   1      23.084 -23.394  11.130  0.00  0.00     0.004 C 
ATOM     71  H   MLK d   1      22.234 -23.531  11.798  0.00  0.00     0.066 H 
ATOM     72  H   MLK d   1      23.940 -23.031  11.699  0.00  0.00     0.066 H 
ATOM     73  H   MLK d   1      22.827 -22.670  10.356  0.00  0.00     0.066 H 
ENDBRANCH  69  70
ENDBRANCH  57  69
BRANCH  62  74
ATOM     74  O32 MLK d   1      22.926 -29.099  10.955  0.00  0.00    -0.386 OA
ATOM     75  H   MLK d   1      23.206 -29.983  11.204  0.00  0.00     0.210 HD
ENDBRANCH  62  74
BRANCH  58  76
ATOM     76  O38 MLK d   1      24.753 -27.346   9.670  0.00  0.00    -0.390 OA
BRANCH  76  77
ATOM     77  C39 MLK d   1      25.655 -26.920   8.650  0.00  0.00     0.004 C 
ATOM     78  H   MLK d   1      25.953 -25.888   8.838  0.00  0.00     0.066 H 
ATOM     79  H   MLK d   1      26.537 -27.561   8.656  0.00  0.00     0.066 H 
ATOM     80  H   MLK d   1      25.162 -26.986   7.680  0.00  0.00     0.066 H 
ENDBRANCH  76  77
ENDBRANCH  58  76
ENDBRANCH   5  52
BRANCH  11  81
ATOM     81  O28 MLK d   1      23.923 -30.758  12.776  0.00  0.00    -0.387 OA
BRANCH  81  82
ATOM     82  C29 MLK d   1      24.860 -31.657  13.388  0.00  0.00     0.005 C 
ATOM     83  H   MLK d   1      25.680 -31.085  13.822  0.00  0.00     0.066 H 
ATOM     84  H   MLK d   1      24.358 -32.226  14.170  0.00  0.00     0.066 H 
ATOM     85  H   MLK d   1      25.251 -32.340  12.634  0.00  0.00     0.066 H 
ENDBRANCH  81  82
ENDBRANCH  11  81
BRANCH   8  86
ATOM     86  C24 MLK d   1      21.233 -27.131  15.483  0.00  0.00     0.111 C 
ATOM     87  H   MLK d   1      20.584 -27.761  16.092  0.00  0.00     0.079 H 
ATOM     88  H   MLK d   1      20.979 -27.198  14.425  0.00  0.00     0.079 H 
BRANCH  86  89
ATOM     89  C25 MLK d   1      21.058 -25.680  15.932  0.00  0.00    -0.051 C 
ATOM     90  H   MLK d   1      21.320 -25.593  16.986  0.00  0.00     0.029 H 
ATOM     91  H   MLK d   1      21.710 -25.037  15.341  0.00  0.00     0.029 H 
ATOM     92  H   MLK d   1      20.020 -25.379  15.788  0.00  0.00     0.029 H 
ENDBRANCH  86  89
ENDBRANCH   8  86
BRANCH   4  93
ATOM     93  O19 MLK d   1      24.798 -26.260  16.261  0.00  0.00    -0.390 OA
BRANCH  93  94
ATOM     94  C22 MLK d   1      25.729 -25.515  17.058  0.00  0.00     0.004 C 
ATOM     95  H   MLK d   1      26.147 -26.164  17.828  0.00  0.00     0.066 H 
ATOM     96  H   MLK d   1      26.531 -25.140  16.422  0.00  0.00     0.066 H 
ATOM     97  H   MLK d   1      25.214 -24.677  17.528  0.00  0.00     0.066 H 
ENDBRANCH  93  94
ENDBRANCH   4  93
BRANCH  10  98
ATOM     98  O27 MLK d   1      21.389 -28.705  13.172  0.00  0.00    -0.382 OA
ATOM     99  H   MLK d   1      21.202 -29.384  12.519  0.00  0.00     0.210 HD
ENDBRANCH  10  98
TORSDOF 20
