REMARK WARNING: 32 MAX_TORS EXCEEDED!!!
REMARK  34 active torsions:
REMARK  status: ('A' for Active; 'I' for Inactive)
REMARK    1  A    between atoms: N_1  and  CA_2 
REMARK    2  A    between atoms: CA_2  and  C_3 
REMARK    3  A    between atoms: CA_2  and  CB_5 
REMARK       I    between atoms: C_3  and  N_6 
REMARK    4  A    between atoms: N_6  and  CA_7 
REMARK    5  A    between atoms: CA_7  and  C_8 
REMARK    6  A    between atoms: CA_7  and  CB_10 
REMARK       I    between atoms: C_8  and  N_17 
REMARK    7  A    between atoms: CB_10  and  CG_11 
REMARK    8  A    between atoms: CG_11  and  CD_12 
REMARK    9  A    between atoms: CD_12  and  NE_13 
REMARK       I    between atoms: NE_13  and  CZ_14 
REMARK       I    between atoms: CZ_14  and  NH1_15 
REMARK   10  A    between atoms: N_17  and  CA_18 
REMARK   11  A    between atoms: CA_18  and  C_19 
REMARK   12  A    between atoms: CA_18  and  CB_21 
REMARK       I    between atoms: C_19  and  N_24 
REMARK   13  A    between atoms: CB_21  and  OG1_22 
REMARK   14  A    between atoms: CB_21  and  CG2_23 
REMARK   15  A    between atoms: N_24  and  CA_25 
REMARK   16  A    between atoms: CA_25  and  C_26 
REMARK   17  A    between atoms: CA_25  and  CB_28 
REMARK       I    between atoms: C_26  and  N_33 
REMARK   18  A    between atoms: CB_28  and  CG_29 
REMARK   19  A    between atoms: CG_29  and  CD_30 
REMARK   20  A    between atoms: CD_30  and  CE_31 
REMARK   21  A    between atoms: CE_31  and  NZ_32 
REMARK   22  A    between atoms: N_33  and  CA_34 
REMARK   23  A    between atoms: CA_34  and  C_35 
REMARK   24  A    between atoms: CA_34  and  CB_37 
REMARK       I    between atoms: C_35  and  N_42 
REMARK   25  A    between atoms: CB_37  and  CG_38 
REMARK   26  A    between atoms: CG_38  and  CD_39 
REMARK       I    between atoms: CD_39  and  NE2_41 
REMARK   27  A    between atoms: N_42  and  CA_43 
REMARK   28  A    between atoms: CA_43  and  C_44 
REMARK   29  A    between atoms: CA_43  and  CB_46 
REMARK       I    between atoms: C_44  and  N_49 
REMARK   30  A    between atoms: CB_46  and  OG1_47 
REMARK   31  A    between atoms: CB_46  and  CG2_48 
REMARK   32  A    between atoms: N_49  and  CA_50 
REMARK   33  A    between atoms: CA_50  and  C_51 
REMARK   34  A    between atoms: CA_50  and  CB_53 
ROOT
ATOM      1  CA  LYS d   1     -13.589   6.970  13.079  0.00  0.00     0.089 C 
ATOM      2  H   LYS d   1     -13.957   7.178  12.074  0.00  0.00     0.087 H 
ENDROOT
BRANCH   1   3
ATOM      3  N   LYS d   1     -12.298   7.626  13.226  0.00  0.00    -0.346 N 
ATOM      4  C   THR d   1     -12.182   8.949  13.226  0.00  0.00     0.243 C 
ATOM      5  O   THR d   1     -13.125   9.690  12.996  0.00  0.00    -0.271 OA
ATOM      6  H   LYS d   1     -11.460   7.054  13.332  0.00  0.00     0.163 HD
BRANCH   4   7
ATOM      7  CA  THR d   1     -10.800   9.521  13.499  0.00  0.00     0.113 C 
ATOM      8  H   THR d   1     -10.049   9.019  12.889  0.00  0.00     0.091 H 
BRANCH   7   9
ATOM      9  N   THR d   1     -10.783  10.934  13.147  0.00  0.00    -0.344 N 
ATOM     10  C   ARG d   1      -9.938  11.413  12.246  0.00  0.00     0.241 C 
ATOM     11  O   ARG d   1      -9.034  10.757  11.769  0.00  0.00    -0.271 OA
ATOM     12  H   THR d   1     -11.437  11.569  13.605  0.00  0.00     0.163 HD
BRANCH  10  13
ATOM     13  CA  ARG d   1     -10.160  12.842  11.794  0.00  0.00     0.089 C 
ATOM     14  H   ARG d   1     -10.662  13.425  12.566  0.00  0.00     0.087 H 
BRANCH  13  15
ATOM     15  N   ARG d   1      -8.880  13.479  11.528  0.00  0.00    -0.346 N 
ATOM     16  C   ALA d   1      -8.137  13.953  12.516  0.00  0.00     0.248 C 
ATOM     17  O   ALA d   1      -8.519  13.950  13.685  0.00  0.00    -0.271 OA
ATOM     18  H   ARG d   1      -8.550  13.562  10.566  0.00  0.00     0.163 HD
BRANCH  16  19
ATOM     19  CA  ALA d   1      -6.781  14.537  12.144  0.00  0.00     0.172 C 
ATOM     20  H   ALA d   1      -6.849  14.940  11.133  0.00  0.00     0.098 H 
BRANCH  19  21
ATOM     21  N   ALA d   1      -6.429  15.617  13.064  0.00  0.00    -0.067 N 
ATOM     22  H   ALA d   1      -7.160  16.328  13.048  0.00  0.00     0.275 HD
ATOM     23  H   ALA d   1      -6.339  15.242  14.008  0.00  0.00     0.275 HD
ATOM     24  H   ALA d   1      -5.543  16.032  12.776  0.00  0.00     0.275 HD
ENDBRANCH  19  21
BRANCH  19  25
ATOM     25  CB  ALA d   1      -5.703  13.464  12.152  0.00  0.00    -0.042 C 
ATOM     26  H   ALA d   1      -5.634  13.027  13.148  0.00  0.00     0.030 H 
ATOM     27  H   ALA d   1      -5.959  12.688  11.431  0.00  0.00     0.030 H 
ATOM     28  H   ALA d   1      -4.746  13.910  11.883  0.00  0.00     0.030 H 
ENDBRANCH  19  25
ENDBRANCH  16  19
ENDBRANCH  13  15
BRANCH  13  29
ATOM     29  CB  ARG d   1     -11.018  12.797  10.544  0.00  0.00    -0.036 C 
ATOM     30  H   ARG d   1     -11.920  12.241  10.798  0.00  0.00     0.036 H 
ATOM     31  H   ARG d   1     -10.412  12.346   9.759  0.00  0.00     0.036 H 
BRANCH  29  32
ATOM     32  CG  ARG d   1     -11.462  14.148  10.036  0.00  0.00    -0.048 C 
ATOM     33  H   ARG d   1     -10.606  14.741   9.714  0.00  0.00     0.035 H 
ATOM     34  H   ARG d   1     -11.960  14.713  10.824  0.00  0.00     0.035 H 
BRANCH  32  35
ATOM     35  CD  ARG d   1     -12.396  13.896   8.890  0.00  0.00     0.009 C 
ATOM     36  H   ARG d   1     -12.795  14.843   8.528  0.00  0.00     0.064 H 
ATOM     37  H   ARG d   1     -13.220  13.264   9.221  0.00  0.00     0.064 H 
BRANCH  35  38
ATOM     38  NE  ARG d   1     -11.670  13.231   7.821  0.00  0.00    -0.227 N 
ATOM     39  CZ  ARG d   1     -12.198  12.331   7.003  0.00  0.00     0.665 C 
ATOM     40  NH1 ARG d   1     -13.470  11.958   7.131  0.00  0.00    -0.235 N 
ATOM     41  NH2 ARG d   1     -11.438  11.790   6.072  0.00  0.00    -0.235 N 
ATOM     42  H   ARG d   1     -14.050  12.366   7.865  0.00  0.00     0.174 HD
ATOM     43  H   ARG d   1     -13.865  11.265   6.495  0.00  0.00     0.174 HD
ATOM     44  H   ARG d   1     -10.459  12.065   5.989  0.00  0.00     0.174 HD
ATOM     45  H   ARG d   1     -11.829  11.096   5.434  0.00  0.00     0.174 HD
ATOM     46  H   ARG d   1     -10.688  13.473   7.691  0.00  0.00     0.177 HD
ENDBRANCH  35  38
ENDBRANCH  32  35
ENDBRANCH  29  32
ENDBRANCH  13  29
ENDBRANCH  10  13
ENDBRANCH   7   9
BRANCH   7  47
ATOM     47  CB  THR d   1     -10.447   9.293  14.957  0.00  0.00     0.060 C 
ATOM     48  H   THR d   1     -10.337   8.225  15.144  0.00  0.00     0.086 H 
BRANCH  47  49
ATOM     49  OG1 THR d   1     -11.496   9.826  15.773  0.00  0.00    -0.393 OA
ATOM     50  H   THR d   1     -11.282   9.687  16.698  0.00  0.00     0.210 HD
ENDBRANCH  47  49
BRANCH  47  51
ATOM     51  CG2 THR d   1      -9.138   9.975  15.291  0.00  0.00    -0.050 C 
ATOM     52  H   THR d   1      -8.346   9.566  14.664  0.00  0.00     0.031 H 
ATOM     53  H   THR d   1      -9.231  11.046  15.109  0.00  0.00     0.031 H 
ATOM     54  H   THR d   1      -8.898   9.803  16.340  0.00  0.00     0.031 H 
ENDBRANCH  47  51
ENDBRANCH   7  47
ENDBRANCH   4   7
ENDBRANCH   1   3
BRANCH   1  55
ATOM     55  C   LYS d   1     -14.554   7.500  14.116  0.00  0.00     0.241 C 
ATOM     56  O   LYS d   1     -15.762   7.587  13.884  0.00  0.00    -0.271 OA
ATOM     57  N   GLN d   1     -14.017   7.848  15.272  0.00  0.00    -0.346 N 
ATOM     58  H   GLN d   1     -13.008   7.788  15.406  0.00  0.00     0.163 HD
BRANCH  57  59
ATOM     59  CA  GLN d   1     -14.865   8.314  16.348  0.00  0.00     0.090 C 
ATOM     60  H   GLN d   1     -15.686   7.604  16.454  0.00  0.00     0.087 H 
BRANCH  59  61
ATOM     61  C   GLN d   1     -15.475   9.675  16.027  0.00  0.00     0.241 C 
ATOM     62  O   GLN d   1     -16.655   9.903  16.275  0.00  0.00    -0.271 OA
ATOM     63  N   THR d   1     -14.683  10.569  15.447  0.00  0.00    -0.344 N 
ATOM     64  H   THR d   1     -13.725  10.318  15.202  0.00  0.00     0.163 HD
BRANCH  63  65
ATOM     65  CA  THR d   1     -15.180  11.907  15.160  0.00  0.00     0.113 C 
ATOM     66  H   THR d   1     -15.934  12.123  15.916  0.00  0.00     0.091 H 
BRANCH  65  67
ATOM     67  C   THR d   1     -15.869  11.986  13.796  0.00  0.00     0.243 C 
ATOM     68  O   THR d   1     -16.628  12.916  13.534  0.00  0.00    -0.271 OA
ATOM     69  N   ALA d   1     -15.623  10.998  12.944  0.00  0.00    -0.345 N 
ATOM     70  H   ALA d   1     -14.954  10.273  13.204  0.00  0.00     0.163 HD
BRANCH  69  71
ATOM     71  CA  ALA d   1     -16.284  10.923  11.646  0.00  0.00     0.093 C 
ATOM     72  H   ALA d   1     -16.256  11.909  11.183  0.00  0.00     0.089 H 
BRANCH  71  73
ATOM     73  C   ALA d   1     -17.752  10.517  11.820  0.00  0.00     0.196 C 
ATOM     74  O   ALA d   1     -18.220  10.307  12.955  0.00  0.00    -0.646 OA
ATOM     75  O   ALA d   1     -18.491  10.395  10.807  0.00  0.00    -0.646 OA
ENDBRANCH  71  73
BRANCH  71  76
ATOM     76  CB  ALA d   1     -15.543   9.941  10.713  0.00  0.00    -0.048 C 
ATOM     77  H   ALA d   1     -14.518  10.283  10.568  0.00  0.00     0.030 H 
ATOM     78  H   ALA d   1     -15.536   8.949  11.164  0.00  0.00     0.030 H 
ATOM     79  H   ALA d   1     -16.053   9.901   9.751  0.00  0.00     0.030 H 
ENDBRANCH  71  76
ENDBRANCH  69  71
ENDBRANCH  65  67
BRANCH  65  80
ATOM     80  CB  THR d   1     -14.074  12.982  15.295  0.00  0.00     0.060 C 
ATOM     81  H   THR d   1     -14.521  13.964  15.142  0.00  0.00     0.086 H 
BRANCH  80  82
ATOM     82  OG1 THR d   1     -13.056  12.776  14.301  0.00  0.00    -0.393 OA
ATOM     83  H   THR d   1     -12.377  13.448  14.396  0.00  0.00     0.210 HD
ENDBRANCH  80  82
BRANCH  80  84
ATOM     84  CG2 THR d   1     -13.462  12.932  16.684  0.00  0.00    -0.050 C 
ATOM     85  H   THR d   1     -14.236  13.120  17.428  0.00  0.00     0.031 H 
ATOM     86  H   THR d   1     -13.026  11.947  16.852  0.00  0.00     0.031 H 
ATOM     87  H   THR d   1     -12.686  13.693  16.765  0.00  0.00     0.031 H 
ENDBRANCH  80  84
ENDBRANCH  65  80
ENDBRANCH  63  65
ENDBRANCH  59  61
BRANCH  59  88
ATOM     88  CB  GLN d   1     -14.104   8.351  17.661  0.00  0.00    -0.030 C 
ATOM     89  H   GLN d   1     -13.218   8.972  17.527  0.00  0.00     0.037 H 
ATOM     90  H   GLN d   1     -13.842   7.329  17.935  0.00  0.00     0.037 H 
BRANCH  88  91
ATOM     91  CG  GLN d   1     -14.926   8.935  18.758  0.00  0.00     0.011 C 
ATOM     92  H   GLN d   1     -15.771   8.272  18.945  0.00  0.00     0.047 H 
ATOM     93  H   GLN d   1     -15.254   9.928  18.450  0.00  0.00     0.047 H 
BRANCH  91  94
ATOM     94  CD  GLN d   1     -14.146   9.068  20.017  0.00  0.00     0.215 C 
ATOM     95  OE1 GLN d   1     -13.060   9.669  20.035  0.00  0.00    -0.274 OA
ATOM     96  NE2 GLN d   1     -14.680   8.500  21.100  0.00  0.00    -0.370 N 
ATOM     97  H   GLN d   1     -14.192   8.549  21.994  0.00  0.00     0.159 HD
ATOM     98  H   GLN d   1     -15.576   8.017  21.033  0.00  0.00     0.159 HD
ENDBRANCH  91  94
ENDBRANCH  88  91
ENDBRANCH  59  88
ENDBRANCH  57  59
ENDBRANCH   1  55
BRANCH   1  99
ATOM     99  CB  LYS d   1     -13.461   5.456  13.266  0.00  0.00    -0.038 C 
ATOM    100  H   LYS d   1     -14.270   5.145  13.927  0.00  0.00     0.036 H 
ATOM    101  H   LYS d   1     -12.462   5.264  13.659  0.00  0.00     0.036 H 
BRANCH  99 102
ATOM    102  CG  LYS d   1     -13.595   4.677  12.018  0.00  0.00    -0.061 C 
ATOM    103  H   LYS d   1     -13.405   3.625  12.230  0.00  0.00     0.033 H 
ATOM    104  H   LYS d   1     -12.876   5.046  11.286  0.00  0.00     0.033 H 
BRANCH 102 105
ATOM    105  CD  LYS d   1     -14.989   4.827  11.463  0.00  0.00    -0.043 C 
ATOM    106  H   LYS d   1     -15.140   5.862  11.155  0.00  0.00     0.035 H 
ATOM    107  H   LYS d   1     -15.710   4.552  12.233  0.00  0.00     0.035 H 
BRANCH 105 108
ATOM    108  CE  LYS d   1     -15.177   3.928  10.271  0.00  0.00     0.080 C 
ATOM    109  H   LYS d   1     -16.228   3.952   9.985  0.00  0.00     0.075 H 
ATOM    110  H   LYS d   1     -14.857   2.923  10.545  0.00  0.00     0.075 H 
BRANCH 108 111
ATOM    111  NZ  LYS d   1     -14.370   4.375   9.118  0.00  0.00    -0.079 N 
ATOM    112  H   LYS d   1     -14.523   3.743   8.332  0.00  0.00     0.274 HD
ATOM    113  H   LYS d   1     -14.649   5.320   8.855  0.00  0.00     0.274 HD
ATOM    114  H   LYS d   1     -13.382   4.369   9.373  0.00  0.00     0.274 HD
ENDBRANCH 108 111
ENDBRANCH 105 108
ENDBRANCH 102 105
ENDBRANCH  99 102
ENDBRANCH   1  99
TORSDOF 34
