REMARK  6 active torsions:
REMARK  status: ('A' for Active; 'I' for Inactive)
REMARK    1  A    between atoms: C1_1  and  O2_2 
REMARK    2  A    between atoms: O2_2  and  C3_3 
REMARK    3  A    between atoms: C5_5  and  C6_6 
REMARK    4  A    between atoms: C7_7  and  C8_8 
REMARK    5  A    between atoms: C8_8  and  N9_9 
REMARK    6  A    between atoms: C8_8  and  C14_14 
REMARK       I    between atoms: N9_9  and  C10_10 
REMARK       I    between atoms: C10_10  and  N12_12 
ROOT
ATOM      1  O2  H10 d   1       5.518-134.220  18.185  0.00  0.00    -0.340 OA
ENDROOT
BRANCH   1   2
ATOM      2  C1  H10 d   1       4.415-134.986  18.725  0.00  0.00     0.069 C 
ATOM      3  C18 H10 d   1       4.532-134.878  20.314  0.00  0.00    -0.032 C 
ATOM      4  C19 H10 d   1       3.331-135.710  20.992  0.00  0.00    -0.051 C 
ATOM      5  H   H10 d   1       4.468-133.832  20.615  0.00  0.00     0.038 H 
ATOM      6  H   H10 d   1       5.489-135.287  20.639  0.00  0.00     0.038 H 
ATOM      7  C20 H10 d   1       1.928-135.106  20.514  0.00  0.00    -0.058 C 
ATOM      8  C24 H10 d   1       3.406-137.251  20.550  0.00  0.00    -0.058 C 
ATOM      9  H   H10 d   1       3.423-135.638  22.076  0.00  0.00     0.040 H 
ATOM     10  C21 H10 d   1       1.817-135.187  18.941  0.00  0.00    -0.051 C 
ATOM     11  H   H10 d   1       1.860-134.064  20.826  0.00  0.00     0.034 H 
ATOM     12  H   H10 d   1       1.117-135.681  20.962  0.00  0.00     0.034 H 
ATOM     13  C22 H10 d   1       1.921-136.707  18.458  0.00  0.00    -0.058 C 
ATOM     14  C26 H10 d   1       2.986-134.353  18.330  0.00  0.00    -0.032 C 
ATOM     15  H   H10 d   1       0.856-134.790  18.613  0.00  0.00     0.040 H 
ATOM     16  C23 H10 d   1       3.300-137.336  18.954  0.00  0.00    -0.051 C 
ATOM     17  H   H10 d   1       1.878-136.744  17.369  0.00  0.00     0.034 H 
ATOM     18  H   H10 d   1       1.092-137.277  18.878  0.00  0.00     0.034 H 
ATOM     19  C25 H10 d   1       4.502-136.540  18.323  0.00  0.00    -0.032 C 
ATOM     20  H   H10 d   1       3.338-138.380  18.643  0.00  0.00     0.040 H 
ATOM     21  H   H10 d   1       5.438-136.953  18.699  0.00  0.00     0.038 H 
ATOM     22  H   H10 d   1       4.457-136.630  17.238  0.00  0.00     0.038 H 
ATOM     23  H   H10 d   1       2.889-134.358  17.244  0.00  0.00     0.038 H 
ATOM     24  H   H10 d   1       2.933-133.337  18.722  0.00  0.00     0.038 H 
ATOM     25  H   H10 d   1       2.586-137.806  21.005  0.00  0.00     0.034 H 
ATOM     26  H   H10 d   1       4.350-137.685  20.881  0.00  0.00     0.034 H 
ENDBRANCH   1   2
BRANCH   1  27
ATOM     27  C3  H10 d   1       5.807-134.038  16.833  0.00  0.00     0.071 A 
ATOM     28  C4  H10 d   1       6.738-134.892  16.159  0.00  0.00    -0.033 A 
ATOM     29  C5  H10 d   1       7.045-134.672  14.775  0.00  0.00     0.020 A 
ATOM     30  H   H10 d   1       7.214-135.711  16.698  0.00  0.00     0.090 H 
ATOM     31  C15 H10 d   1       6.425-133.603  14.051  0.00  0.00    -0.065 A 
ATOM     32  C16 H10 d   1       5.485-132.738  14.689  0.00  0.00    -0.079 A 
ATOM     33  H   H10 d   1       6.673-133.448  13.001  0.00  0.00     0.085 H 
ATOM     34  C17 H10 d   1       5.178-132.946  16.074  0.00  0.00    -0.051 A 
ATOM     35  H   H10 d   1       5.008-131.932  14.132  0.00  0.00     0.083 H 
ATOM     36  H   H10 d   1       4.468-132.285  16.572  0.00  0.00     0.087 H 
BRANCH  29  37
ATOM     37  C6  H10 d   1       7.993-135.524  14.153  0.00  0.00    -0.065 C 
ATOM     38  C7  H10 d   1       8.777-136.228  13.666  0.00  0.00    -0.073 C 
BRANCH  38  39
ATOM     39  C8  H10 d   1       9.766-137.108  13.050  0.00  0.00     0.101 C 
ATOM     40  H   H10 d   1       9.399-137.806  12.298  0.00  0.00     0.096 H 
BRANCH  39  41
ATOM     41  N9  H10 d   1      10.305-137.813  14.252  0.00  0.00    -0.158 N 
ATOM     42  C10 H10 d   1       9.904-139.111  14.595  0.00  0.00     0.343 C 
ATOM     43  O11 H10 d   1       9.075-139.778  13.918  0.00  0.00    -0.245 OA
ATOM     44  N12 H10 d   1      10.424-139.673  15.711  0.00  0.00    -0.350 N 
ATOM     45  H   H10 d   1      10.143-140.614  15.986  0.00  0.00     0.160 HD
ATOM     46  H   H10 d   1      11.097-139.155  16.277  0.00  0.00     0.160 HD
ATOM     47  O13 H10 d   1      11.134-137.235  14.992  0.00  0.00    -0.080 OA
ENDBRANCH  39  41
BRANCH  39  48
ATOM     48  C14 H10 d   1      10.830-136.240  12.271  0.00  0.00    -0.045 C 
ATOM     49  H   H10 d   1      11.230-135.475  12.936  0.00  0.00     0.031 H 
ATOM     50  H   H10 d   1      11.640-136.883  11.927  0.00  0.00     0.031 H 
ATOM     51  H   H10 d   1      10.352-135.765  11.414  0.00  0.00     0.031 H 
ENDBRANCH  39  48
ENDBRANCH  38  39
ENDBRANCH  29  37
ENDBRANCH   1  27
TORSDOF 6
