REMARK  28 active torsions:
REMARK  status: ('A' for Active; 'I' for Inactive)
REMARK    1  A    between atoms: N_1  and  CA_2 
REMARK    2  A    between atoms: CA_2  and  C_3 
REMARK    3  A    between atoms: CA_2  and  CB_5 
REMARK       I    between atoms: C_3  and  N_10 
REMARK    4  A    between atoms: CB_5  and  CG_6 
REMARK    5  A    between atoms: CG_6  and  CD_7 
REMARK       I    between atoms: CD_7  and  NE2_9 
REMARK    6  A    between atoms: N_10  and  CA_11 
REMARK    7  A    between atoms: CA_11  and  C_12 
REMARK    8  A    between atoms: CA_11  and  CB_14 
REMARK       I    between atoms: C_12  and  N_15 
REMARK    9  A    between atoms: N_15  and  CA_16 
REMARK   10  A    between atoms: CA_16  and  CB_17 
REMARK   11  A    between atoms: CA_16  and  C_19 
REMARK   12  A    between atoms: CB_17  and  OG_18 
REMARK   13  A    between atoms: OG_18  and  P_21 
REMARK       I    between atoms: C_19  and  N_25 
REMARK   14  A    between atoms: N_25  and  CA_26 
REMARK   15  A    between atoms: CA_26  and  C_27 
REMARK   16  A    between atoms: CA_26  and  CB_29 
REMARK       I    between atoms: C_27  and  N_34 
REMARK   17  A    between atoms: CB_29  and  CG_30 
REMARK   18  A    between atoms: CG_30  and  CD_31 
REMARK       I    between atoms: CD_31  and  NE2_33 
REMARK   19  A    between atoms: N_34  and  CA_35 
REMARK   20  A    between atoms: CA_35  and  C_36 
REMARK   21  A    between atoms: CA_35  and  CB_38 
REMARK       I    between atoms: C_36  and  N_43 
REMARK   22  A    between atoms: CB_38  and  CG_39 
REMARK   23  A    between atoms: CG_39  and  CD_40 
REMARK   24  A    between atoms: N_43  and  CA_44 
REMARK   25  A    between atoms: CA_44  and  C_45 
REMARK   26  A    between atoms: CA_44  and  CB_47 
REMARK   27  A    between atoms: CB_47  and  CG_48 
REMARK   28  A    between atoms: CZ_53  and  OH_54 
ROOT
ATOM      1  CA  GLN d   1      30.660   2.246  15.683  0.00  0.00     0.090 C 
ATOM      2  H   GLN d   1      29.918   1.468  15.864  0.00  0.00     0.087 H 
ENDROOT
BRANCH   1   3
ATOM      3  N   GLN d   1      31.596   2.308  16.783  0.00  0.00    -0.346 N 
ATOM      4  C   SEP d   1      32.446   1.364  17.113  0.00  0.00     0.243 C 
ATOM      5  O   SEP d   1      32.432   0.268  16.619  0.00  0.00    -0.271 OA
ATOM      6  H   GLN d   1      31.596   3.156  17.350  0.00  0.00     0.163 HD
BRANCH   4   7
ATOM      7  CA  SEP d   1      33.385   1.700  18.288  0.00  0.00     0.110 C 
ATOM      8  H   SEP d   1      33.017   2.579  18.817  0.00  0.00     0.090 H 
BRANCH   7   9
ATOM      9  N   SEP d   1      33.399   0.554  19.204  0.00  0.00    -0.344 N 
ATOM     10  C   ALA d   1      32.259   0.191  19.786  0.00  0.00     0.240 C 
ATOM     11  O   ALA d   1      31.259   0.901  19.750  0.00  0.00    -0.271 OA
ATOM     12  H   SEP d   1      34.264   0.047  19.391  0.00  0.00     0.163 HD
BRANCH  10  13
ATOM     13  CA  ALA d   1      32.234  -1.156  20.522  0.00  0.00     0.086 C 
ATOM     14  H   ALA d   1      33.240  -1.304  20.914  0.00  0.00     0.086 H 
BRANCH  13  15
ATOM     15  N   ALA d   1      31.319  -1.159  21.666  0.00  0.00    -0.346 N 
ATOM     16  C   GLN d   1      31.789  -0.997  22.906  0.00  0.00     0.248 C 
ATOM     17  O   GLN d   1      32.958  -0.660  23.148  0.00  0.00    -0.271 OA
ATOM     18  H   ALA d   1      30.318  -1.285  21.515  0.00  0.00     0.163 HD
BRANCH  16  19
ATOM     19  CA  GLN d   1      30.819  -1.267  24.053  0.00  0.00     0.176 C 
ATOM     20  H   GLN d   1      30.227  -2.150  23.811  0.00  0.00     0.099 H 
BRANCH  19  21
ATOM     21  N   GLN d   1      31.591  -1.519  25.307  0.00  0.00    -0.066 N 
ATOM     22  H   GLN d   1      32.233  -2.298  25.159  0.00  0.00     0.275 HD
ATOM     23  H   GLN d   1      32.120  -0.682  25.553  0.00  0.00     0.275 HD
ATOM     24  H   GLN d   1      30.945  -1.748  26.062  0.00  0.00     0.275 HD
ENDBRANCH  19  21
BRANCH  19  25
ATOM     25  CB  GLN d   1      29.846  -0.104  24.241  0.00  0.00    -0.022 C 
ATOM     26  H   GLN d   1      29.388   0.100  23.273  0.00  0.00     0.037 H 
ATOM     27  H   GLN d   1      30.413   0.737  24.639  0.00  0.00     0.037 H 
BRANCH  25  28
ATOM     28  CG  GLN d   1      28.721  -0.406  25.226  0.00  0.00     0.011 C 
ATOM     29  H   GLN d   1      29.174  -0.668  26.182  0.00  0.00     0.047 H 
ATOM     30  H   GLN d   1      28.120  -1.215  24.810  0.00  0.00     0.047 H 
BRANCH  28  31
ATOM     31  CD  GLN d   1      27.794   0.803  25.457  0.00  0.00     0.215 C 
ATOM     32  OE1 GLN d   1      28.199   1.955  25.279  0.00  0.00    -0.274 OA
ATOM     33  NE2 GLN d   1      26.547   0.533  25.856  0.00  0.00    -0.370 N 
ATOM     34  H   GLN d   1      25.890   1.294  26.025  0.00  0.00     0.159 HD
ATOM     35  H   GLN d   1      26.253  -0.434  25.991  0.00  0.00     0.159 HD
ENDBRANCH  28  31
ENDBRANCH  25  28
ENDBRANCH  19  25
ENDBRANCH  16  19
ENDBRANCH  13  15
BRANCH  13  36
ATOM     36  CB  ALA d   1      31.908  -2.327  19.560  0.00  0.00    -0.049 C 
ATOM     37  H   ALA d   1      32.011  -3.272  20.093  0.00  0.00     0.030 H 
ATOM     38  H   ALA d   1      30.886  -2.223  19.196  0.00  0.00     0.030 H 
ATOM     39  H   ALA d   1      32.599  -2.306  18.717  0.00  0.00     0.030 H 
ENDBRANCH  13  36
ENDBRANCH  10  13
ENDBRANCH   7   9
BRANCH   7  40
ATOM     40  CB  SEP d   1      34.780   2.067  17.805  0.00  0.00     0.059 C 
ATOM     41  H   SEP d   1      34.699   2.813  17.014  0.00  0.00     0.079 H 
ATOM     42  H   SEP d   1      35.274   1.171  17.429  0.00  0.00     0.079 H 
BRANCH  40  43
ATOM     43  OG  SEP d   1      35.545   2.606  18.875  0.00  0.00    -0.280 OA
BRANCH  43  44
ATOM     44  P   SEP d   1      37.074   2.184  18.828  0.00  0.00     0.422 P 
ATOM     45  O1P SEP d   1      37.799   2.965  20.020  0.00  0.00    -0.617 OA
ATOM     46  O2P SEP d   1      37.333   0.627  18.847  0.00  0.00    -0.617 OA
ATOM     47  O3P SEP d   1      37.720   2.753  17.482  0.00  0.00    -0.617 OA
ENDBRANCH  43  44
ENDBRANCH  40  43
ENDBRANCH   7  40
ENDBRANCH   4   7
ENDBRANCH   1   3
BRANCH   1  48
ATOM     48  C   GLN d   1      31.359   1.885  14.365  0.00  0.00     0.241 C 
ATOM     49  O   GLN d   1      32.387   2.457  14.028  0.00  0.00    -0.271 OA
ATOM     50  N   GLU d   1      30.821   0.897  13.667  0.00  0.00    -0.346 N 
ATOM     51  H   GLU d   1      30.097   0.323  14.099  0.00  0.00     0.163 HD
BRANCH  50  52
ATOM     52  CA  GLU d   1      31.231   0.606  12.305  0.00  0.00     0.090 C 
ATOM     53  H   GLU d   1      32.304   0.771  12.213  0.00  0.00     0.087 H 
BRANCH  52  54
ATOM     54  C   GLU d   1      30.480   1.536  11.347  0.00  0.00     0.241 C 
ATOM     55  O   GLU d   1      29.308   1.801  11.534  0.00  0.00    -0.271 OA
ATOM     56  N   TYR d   1      31.179   2.047  10.342  0.00  0.00    -0.344 N 
ATOM     57  H   TYR d   1      32.174   1.833  10.273  0.00  0.00     0.163 HD
BRANCH  56  58
ATOM     58  CA  TYR d   1      30.557   2.921   9.315  0.00  0.00     0.100 C 
ATOM     59  H   TYR d   1      29.507   3.044   9.581  0.00  0.00     0.090 H 
BRANCH  58  60
ATOM     60  C   TYR d   1      30.640   2.282   7.926  0.00  0.00     0.197 C 
ATOM     61  O   TYR d   1      31.465   1.380   7.658  0.00  0.00    -0.646 OA
ATOM     62  OXT TYR d   1      29.855   2.678   7.047  0.00  0.00    -0.646 OA
ENDBRANCH  58  60
BRANCH  58  63
ATOM     63  CB  TYR d   1      31.222   4.291   9.293  0.00  0.00    -0.013 C 
ATOM     64  H   TYR d   1      30.796   4.852   8.461  0.00  0.00     0.043 H 
ATOM     65  H   TYR d   1      32.297   4.135   9.199  0.00  0.00     0.043 H 
BRANCH  63  66
ATOM     66  CG  TYR d   1      30.983   5.088  10.554  0.00  0.00    -0.056 A 
ATOM     67  CD1 TYR d   1      29.808   5.828  10.727  0.00  0.00    -0.074 A 
ATOM     68  CE1 TYR d   1      29.580   6.532  11.882  0.00  0.00    -0.051 A 
ATOM     69  H   TYR d   1      29.063   5.845   9.932  0.00  0.00     0.084 H 
ATOM     70  CZ  TYR d   1      30.552   6.521  12.881  0.00  0.00     0.065 A 
ATOM     71  H   TYR d   1      28.654   7.091  12.016  0.00  0.00     0.087 H 
ATOM     72  CE2 TYR d   1      31.732   5.826  12.727  0.00  0.00    -0.051 A 
ATOM     73  CD2 TYR d   1      31.924   5.090  11.572  0.00  0.00    -0.074 A 
ATOM     74  H   TYR d   1      32.499   5.856  13.501  0.00  0.00     0.087 H 
ATOM     75  H   TYR d   1      32.833   4.500  11.460  0.00  0.00     0.084 H 
BRANCH  70  76
ATOM     76  OH  TYR d   1      30.359   7.213  14.024  0.00  0.00    -0.361 OA
ATOM     77  H   TYR d   1      29.502   7.645  13.995  0.00  0.00     0.217 HD
ENDBRANCH  70  76
ENDBRANCH  63  66
ENDBRANCH  58  63
ENDBRANCH  56  58
ENDBRANCH  52  54
BRANCH  52  78
ATOM     78  CB  GLU d   1      30.948  -0.849  11.954  0.00  0.00    -0.029 C 
ATOM     79  H   GLU d   1      29.872  -1.010  12.020  0.00  0.00     0.037 H 
ATOM     80  H   GLU d   1      31.503  -1.479  12.649  0.00  0.00     0.037 H 
BRANCH  78  81
ATOM     81  CG  GLU d   1      31.397  -1.201  10.526  0.00  0.00     0.018 C 
ATOM     82  H   GLU d   1      32.464  -0.988  10.453  0.00  0.00     0.049 H 
ATOM     83  H   GLU d   1      30.793  -0.613   9.836  0.00  0.00     0.049 H 
BRANCH  81  84
ATOM     84  CD  GLU d   1      31.196  -2.669  10.178  0.00  0.00     0.172 C 
ATOM     85  OE1 GLU d   1      30.329  -3.323  10.797  0.00  0.00    -0.648 OA
ATOM     86  OE2 GLU d   1      31.917  -3.149   9.269  0.00  0.00    -0.648 OA
ENDBRANCH  81  84
ENDBRANCH  78  81
ENDBRANCH  52  78
ENDBRANCH  50  52
ENDBRANCH   1  48
BRANCH   1  87
ATOM     87  CB  GLN d   1      30.007   3.634  15.579  0.00  0.00    -0.030 C 
ATOM     88  H   GLN d   1      30.818   4.351  15.447  0.00  0.00     0.037 H 
ATOM     89  H   GLN d   1      29.409   3.765  16.481  0.00  0.00     0.037 H 
BRANCH  87  90
ATOM     90  CG  GLN d   1      29.074   3.822  14.414  0.00  0.00     0.011 C 
ATOM     91  H   GLN d   1      29.564   3.444  13.517  0.00  0.00     0.047 H 
ATOM     92  H   GLN d   1      28.841   4.883  14.328  0.00  0.00     0.047 H 
BRANCH  90  93
ATOM     93  CD  GLN d   1      27.806   3.078  14.604  0.00  0.00     0.215 C 
ATOM     94  OE1 GLN d   1      27.587   2.027  13.982  0.00  0.00    -0.274 OA
ATOM     95  NE2 GLN d   1      26.946   3.595  15.485  0.00  0.00    -0.370 N 
ATOM     96  H   GLN d   1      26.062   3.122  15.672  0.00  0.00     0.159 HD
ATOM     97  H   GLN d   1      27.173   4.463  15.971  0.00  0.00     0.159 HD
ENDBRANCH  90  93
ENDBRANCH  87  90
ENDBRANCH   1  87
TORSDOF 28
