REMARK  9 active torsions:
REMARK  status: ('A' for Active; 'I' for Inactive)
REMARK    1  A    between atoms: CAK_11  and  CAA_1 
REMARK    2  A    between atoms: CAL_12  and  CAB_2 
REMARK    3  A    between atoms: NBB_28  and  CAC_3 
REMARK    4  A    between atoms: CAM_13  and  CAK_11 
REMARK    5  A    between atoms: CAW_23  and  CAL_12 
REMARK    6  A    between atoms: OAT_20  and  CAM_13 
REMARK    7  A    between atoms: CAV_22  and  OAT_20 
REMARK    8  A    between atoms: SBD_30  and  CAU_21 
REMARK    9  A    between atoms: NBC_29  and  SBD_30 
ROOT
ATOM      1  OAD 5FO d   1     -46.167  18.947  38.675  0.00  0.00    -0.265 OA
ATOM      2  FAG 5FO d   1     -45.016  17.241  36.823  0.00  0.00    -0.198 F 
ATOM      3  CAH 5FO d   1     -45.468  14.991  44.768  0.00  0.00    -0.058 C 
ATOM      4  CAI 5FO d   1     -46.483  15.806  44.277  0.00  0.00    -0.048 C 
ATOM      5  CAJ 5FO d   1     -44.405  15.074  42.632  0.00  0.00    -0.044 C 
ATOM      6  NAR 5FO d   1     -44.731  15.454  39.953  0.00  0.00    -0.231 NA
ATOM      7  NAS 5FO d   1     -45.843  17.469  40.354  0.00  0.00    -0.305 N 
ATOM      8  CAU 5FO d   1     -44.389  14.681  43.951  0.00  0.00     0.075 C 
ATOM      9  CAV 5FO d   1     -46.452  16.264  42.961  0.00  0.00     0.082 C 
ATOM     10  CAW 5FO d   1     -44.625  15.745  38.646  0.00  0.00     0.080 C 
ATOM     11  CAX 5FO d   1     -45.123  16.953  38.149  0.00  0.00     0.208 C 
ATOM     12  CAY 5FO d   1     -45.353  15.958  42.164  0.00  0.00     0.045 C 
ATOM     13  CAZ 5FO d   1     -45.237  16.323  40.830  0.00  0.00     0.143 C 
ATOM     14  CBA 5FO d   1     -45.714  17.853  39.031  0.00  0.00     0.287 C 
ATOM     15  H   5FO d   1     -45.519  14.600  45.784  0.00  0.00     0.086 H 
ATOM     16  H   5FO d   1     -47.310  16.089  44.928  0.00  0.00     0.087 H 
ATOM     17  H   5FO d   1     -43.655  14.679  41.946  0.00  0.00     0.087 H 
ATOM     18  H   5FO d   1     -46.396  18.043  40.990  0.00  0.00     0.171 HD
ENDROOT
BRANCH   8  19
ATOM     19  SBD 5FO d   1     -43.053  13.686  44.502  0.00  0.00     0.243 S 
ATOM     20  OAE 5FO d   1     -42.874  13.966  45.972  0.00  0.00    -0.206 OA
ATOM     21  OAF 5FO d   1     -41.807  14.136  43.793  0.00  0.00    -0.206 OA
BRANCH  19  22
ATOM     22  NBC 5FO d   1     -43.273  12.051  44.225  0.00  0.00    -0.203 NA
ATOM     23  CAP 5FO d   1     -42.967  11.755  42.810  0.00  0.00     0.018 C 
ATOM     24  CAN 5FO d   1     -43.146  10.255  42.539  0.00  0.00     0.124 C 
ATOM     25  H   5FO d   1     -43.645  12.319  42.170  0.00  0.00     0.060 H 
ATOM     26  H   5FO d   1     -41.936  12.038  42.599  0.00  0.00     0.060 H 
ATOM     27  NBB 5FO d   1     -44.518   9.836  42.820  0.00  0.00     0.086 N 
ATOM     28  H   5FO d   1     -42.469   9.698  43.187  0.00  0.00     0.081 H 
ATOM     29  H   5FO d   1     -42.927  10.059  41.489  0.00  0.00     0.081 H 
ATOM     30  CAO 5FO d   1     -44.813  10.114  44.247  0.00  0.00     0.124 C 
ATOM     31  CAQ 5FO d   1     -44.658  11.615  44.526  0.00  0.00     0.018 C 
ATOM     32  H   5FO d   1     -45.836   9.809  44.470  0.00  0.00     0.081 H 
ATOM     33  H   5FO d   1     -44.117   9.557  44.874  0.00  0.00     0.081 H 
ATOM     34  H   5FO d   1     -44.872  11.807  45.578  0.00  0.00     0.060 H 
ATOM     35  H   5FO d   1     -45.352  12.169  43.894  0.00  0.00     0.060 H 
BRANCH  27  36
ATOM     36  CAC 5FO d   1     -45.396  10.564  41.879  0.00  0.00     0.095 C 
ATOM     37  H   5FO d   1     -45.282  11.637  42.034  0.00  0.00     0.071 H 
ATOM     38  H   5FO d   1     -45.118  10.312  40.856  0.00  0.00     0.071 H 
ATOM     39  H   5FO d   1     -46.433  10.278  42.056  0.00  0.00     0.071 H 
ENDBRANCH  27  36
ENDBRANCH  19  22
ENDBRANCH   8  19
BRANCH   9  40
ATOM     40  OAT 5FO d   1     -47.459  17.037  42.465  0.00  0.00    -0.350 OA
BRANCH  40  41
ATOM     41  CAM 5FO d   1     -48.748  16.815  43.114  0.00  0.00     0.026 C 
ATOM     42  H   5FO d   1     -48.975  15.749  43.141  0.00  0.00     0.075 H 
ATOM     43  H   5FO d   1     -48.719  17.184  44.139  0.00  0.00     0.075 H 
BRANCH  41  44
ATOM     44  CAK 5FO d   1     -49.823  17.563  42.315  0.00  0.00    -0.048 C 
ATOM     45  H   5FO d   1     -49.857  17.147  41.308  0.00  0.00     0.035 H 
ATOM     46  H   5FO d   1     -50.778  17.446  42.827  0.00  0.00     0.035 H 
BRANCH  44  47
ATOM     47  CAA 5FO d   1     -49.506  19.057  42.213  0.00  0.00    -0.075 C 
ATOM     48  H   5FO d   1     -49.457  19.486  43.214  0.00  0.00     0.027 H 
ATOM     49  H   5FO d   1     -48.547  19.190  41.712  0.00  0.00     0.027 H 
ATOM     50  H   5FO d   1     -50.289  19.555  41.641  0.00  0.00     0.027 H 
ENDBRANCH  44  47
ENDBRANCH  41  44
ENDBRANCH  40  41
ENDBRANCH   9  40
BRANCH  10  51
ATOM     51  CAL 5FO d   1     -43.965  14.677  37.776  0.00  0.00    -0.025 C 
ATOM     52  H   5FO d   1     -43.389  15.145  36.978  0.00  0.00     0.042 H 
ATOM     53  H   5FO d   1     -43.283  14.073  38.374  0.00  0.00     0.042 H 
BRANCH  51  54
ATOM     54  CAB 5FO d   1     -45.074  13.796  37.184  0.00  0.00    -0.071 C 
ATOM     55  H   5FO d   1     -45.636  13.329  37.993  0.00  0.00     0.028 H 
ATOM     56  H   5FO d   1     -45.743  14.412  36.583  0.00  0.00     0.028 H 
ATOM     57  H   5FO d   1     -44.627  13.024  36.557  0.00  0.00     0.028 H 
ENDBRANCH  51  54
ENDBRANCH  10  51
TORSDOF 9
