REMARK  9 active torsions:
REMARK  status: ('A' for Active; 'I' for Inactive)
REMARK    1  A    between atoms: CAK_11  and  CAA_1 
REMARK    2  A    between atoms: CAL_12  and  CAB_2 
REMARK    3  A    between atoms: NBB_28  and  CAC_3 
REMARK    4  A    between atoms: CAM_13  and  CAK_11 
REMARK    5  A    between atoms: CAW_23  and  CAL_12 
REMARK    6  A    between atoms: OAT_20  and  CAM_13 
REMARK    7  A    between atoms: CAV_22  and  OAT_20 
REMARK    8  A    between atoms: SBD_30  and  CAU_21 
REMARK    9  A    between atoms: NBC_29  and  SBD_30 
ROOT
ATOM      1  OAD 5BO d   1     -20.559  -8.118  -0.231  0.00  0.00    -0.267 OA
ATOM      2 BRAG 5BO d   1     -18.534  -7.249   1.898  0.00  0.00    -0.043 Br
ATOM      3  CAH 5BO d   1     -20.186  -3.718  -5.940  0.00  0.00    -0.058 C 
ATOM      4  CAI 5BO d   1     -21.262  -4.049  -5.123  0.00  0.00    -0.048 C 
ATOM      5  CAJ 5BO d   1     -18.659  -4.576  -4.303  0.00  0.00    -0.044 C 
ATOM      6  NAR 5BO d   1     -18.505  -4.978  -1.531  0.00  0.00    -0.233 NA
ATOM      7  NAS 5BO d   1     -20.218  -6.565  -1.817  0.00  0.00    -0.306 N 
ATOM      8  CAU 5BO d   1     -18.892  -4.045  -5.557  0.00  0.00     0.075 C 
ATOM      9  CAV 5BO d   1     -21.024  -4.705  -3.914  0.00  0.00     0.082 C 
ATOM     10  CAW 5BO d   1     -18.215  -5.458  -0.308  0.00  0.00     0.059 C 
ATOM     11  CAX 5BO d   1     -18.925  -6.553   0.172  0.00  0.00     0.103 C 
ATOM     12  CAY 5BO d   1     -19.721  -5.035  -3.551  0.00  0.00     0.045 C 
ATOM     13  CAZ 5BO d   1     -19.395  -5.588  -2.323  0.00  0.00     0.143 C 
ATOM     14  CBA 5BO d   1     -19.909  -7.150  -0.613  0.00  0.00     0.266 C 
ATOM     15  H   5BO d   1     -20.359  -3.200  -6.884  0.00  0.00     0.086 H 
ATOM     16  H   5BO d   1     -22.279  -3.799  -5.423  0.00  0.00     0.087 H 
ATOM     17  H   5BO d   1     -17.644  -4.632  -3.910  0.00  0.00     0.087 H 
ATOM     18  H   5BO d   1     -21.051  -6.853  -2.331  0.00  0.00     0.170 HD
ENDROOT
BRANCH   8  19
ATOM     19  SBD 5BO d   1     -17.597  -3.605  -6.618  0.00  0.00     0.243 S 
ATOM     20  OAE 5BO d   1     -16.418  -4.492  -6.305  0.00  0.00    -0.206 OA
ATOM     21  OAF 5BO d   1     -17.245  -2.143  -6.463  0.00  0.00    -0.206 OA
BRANCH  19  22
ATOM     22  NBC 5BO d   1     -18.483  -3.896  -8.101  0.00  0.00    -0.203 NA
ATOM     23  CAP 5BO d   1     -18.250  -5.230  -8.719  0.00  0.00     0.008 C 
ATOM     24  CAN 5BO d   1     -16.793  -5.430  -9.130  0.00  0.00     0.002 C 
ATOM     25  H   5BO d   1     -18.502  -5.993  -7.983  0.00  0.00     0.059 H 
ATOM     26  H   5BO d   1     -18.867  -5.301  -9.614  0.00  0.00     0.059 H 
ATOM     27  NBB 5BO d   1     -16.576  -4.338 -10.103  0.00  0.00    -0.414 N 
ATOM     28  H   5BO d   1     -16.602  -6.418  -9.550  0.00  0.00     0.065 H 
ATOM     29  H   5BO d   1     -16.104  -5.390  -8.286  0.00  0.00     0.065 H 
ATOM     30  CAO 5BO d   1     -16.766  -2.934  -9.647  0.00  0.00     0.002 C 
ATOM     31  CAQ 5BO d   1     -18.225  -2.925  -9.200  0.00  0.00     0.008 C 
ATOM     32  H   5BO d   1     -16.075  -2.646  -8.855  0.00  0.00     0.065 H 
ATOM     33  H   5BO d   1     -16.554  -2.200 -10.425  0.00  0.00     0.065 H 
ATOM     34  H   5BO d   1     -18.843  -3.206 -10.053  0.00  0.00     0.059 H 
ATOM     35  H   5BO d   1     -18.461  -1.926  -8.832  0.00  0.00     0.059 H 
BRANCH  27  36
ATOM     36  CAC 5BO d   1     -15.673  -4.603 -11.237  0.00  0.00    -0.023 C 
ATOM     37  H   5BO d   1     -14.681  -4.853 -10.860  0.00  0.00     0.055 H 
ATOM     38  H   5BO d   1     -16.061  -5.437 -11.822  0.00  0.00     0.055 H 
ATOM     39  H   5BO d   1     -15.610  -3.715 -11.865  0.00  0.00     0.055 H 
ENDBRANCH  27  36
ENDBRANCH  19  22
ENDBRANCH   8  19
BRANCH   9  40
ATOM     40  OAT 5BO d   1     -22.046  -4.956  -3.072  0.00  0.00    -0.350 OA
BRANCH  40  41
ATOM     41  CAM 5BO d   1     -23.348  -4.861  -3.651  0.00  0.00     0.026 C 
ATOM     42  H   5BO d   1     -23.491  -3.902  -4.148  0.00  0.00     0.075 H 
ATOM     43  H   5BO d   1     -23.496  -5.620  -4.419  0.00  0.00     0.075 H 
BRANCH  41  44
ATOM     44  CAK 5BO d   1     -24.341  -5.042  -2.487  0.00  0.00    -0.048 C 
ATOM     45  H   5BO d   1     -24.149  -4.261  -1.751  0.00  0.00     0.035 H 
ATOM     46  H   5BO d   1     -25.352  -4.985  -2.890  0.00  0.00     0.035 H 
BRANCH  44  47
ATOM     47  CAA 5BO d   1     -24.177  -6.404  -1.795  0.00  0.00    -0.075 C 
ATOM     48  H   5BO d   1     -24.351  -7.201  -2.518  0.00  0.00     0.027 H 
ATOM     49  H   5BO d   1     -23.166  -6.488  -1.396  0.00  0.00     0.027 H 
ATOM     50  H   5BO d   1     -24.898  -6.486  -0.982  0.00  0.00     0.027 H 
ENDBRANCH  44  47
ENDBRANCH  41  44
ENDBRANCH  40  41
ENDBRANCH   9  40
BRANCH  10  51
ATOM     51  CAL 5BO d   1     -17.116  -4.761   0.496  0.00  0.00    -0.026 C 
ATOM     52  H   5BO d   1     -16.585  -5.489   1.109  0.00  0.00     0.041 H 
ATOM     53  H   5BO d   1     -16.402  -4.291  -0.180  0.00  0.00     0.041 H 
BRANCH  51  54
ATOM     54  CAB 5BO d   1     -17.768  -3.695   1.395  0.00  0.00    -0.071 C 
ATOM     55  H   5BO d   1     -18.292  -2.969   0.774  0.00  0.00     0.028 H 
ATOM     56  H   5BO d   1     -18.476  -4.175   2.071  0.00  0.00     0.028 H 
ATOM     57  H   5BO d   1     -16.996  -3.189   1.975  0.00  0.00     0.028 H 
ENDBRANCH  51  54
ENDBRANCH  10  51
TORSDOF 9
