REMARK  22 active torsions:
REMARK  status: ('A' for Active; 'I' for Inactive)
REMARK    1  A    between atoms: C02_2  and  C01_1 
REMARK    2  A    between atoms: C01_1  and  C57_28 
REMARK    3  A    between atoms: C04_4  and  C02_2 
REMARK    4  A    between atoms: C04_4  and  C05_5 
REMARK    5  A    between atoms: C47_24  and  C04_4 
REMARK    6  A    between atoms: C05_5  and  C06_6 
REMARK    7  A    between atoms: N12_12  and  C13_13 
REMARK       I    between atoms: N12_12  and  C47_24 
REMARK    8  A    between atoms: C13_13  and  C14_14 
REMARK    9  A    between atoms: C13_13  and  C19_19 
REMARK   10  A    between atoms: C14_14  and  C15_15 
REMARK   11  A    between atoms: C16_16  and  O18_18 
REMARK   12  A    between atoms: C19_19  and  C20_20 
REMARK   13  A    between atoms: C20_20  and  C21_21 
REMARK   14  A    between atoms: C21_21  and  O22_22 
REMARK   15  A    between atoms: O22_22  and  C50_26 
REMARK   16  A    between atoms: C50_26  and  C53_27 
REMARK   17  A    between atoms: C57_28  and  N58_29 
REMARK   18  A    between atoms: C57_28  and  C78_32 
REMARK       I    between atoms: N58_29  and  C59_30 
REMARK   19  A    between atoms: C59_30  and  C1_38 
REMARK   20  A    between atoms: C78_32  and  C81_33 
REMARK   21  A    between atoms: C78_32  and  C82_35 
REMARK   22  A    between atoms: C3_40  and  C4_43 
ROOT
ATOM      1  C04 AG7 d   1      -7.081  -8.892  -1.783  0.00  0.00     0.034 C 
ATOM      2  H   AG7 d   1      -6.828  -9.641  -2.533  0.00  0.00     0.055 H 
ENDROOT
BRANCH   1   3
ATOM      3  C02 AG7 d   1      -8.125  -7.993  -2.461  0.00  0.00     0.004 C 
ATOM      4  H   AG7 d   1      -8.273  -7.141  -1.798  0.00  0.00     0.045 H 
ATOM      5  H   AG7 d   1      -7.734  -7.763  -3.452  0.00  0.00     0.045 H 
BRANCH   3   6
ATOM      6  C01 AG7 d   1      -9.535  -8.629  -2.681  0.00  0.00     0.150 C 
ATOM      7  O03 AG7 d   1      -9.698  -9.830  -2.504  0.00  0.00    -0.296 OA
BRANCH   6   8
ATOM      8  C57 AG7 d   1     -10.732  -7.777  -3.190  0.00  0.00     0.073 C 
ATOM      9  H   AG7 d   1     -10.297  -6.889  -3.650  0.00  0.00     0.085 H 
BRANCH   8  10
ATOM     10  N58 AG7 d   1     -11.479  -8.465  -4.223  0.00  0.00    -0.344 N 
ATOM     11  C59 AG7 d   1     -11.627  -7.927  -5.561  0.00  0.00     0.273 C 
ATOM     12  O60 AG7 d   1     -11.056  -6.905  -5.894  0.00  0.00    -0.266 OA
ATOM     13  H   AG7 d   1     -11.916  -9.359  -4.001  0.00  0.00     0.163 HD
BRANCH  11  14
ATOM     14  C1  AG7 d   1     -12.496  -8.693  -6.550  0.00  0.00     0.154 A 
ATOM     15  C2  AG7 d   1     -12.837  -8.320  -7.824  0.00  0.00    -0.017 A 
ATOM     16  C3  AG7 d   1     -13.653  -9.345  -8.367  0.00  0.00     0.077 A 
ATOM     17  H   AG7 d   1     -12.536  -7.402  -8.328  0.00  0.00     0.091 H 
ATOM     18  O4  AG7 d   1     -13.800 -10.357  -7.379  0.00  0.00    -0.218 OA
ATOM     19  N5  AG7 d   1     -13.106  -9.977  -6.271  0.00  0.00    -0.123 NA
BRANCH  16  20
ATOM     20  C4  AG7 d   1     -14.269  -9.372  -9.751  0.00  0.00    -0.029 C 
ATOM     21  H   AG7 d   1     -14.928  -8.512  -9.871  0.00  0.00     0.036 H 
ATOM     22  H   AG7 d   1     -13.478  -9.333 -10.500  0.00  0.00     0.036 H 
ATOM     23  H   AG7 d   1     -14.843 -10.291  -9.874  0.00  0.00     0.036 H 
ENDBRANCH  16  20
ENDBRANCH  11  14
ENDBRANCH   8  10
BRANCH   8  24
ATOM     24  C78 AG7 d   1     -11.616  -7.239  -2.078  0.00  0.00    -0.035 C 
ATOM     25  H   AG7 d   1     -12.319  -8.051  -1.893  0.00  0.00     0.042 H 
BRANCH  24  26
ATOM     26  C81 AG7 d   1     -12.463  -6.078  -2.487  0.00  0.00    -0.071 C 
ATOM     27  H   AG7 d   1     -11.822  -5.260  -2.815  0.00  0.00     0.028 H 
ATOM     28  H   AG7 d   1     -13.118  -6.378  -3.305  0.00  0.00     0.028 H 
ATOM     29  H   AG7 d   1     -13.065  -5.752  -1.639  0.00  0.00     0.028 H 
ENDBRANCH  24  26
BRANCH  24  30
ATOM     30  C82 AG7 d   1     -10.932  -7.056  -0.757  0.00  0.00    -0.071 C 
ATOM     31  H   AG7 d   1     -10.546  -8.016  -0.413  0.00  0.00     0.028 H 
ATOM     32  H   AG7 d   1     -10.108  -6.351  -0.870  0.00  0.00     0.028 H 
ATOM     33  H   AG7 d   1     -11.646  -6.668  -0.030  0.00  0.00     0.028 H 
ENDBRANCH  24  30
ENDBRANCH   8  24
ENDBRANCH   6   8
ENDBRANCH   3   6
ENDBRANCH   1   3
BRANCH   1  34
ATOM     34  C05 AG7 d   1      -5.771  -8.202  -1.479  0.00  0.00    -0.029 C 
ATOM     35  H   AG7 d   1      -5.065  -9.001  -1.252  0.00  0.00     0.041 H 
ATOM     36  H   AG7 d   1      -5.993  -7.486  -0.687  0.00  0.00     0.041 H 
BRANCH  34  37
ATOM     37  C06 AG7 d   1      -5.134  -7.399  -2.585  0.00  0.00    -0.057 A 
ATOM     38  C07 AG7 d   1      -4.605  -8.090  -3.712  0.00  0.00    -0.074 A 
ATOM     39  C08 AG7 d   1      -4.004  -7.356  -4.769  0.00  0.00    -0.045 A 
ATOM     40  H   AG7 d   1      -4.661  -9.177  -3.763  0.00  0.00     0.084 H 
ATOM     41  C09 AG7 d   1      -3.943  -5.973  -4.694  0.00  0.00     0.116 A 
ATOM     42  H   AG7 d   1      -3.593  -7.877  -5.634  0.00  0.00     0.088 H 
ATOM     43  C10 AG7 d   1      -4.500  -5.256  -3.515  0.00  0.00    -0.045 A 
ATOM     44  F1  AG7 d   1      -3.376  -5.278  -5.680  0.00  0.00    -0.206 F 
ATOM     45  C11 AG7 d   1      -5.077  -5.967  -2.498  0.00  0.00    -0.074 A 
ATOM     46  H   AG7 d   1      -4.449  -4.168  -3.462  0.00  0.00     0.088 H 
ATOM     47  H   AG7 d   1      -5.489  -5.451  -1.631  0.00  0.00     0.084 H 
ENDBRANCH  34  37
ENDBRANCH   1  34
BRANCH   1  48
ATOM     48  C47 AG7 d   1      -7.659  -9.674  -0.558  0.00  0.00     0.222 C 
ATOM     49  N12 AG7 d   1      -7.406 -11.125  -0.440  0.00  0.00    -0.356 N 
ATOM     50  H   AG7 d   1      -7.041 -11.636  -1.244  0.00  0.00     0.162 HD
ATOM     51  O48 AG7 d   1      -8.234  -9.065   0.327  0.00  0.00    -0.273 OA
BRANCH  49  52
ATOM     52  C13 AG7 d   1      -7.670 -11.850   0.816  0.00  0.00     0.013 C 
ATOM     53  H   AG7 d   1      -8.068 -11.087   1.485  0.00  0.00     0.072 H 
BRANCH  52  54
ATOM     54  C14 AG7 d   1      -8.780 -12.890   0.740  0.00  0.00    -0.039 C 
ATOM     55  H   AG7 d   1      -8.860 -13.314   1.741  0.00  0.00     0.036 H 
ATOM     56  H   AG7 d   1      -8.497 -13.570  -0.063  0.00  0.00     0.036 H 
BRANCH  54  57
ATOM     57  C15 AG7 d   1     -10.169 -12.389   0.389  0.00  0.00    -0.001 C 
ATOM     58  C16 AG7 d   1     -11.312 -13.316  -0.097  0.00  0.00     0.193 C 
ATOM     59  N17 AG7 d   1     -12.548 -12.835   0.528  0.00  0.00    -0.049 N 
ATOM     60  H   AG7 d   1     -11.418 -13.544  -1.158  0.00  0.00     0.129 H 
ATOM     61  C83 AG7 d   1     -12.374 -11.377   0.750  0.00  0.00     0.085 C 
ATOM     62  H   AG7 d   1     -12.722 -13.319   1.409  0.00  0.00     0.280 HD
ATOM     63  H   AG7 d   1     -13.353 -13.018  -0.071  0.00  0.00     0.280 HD
ATOM     64  C84 AG7 d   1     -10.870 -11.166   1.004  0.00  0.00    -0.035 C 
ATOM     65  H   AG7 d   1     -12.970 -11.031   1.594  0.00  0.00     0.075 H 
ATOM     66  H   AG7 d   1     -12.714 -10.802  -0.111  0.00  0.00     0.075 H 
ATOM     67  H   AG7 d   1     -10.517 -10.238   0.555  0.00  0.00     0.036 H 
ATOM     68  H   AG7 d   1     -10.655 -11.078   2.069  0.00  0.00     0.036 H 
ATOM     69  H   AG7 d   1      -9.484 -12.061  -0.393  0.00  0.00     0.046 H 
BRANCH  58  70
ATOM     70  O18 AG7 d   1     -11.129 -14.523  -0.758  0.00  0.00    -0.369 OA
ATOM     71  H   AG7 d   1     -10.223 -14.582  -1.069  0.00  0.00     0.212 HD
ENDBRANCH  58  70
ENDBRANCH  54  57
ENDBRANCH  52  54
BRANCH  52  72
ATOM     72  C19 AG7 d   1      -6.417 -12.381   1.455  0.00  0.00    -0.038 C 
ATOM     73  H   AG7 d   1      -5.845 -12.862   0.662  0.00  0.00     0.036 H 
ATOM     74  H   AG7 d   1      -6.736 -13.034   2.267  0.00  0.00     0.036 H 
BRANCH  72  75
ATOM     75  C20 AG7 d   1      -5.499 -11.331   2.077  0.00  0.00     0.018 C 
ATOM     76  H   AG7 d   1      -5.279 -10.603   1.296  0.00  0.00     0.048 H 
ATOM     77  H   AG7 d   1      -4.632 -11.863   2.468  0.00  0.00     0.048 H 
BRANCH  75  78
ATOM     78  C21 AG7 d   1      -6.103 -10.557   3.243  0.00  0.00     0.258 C 
ATOM     79  O23 AG7 d   1      -6.776 -11.162   4.092  0.00  0.00    -0.265 OA
BRANCH  78  80
ATOM     80  O22 AG7 d   1      -6.033  -9.244   3.273  0.00  0.00    -0.322 OA
BRANCH  80  81
ATOM     81  C50 AG7 d   1      -6.623  -8.541   4.362  0.00  0.00     0.025 C 
ATOM     82  H   AG7 d   1      -6.196  -8.989   5.259  0.00  0.00     0.074 H 
ATOM     83  H   AG7 d   1      -7.699  -8.623   4.208  0.00  0.00     0.074 H 
BRANCH  81  84
ATOM     84  C53 AG7 d   1      -6.346  -7.044   4.488  0.00  0.00    -0.056 C 
ATOM     85  H   AG7 d   1      -5.273  -6.882   4.595  0.00  0.00     0.030 H 
ATOM     86  H   AG7 d   1      -6.705  -6.533   3.594  0.00  0.00     0.030 H 
ATOM     87  H   AG7 d   1      -6.863  -6.653   5.364  0.00  0.00     0.030 H 
ENDBRANCH  81  84
ENDBRANCH  80  81
ENDBRANCH  78  80
ENDBRANCH  75  78
ENDBRANCH  72  75
ENDBRANCH  52  72
ENDBRANCH  49  52
ENDBRANCH   1  48
TORSDOF 22
