REMARK  22 active torsions:
REMARK  status: ('A' for Active; 'I' for Inactive)
REMARK    1  A    between atoms: C02_2  and  C01_1 
REMARK    2  A    between atoms: C01_1  and  C57_28 
REMARK    3  A    between atoms: C04_4  and  C02_2 
REMARK    4  A    between atoms: C04_4  and  C05_5 
REMARK    5  A    between atoms: C47_24  and  C04_4 
REMARK    6  A    between atoms: C05_5  and  C06_6 
REMARK    7  A    between atoms: N12_12  and  C13_13 
REMARK       I    between atoms: N12_12  and  C47_24 
REMARK    8  A    between atoms: C13_13  and  C14_14 
REMARK    9  A    between atoms: C13_13  and  C19_19 
REMARK   10  A    between atoms: C14_14  and  C15_15 
REMARK   11  A    between atoms: C16_16  and  O18_18 
REMARK   12  A    between atoms: C19_19  and  C20_20 
REMARK   13  A    between atoms: C20_20  and  C21_21 
REMARK   14  A    between atoms: C21_21  and  O22_22 
REMARK   15  A    between atoms: O22_22  and  C50_26 
REMARK   16  A    between atoms: C50_26  and  C53_27 
REMARK   17  A    between atoms: C57_28  and  N58_29 
REMARK   18  A    between atoms: C57_28  and  C78_32 
REMARK       I    between atoms: N58_29  and  C59_30 
REMARK   19  A    between atoms: C59_30  and  C1_38 
REMARK   20  A    between atoms: C78_32  and  C81_33 
REMARK   21  A    between atoms: C78_32  and  C82_35 
REMARK   22  A    between atoms: C3_40  and  C4_43 
ROOT
ATOM      1  C04 AG7 d   1       7.923  -8.515   3.195  0.00  0.00     0.034 C 
ATOM      2  H   AG7 d   1       7.614  -9.262   3.927  0.00  0.00     0.055 H 
ENDROOT
BRANCH   1   3
ATOM      3  C02 AG7 d   1       8.902  -7.625   3.943  0.00  0.00     0.004 C 
ATOM      4  H   AG7 d   1       9.033  -6.733   3.330  0.00  0.00     0.045 H 
ATOM      5  H   AG7 d   1       8.476  -7.468   4.934  0.00  0.00     0.045 H 
BRANCH   3   6
ATOM      6  C01 AG7 d   1      10.296  -8.198   4.165  0.00  0.00     0.150 C 
ATOM      7  O03 AG7 d   1      10.474  -9.395   4.105  0.00  0.00    -0.296 OA
BRANCH   6   8
ATOM      8  C57 AG7 d   1      11.409  -7.295   4.721  0.00  0.00     0.073 C 
ATOM      9  H   AG7 d   1      10.863  -6.602   5.361  0.00  0.00     0.085 H 
BRANCH   8  10
ATOM     10  N58 AG7 d   1      12.365  -8.018   5.550  0.00  0.00    -0.344 N 
ATOM     11  C59 AG7 d   1      12.469  -7.753   6.969  0.00  0.00     0.273 C 
ATOM     12  O60 AG7 d   1      11.886  -6.796   7.459  0.00  0.00    -0.266 OA
ATOM     13  H   AG7 d   1      12.969  -8.721   5.124  0.00  0.00     0.163 HD
BRANCH  11  14
ATOM     14  C1  AG7 d   1      13.419  -8.597   7.802  0.00  0.00     0.154 A 
ATOM     15  C2  AG7 d   1      13.790  -8.418   9.297  0.00  0.00    -0.017 A 
ATOM     16  C3  AG7 d   1      14.745  -9.456   9.635  0.00  0.00     0.077 A 
ATOM     17  H   AG7 d   1      13.404  -7.653   9.970  0.00  0.00     0.091 H 
ATOM     18  O4  AG7 d   1      14.983 -10.248   8.465  0.00  0.00    -0.218 OA
ATOM     19  N5  AG7 d   1      14.120  -9.677   7.331  0.00  0.00    -0.123 NA
BRANCH  16  20
ATOM     20  C4  AG7 d   1      15.386  -9.670  10.978  0.00  0.00    -0.029 C 
ATOM     21  H   AG7 d   1      15.950  -8.780  11.256  0.00  0.00     0.036 H 
ATOM     22  H   AG7 d   1      14.613  -9.859  11.723  0.00  0.00     0.036 H 
ATOM     23  H   AG7 d   1      16.058 -10.526  10.926  0.00  0.00     0.036 H 
ENDBRANCH  16  20
ENDBRANCH  11  14
ENDBRANCH   8  10
BRANCH   8  24
ATOM     24  C78 AG7 d   1      12.107  -6.406   3.709  0.00  0.00    -0.035 C 
ATOM     25  H   AG7 d   1      11.341  -5.784   3.245  0.00  0.00     0.042 H 
BRANCH  24  26
ATOM     26  C81 AG7 d   1      13.086  -5.493   4.387  0.00  0.00    -0.071 C 
ATOM     27  H   AG7 d   1      12.558  -4.864   5.103  0.00  0.00     0.028 H 
ATOM     28  H   AG7 d   1      13.835  -6.089   4.908  0.00  0.00     0.028 H 
ATOM     29  H   AG7 d   1      13.573  -4.866   3.640  0.00  0.00     0.028 H 
ENDBRANCH  24  26
BRANCH  24  30
ATOM     30  C82 AG7 d   1      12.724  -7.174   2.584  0.00  0.00    -0.071 C 
ATOM     31  H   AG7 d   1      13.464  -7.868   2.982  0.00  0.00     0.028 H 
ATOM     32  H   AG7 d   1      11.949  -7.731   2.058  0.00  0.00     0.028 H 
ATOM     33  H   AG7 d   1      13.207  -6.481   1.895  0.00  0.00     0.028 H 
ENDBRANCH  24  30
ENDBRANCH   8  24
ENDBRANCH   6   8
ENDBRANCH   3   6
ENDBRANCH   1   3
BRANCH   1  34
ATOM     34  C05 AG7 d   1       6.646  -7.804   2.785  0.00  0.00    -0.029 C 
ATOM     35  H   AG7 d   1       5.951  -8.570   2.440  0.00  0.00     0.041 H 
ATOM     36  H   AG7 d   1       6.919  -7.068   2.029  0.00  0.00     0.041 H 
BRANCH  34  37
ATOM     37  C06 AG7 d   1       5.961  -7.057   3.900  0.00  0.00    -0.057 A 
ATOM     38  C07 AG7 d   1       5.306  -7.818   4.986  0.00  0.00    -0.074 A 
ATOM     39  C08 AG7 d   1       4.637  -7.088   6.090  0.00  0.00    -0.045 A 
ATOM     40  H   AG7 d   1       5.315  -8.908   4.975  0.00  0.00     0.084 H 
ATOM     41  C09 AG7 d   1       4.648  -5.689   6.107  0.00  0.00     0.116 A 
ATOM     42  H   AG7 d   1       4.138  -7.640   6.886  0.00  0.00     0.088 H 
ATOM     43  C10 AG7 d   1       5.319  -4.919   5.009  0.00  0.00    -0.045 A 
ATOM     44  F1  AG7 d   1       4.029  -5.039   7.091  0.00  0.00    -0.206 F 
ATOM     45  C11 AG7 d   1       5.976  -5.644   3.916  0.00  0.00    -0.074 A 
ATOM     46  H   AG7 d   1       5.319  -3.829   5.023  0.00  0.00     0.088 H 
ATOM     47  H   AG7 d   1       6.475  -5.094   3.118  0.00  0.00     0.084 H 
ENDBRANCH  34  37
ENDBRANCH   1  34
BRANCH   1  48
ATOM     48  C47 AG7 d   1       8.563  -9.313   2.054  0.00  0.00     0.222 C 
ATOM     49  N12 AG7 d   1       8.267 -10.740   1.950  0.00  0.00    -0.356 N 
ATOM     50  H   AG7 d   1       7.826 -11.227   2.730  0.00  0.00     0.162 HD
ATOM     51  O48 AG7 d   1       9.170  -8.745   1.166  0.00  0.00    -0.273 OA
BRANCH  49  52
ATOM     52  C13 AG7 d   1       8.603 -11.473   0.724  0.00  0.00     0.013 C 
ATOM     53  H   AG7 d   1       9.001 -10.762  -0.000  0.00  0.00     0.072 H 
BRANCH  52  54
ATOM     54  C14 AG7 d   1       9.727 -12.470   0.960  0.00  0.00    -0.039 C 
ATOM     55  H   AG7 d   1       9.885 -13.028   0.037  0.00  0.00     0.036 H 
ATOM     56  H   AG7 d   1       9.438 -13.118   1.788  0.00  0.00     0.036 H 
BRANCH  54  57
ATOM     57  C15 AG7 d   1      11.040 -11.781   1.331  0.00  0.00    -0.001 C 
ATOM     58  C16 AG7 d   1      12.167 -12.648   1.907  0.00  0.00     0.193 C 
ATOM     59  N17 AG7 d   1      13.473 -12.195   1.288  0.00  0.00    -0.049 N 
ATOM     60  H   AG7 d   1      12.204 -12.456   2.979  0.00  0.00     0.129 H 
ATOM     61  C83 AG7 d   1      13.176 -10.856   0.668  0.00  0.00     0.085 C 
ATOM     62  H   AG7 d   1      13.811 -12.863   0.595  0.00  0.00     0.280 HD
ATOM     63  H   AG7 d   1      14.216 -12.130   1.984  0.00  0.00     0.280 HD
ATOM     64  C84 AG7 d   1      11.678 -10.836   0.340  0.00  0.00    -0.035 C 
ATOM     65  H   AG7 d   1      13.770 -10.708  -0.234  0.00  0.00     0.075 H 
ATOM     66  H   AG7 d   1      13.431 -10.048   1.354  0.00  0.00     0.075 H 
ATOM     67  H   AG7 d   1      11.263  -9.831   0.420  0.00  0.00     0.036 H 
ATOM     68  H   AG7 d   1      11.488 -11.145  -0.688  0.00  0.00     0.036 H 
ATOM     69  H   AG7 d   1      10.588 -11.188   2.126  0.00  0.00     0.046 H 
BRANCH  58  70
ATOM     70  O18 AG7 d   1      11.964 -13.977   2.131  0.00  0.00    -0.369 OA
ATOM     71  H   AG7 d   1      12.640 -14.307   2.728  0.00  0.00     0.212 HD
ENDBRANCH  58  70
ENDBRANCH  54  57
ENDBRANCH  52  54
BRANCH  52  72
ATOM     72  C19 AG7 d   1       7.376 -12.051   0.056  0.00  0.00    -0.038 C 
ATOM     73  H   AG7 d   1       6.822 -12.609   0.811  0.00  0.00     0.036 H 
ATOM     74  H   AG7 d   1       7.714 -12.669  -0.776  0.00  0.00     0.036 H 
BRANCH  72  75
ATOM     75  C20 AG7 d   1       6.445 -10.994  -0.507  0.00  0.00     0.018 C 
ATOM     76  H   AG7 d   1       6.204 -10.299   0.297  0.00  0.00     0.048 H 
ATOM     77  H   AG7 d   1       5.566 -11.501  -0.905  0.00  0.00     0.048 H 
BRANCH  75  78
ATOM     78  C21 AG7 d   1       7.076 -10.194  -1.641  0.00  0.00     0.258 C 
ATOM     79  O23 AG7 d   1       7.853 -10.783  -2.430  0.00  0.00    -0.265 OA
BRANCH  78  80
ATOM     80  O22 AG7 d   1       7.108  -8.904  -1.584  0.00  0.00    -0.322 OA
BRANCH  80  81
ATOM     81  C50 AG7 d   1       7.799  -8.213  -2.589  0.00  0.00     0.025 C 
ATOM     82  H   AG7 d   1       7.113  -8.155  -3.434  0.00  0.00     0.074 H 
ATOM     83  H   AG7 d   1       8.729  -8.761  -2.740  0.00  0.00     0.074 H 
BRANCH  81  84
ATOM     84  C53 AG7 d   1       8.206  -6.787  -2.291  0.00  0.00    -0.056 C 
ATOM     85  H   AG7 d   1       7.316  -6.192  -2.086  0.00  0.00     0.030 H 
ATOM     86  H   AG7 d   1       8.863  -6.772  -1.421  0.00  0.00     0.030 H 
ATOM     87  H   AG7 d   1       8.731  -6.373  -3.152  0.00  0.00     0.030 H 
ENDBRANCH  81  84
ENDBRANCH  80  81
ENDBRANCH  78  80
ENDBRANCH  75  78
ENDBRANCH  72  75
ENDBRANCH  52  72
ENDBRANCH  49  52
ENDBRANCH   1  48
TORSDOF 22
