REMARK  6 active torsions:
REMARK  status: ('A' for Active; 'I' for Inactive)
REMARK    1  A    between atoms: C21_21  and  C1_1 
REMARK    2  A    between atoms: C24_24  and  C7_7 
REMARK    3  A    between atoms: C9_9  and  N31_31 
REMARK    4  A    between atoms: C13_13  and  C25_25 
REMARK    5  A    between atoms: N19_19  and  C24_24 
REMARK    6  A    between atoms: C20_20  and  C22_22 
ROOT
ATOM      1  C13 053 d   1      25.039  42.790  48.034  0.00  0.00     0.048 A 
ATOM      2  C14 053 d   1      25.777  41.889  47.254  0.00  0.00    -0.066 A 
ATOM      3  C15 053 d   1      25.883  42.051  45.884  0.00  0.00    -0.055 A 
ATOM      4  C16 053 d   1      24.402  43.893  47.455  0.00  0.00    -0.055 A 
ATOM      5  C17 053 d   1      24.489  44.076  46.065  0.00  0.00     0.005 A 
ATOM      6  C18 053 d   1      25.220  43.150  45.309  0.00  0.00     0.046 A 
ATOM      7  N19 053 d   1      25.116  43.549  44.009  0.00  0.00    -0.336 N 
ATOM      8  C20 053 d   1      24.371  44.691  43.882  0.00  0.00     0.125 A 
ATOM      9  C21 053 d   1      23.964  45.036  45.168  0.00  0.00     0.026 A 
ATOM     10  H8  053 d   1      26.273  41.052  47.732  0.00  0.00     0.084 H 
ATOM     11  H9  053 d   1      26.455  41.358  45.278  0.00  0.00     0.087 H 
ATOM     12  H10 053 d   1      23.850  44.595  48.069  0.00  0.00     0.086 H 
ENDROOT
BRANCH   7  13
ATOM     13  C24 053 d   1      25.710  42.877  42.856  0.00  0.00     0.024 C 
ATOM     14  H11 053 d   1      25.939  41.837  43.132  0.00  0.00     0.072 H 
ATOM     15  H12 053 d   1      24.984  42.886  42.029  0.00  0.00     0.072 H 
BRANCH  13  16
ATOM     16  C7  053 d   1      26.972  43.542  42.396  0.00  0.00    -0.035 A 
ATOM     17  C8  053 d   1      27.584  44.609  43.063  0.00  0.00    -0.032 A 
ATOM     18  C9  053 d   1      28.768  45.140  42.545  0.00  0.00     0.121 A 
ATOM     19  H5  053 d   1      27.147  45.017  43.967  0.00  0.00     0.090 H 
ATOM     20  N10 053 d   1      29.338  44.673  41.410  0.00  0.00    -0.244 NA
ATOM     21  C11 053 d   1      28.731  43.636  40.783  0.00  0.00     0.005 A 
ATOM     22  C12 053 d   1      27.571  43.037  41.231  0.00  0.00    -0.058 A 
ATOM     23  H6  053 d   1      29.184  43.254  39.875  0.00  0.00     0.114 H 
ATOM     24  H7  053 d   1      27.135  42.200  40.698  0.00  0.00     0.086 H 
BRANCH  18  25
ATOM     25  N31 053 d   1      29.373  46.186  43.236  0.00  0.00    -0.384 N 
ATOM     26  H13 053 d   1      30.247  46.600  42.881  0.00  0.00     0.157 HD
ATOM     27  H14 053 d   1      28.947  46.546  44.102  0.00  0.00     0.157 HD
ENDBRANCH  18  25
ENDBRANCH  13  16
ENDBRANCH   7  13
BRANCH   8  28
ATOM     28  C22 053 d   1      24.112  45.285  42.577  0.00  0.00     0.228 C 
ATOM     29  O23 053 d   1      23.803  44.651  41.590  0.00  0.00    -0.643 OA
ATOM     30  O26 053 d   1      24.055  46.629  42.591  0.00  0.00    -0.643 OA
ENDBRANCH   8  28
BRANCH   9  31
ATOM     31  C1  053 d   1      23.141  46.171  45.535  0.00  0.00     0.045 A 
ATOM     32  C2  053 d   1      23.446  47.014  46.557  0.00  0.00    -0.066 A 
ATOM     33  C3  053 d   1      22.584  48.139  46.896  0.00  0.00    -0.067 A 
ATOM     34  H1  053 d   1      24.354  46.845  47.135  0.00  0.00     0.085 H 
ATOM     35  C4  053 d   1      21.461  48.364  46.174  0.00  0.00    -0.020 A 
ATOM     36  H2  053 d   1      22.842  48.795  47.726  0.00  0.00     0.085 H 
ATOM     37  N5  053 d   1      21.109  47.513  45.149  0.00  0.00    -0.333 N 
ATOM     38  H3  053 d   1      20.832  49.223  46.405  0.00  0.00     0.111 H 
ATOM     39  C6  053 d   1      21.853  46.413  44.776  0.00  0.00     0.256 A 
ATOM     40  H4  053 d   1      20.266  47.704  44.647  0.00  0.00     0.168 HD
ATOM     41  O30 053 d   1      21.487  45.657  43.861  0.00  0.00    -0.267 OA
ENDBRANCH   9  31
BRANCH   1  42
ATOM     42  C25 053 d   1      24.945  42.536  49.494  0.00  0.00     0.417 C 
ATOM     43  F27 053 d   1      24.471  41.303  49.753  0.00  0.00    -0.166 F 
ATOM     44  F28 053 d   1      26.138  42.611  50.112  0.00  0.00    -0.166 F 
ATOM     45  F29 053 d   1      24.160  43.410  50.146  0.00  0.00    -0.166 F 
ENDBRANCH   1  42
TORSDOF 6
