REMARK  7 active torsions:
REMARK  status: ('A' for Active; 'I' for Inactive)
REMARK    1  A    between atoms: C1_1  and  C2_2 
REMARK       I    between atoms: C1_1  and  N12_12 
REMARK    2  A    between atoms: C5_5  and  N11_11 
REMARK    3  A    between atoms: N11_11  and  S24_24 
REMARK    4  A    between atoms: N12_12  and  C13_13 
REMARK    5  A    between atoms: C19_19  and  O22_22 
REMARK    6  A    between atoms: O22_22  and  C23_23 
REMARK    7  A    between atoms: S24_24  and  C25_25 
ROOT
ATOM      1  C2  BR2 d   1      12.884 -27.969  -2.310  0.00  0.00     0.111 A 
ATOM      2  C4  BR2 d   1      12.552 -28.205  -3.613  0.00  0.00     0.162 A 
ATOM      3  C5  BR2 d   1      11.826 -29.385  -3.964  0.00  0.00     0.082 A 
ATOM      4  C6  BR2 d   1      11.429 -30.303  -2.976  0.00  0.00    -0.051 A 
ATOM      5  C7  BR2 d   1      11.747 -30.058  -1.640  0.00  0.00    -0.042 A 
ATOM      6  C8  BR2 d   1      12.470 -28.901  -1.294  0.00  0.00     0.135 A 
ATOM      7  F9  BR2 d   1      12.785 -28.672  -0.007  0.00  0.00    -0.205 F 
ATOM      8  F10 BR2 d   1      12.938 -27.331  -4.564  0.00  0.00    -0.203 F 
ATOM      9  H   BR2 d   1      10.876 -31.201  -3.252  0.00  0.00     0.087 H 
ATOM     10  H   BR2 d   1      11.437 -30.760  -0.867  0.00  0.00     0.088 H 
ENDROOT
BRANCH   1  11
ATOM     11  C1  BR2 d   1      13.681 -26.753  -2.053  0.00  0.00     0.262 C 
ATOM     12  O3  BR2 d   1      13.255 -25.637  -2.336  0.00  0.00    -0.267 OA
ATOM     13  N12 BR2 d   1      14.897 -27.019  -1.525  0.00  0.00    -0.321 N 
ATOM     14  H   BR2 d   1      15.094 -28.008  -1.369  0.00  0.00     0.169 HD
BRANCH  13  15
ATOM     15  C13 BR2 d   1      15.942 -26.132  -1.155  0.00  0.00     0.053 A 
ATOM     16  C14 BR2 d   1      15.721 -24.770  -0.891  0.00  0.00    -0.038 A 
ATOM     17  C15 BR2 d   1      16.824 -24.010  -0.513  0.00  0.00     0.068 A 
ATOM     18  H   BR2 d   1      14.729 -24.328  -0.978  0.00  0.00     0.088 H 
ATOM     19  C16 BR2 d   1      18.070 -24.614  -0.424  0.00  0.00     0.183 A 
ATOM     20  C19 BR2 d   1      17.010 -22.701  -0.181  0.00  0.00     0.172 A 
ATOM     21  N17 BR2 d   1      18.349 -25.918  -0.669  0.00  0.00    -0.237 NA
ATOM     22  N21 BR2 d   1      18.900 -23.640  -0.045  0.00  0.00    -0.152 NA
ATOM     23  C18 BR2 d   1      17.276 -26.641  -1.029  0.00  0.00     0.030 A 
ATOM     24  H   BR2 d   1      17.432 -27.698  -1.242  0.00  0.00     0.118 H 
ATOM     25  N20 BR2 d   1      18.267 -22.439   0.112  0.00  0.00    -0.254 N 
ATOM     26  H   BR2 d   1      18.674 -21.546   0.391  0.00  0.00     0.191 HD
BRANCH  20  27
ATOM     27  O22 BR2 d   1      16.072 -21.736  -0.133  0.00  0.00    -0.339 OA
BRANCH  27  28
ATOM     28  C23 BR2 d   1      16.512 -20.437   0.250  0.00  0.00     0.012 C 
ATOM     29  H   BR2 d   1      16.944 -20.481   1.250  0.00  0.00     0.067 H 
ATOM     30  H   BR2 d   1      17.264 -20.086  -0.457  0.00  0.00     0.067 H 
ATOM     31  H   BR2 d   1      15.664 -19.753   0.250  0.00  0.00     0.067 H 
ENDBRANCH  27  28
ENDBRANCH  20  27
ENDBRANCH  13  15
ENDBRANCH   1  11
BRANCH   3  32
ATOM     32  N11 BR2 d   1      11.566 -29.586  -5.237  0.00  0.00    -0.278 N 
ATOM     33  H   BR2 d   1      11.866 -28.838  -5.862  0.00  0.00     0.179 HD
BRANCH  32  34
ATOM     34  S24 BR2 d   1      10.818 -30.881  -5.992  0.00  0.00     0.263 S 
ATOM     35  O31 BR2 d   1       9.997 -31.561  -4.983  0.00  0.00    -0.200 OA
ATOM     36  O32 BR2 d   1      10.235 -30.342  -7.222  0.00  0.00    -0.200 OA
BRANCH  34  37
ATOM     37  C25 BR2 d   1      12.241 -31.861  -6.389  0.00  0.00     0.079 A 
ATOM     38  C26 BR2 d   1      12.980 -31.555  -7.541  0.00  0.00    -0.060 A 
ATOM     39  C27 BR2 d   1      14.126 -32.300  -7.856  0.00  0.00    -0.082 A 
ATOM     40  H   BR2 d   1      12.664 -30.739  -8.191  0.00  0.00     0.085 H 
ATOM     41  C28 BR2 d   1      14.536 -33.362  -7.002  0.00  0.00    -0.083 A 
ATOM     42  H   BR2 d   1      14.701 -32.066  -8.752  0.00  0.00     0.083 H 
ATOM     43  C29 BR2 d   1      13.783 -33.660  -5.841  0.00  0.00    -0.082 A 
ATOM     44  H   BR2 d   1      15.426 -33.944  -7.241  0.00  0.00     0.083 H 
ATOM     45  C30 BR2 d   1      12.634 -32.900  -5.539  0.00  0.00    -0.060 A 
ATOM     46  H   BR2 d   1      14.090 -34.473  -5.183  0.00  0.00     0.083 H 
ATOM     47  H   BR2 d   1      12.053 -33.122  -4.644  0.00  0.00     0.085 H 
ENDBRANCH  34  37
ENDBRANCH  32  34
ENDBRANCH   3  32
TORSDOF 7
