REMARK  6 active torsions:
REMARK  status: ('A' for Active; 'I' for Inactive)
REMARK    1  A    between atoms: C1_1  and  C15_15 
REMARK    2  A    between atoms: N7_7  and  C13_13 
REMARK    3  A    between atoms: C8_8  and  C10_10 
REMARK    4  A    between atoms: C9_9  and  N21_21 
REMARK    5  A    between atoms: C13_13  and  C14_14 
REMARK    6  A    between atoms: C19_19  and  N35_35 
ROOT
ATOM      1  C1  054 d   1      25.043  43.060  48.202  0.00  0.00     0.048 A 
ATOM      2  C2  054 d   1      25.756  42.108  47.456  0.00  0.00    -0.066 A 
ATOM      3  C3  054 d   1      25.855  42.199  46.074  0.00  0.00    -0.055 A 
ATOM      4  C4  054 d   1      24.397  44.149  47.574  0.00  0.00    -0.054 A 
ATOM      5  C5  054 d   1      24.479  44.255  46.174  0.00  0.00     0.022 A 
ATOM      6  C6  054 d   1      25.203  43.283  45.462  0.00  0.00     0.048 A 
ATOM      7  N7  054 d   1      25.117  43.621  44.143  0.00  0.00    -0.334 N 
ATOM      8  C8  054 d   1      24.382  44.764  43.942  0.00  0.00     0.141 A 
ATOM      9  C9  054 d   1      23.970  45.165  45.210  0.00  0.00     0.093 A 
ATOM     10  H1  054 d   1      26.239  41.285  47.970  0.00  0.00     0.084 H 
ATOM     11  H2  054 d   1      26.409  41.469  45.495  0.00  0.00     0.087 H 
ATOM     12  H3  054 d   1      23.852  44.883  48.156  0.00  0.00     0.086 H 
ENDROOT
BRANCH   7  13
ATOM     13  C13 054 d   1      25.723  42.871  43.065  0.00  0.00     0.025 C 
ATOM     14  H4  054 d   1      25.003  42.805  42.236  0.00  0.00     0.072 H 
ATOM     15  H5  054 d   1      25.956  41.860  43.430  0.00  0.00     0.072 H 
BRANCH  13  16
ATOM     16  C14 054 d   1      26.983  43.496  42.553  0.00  0.00    -0.035 A 
ATOM     17  C16 054 d   1      27.540  42.890  41.428  0.00  0.00    -0.058 A 
ATOM     18  C17 054 d   1      28.703  43.412  40.901  0.00  0.00     0.005 A 
ATOM     19  H6  054 d   1      27.068  42.025  40.976  0.00  0.00     0.086 H 
ATOM     20  N18 054 d   1      29.359  44.471  41.431  0.00  0.00    -0.244 NA
ATOM     21  H7  054 d   1      29.115  42.948  40.012  0.00  0.00     0.114 H 
ATOM     22  C19 054 d   1      28.835  45.036  42.549  0.00  0.00     0.121 A 
ATOM     23  C20 054 d   1      27.651  44.582  43.137  0.00  0.00    -0.032 A 
ATOM     24  H8  054 d   1      27.257  45.060  44.027  0.00  0.00     0.090 H 
BRANCH  22  25
ATOM     25  N35 054 d   1      29.512  46.112  43.128  0.00  0.00    -0.384 N 
ATOM     26  H12 054 d   1      29.137  46.560  43.977  0.00  0.00     0.157 HD
ATOM     27  H13 054 d   1      30.386  46.458  42.706  0.00  0.00     0.157 HD
ENDBRANCH  22  25
ENDBRANCH  13  16
ENDBRANCH   7  13
BRANCH   8  28
ATOM     28  C10 054 d   1      24.136  45.322  42.609  0.00  0.00     0.229 C 
ATOM     29  O11 054 d   1      24.014  44.684  41.581  0.00  0.00    -0.643 OA
ATOM     30  O12 054 d   1      23.883  46.645  42.607  0.00  0.00    -0.643 OA
ENDBRANCH   8  28
BRANCH   9  31
ATOM     31  N21 054 d   1      23.191  46.309  45.433  0.00  0.00    -0.226 N 
ATOM     32  C22 054 d   1      21.873  46.293  44.880  0.00  0.00     0.334 A 
ATOM     33  N23 054 d   1      21.160  47.471  45.001  0.00  0.00    -0.307 N 
ATOM     34  O26 054 d   1      21.372  45.288  44.340  0.00  0.00    -0.246 OA
ATOM     35  C29 054 d   1      21.713  48.605  45.587  0.00  0.00     0.059 A 
ATOM     36  H9  054 d   1      20.221  47.509  44.658  0.00  0.00     0.170 HD
ATOM     37  C28 054 d   1      23.022  48.576  46.125  0.00  0.00     0.066 A 
ATOM     38  C30 054 d   1      21.109  49.830  45.719  0.00  0.00    -0.018 A 
ATOM     39  C24 054 d   1      23.840  47.368  46.090  0.00  0.00     0.269 A 
ATOM     40  C27 054 d   1      23.381  49.789  46.662  0.00  0.00    -0.028 A 
ATOM     41  O25 054 d   1      24.980  47.318  46.545  0.00  0.00    -0.266 OA
ATOM     42  S31 054 d   1      22.139  50.964  46.504  0.00  0.00    -0.110 SA
ATOM     43  H10 054 d   1      24.343  49.983  47.134  0.00  0.00     0.096 H 
ATOM     44  H11 054 d   1      20.103  50.057  45.370  0.00  0.00     0.098 H 
ENDBRANCH   9  31
BRANCH   1  45
ATOM     45  C15 054 d   1      24.991  42.864  49.683  0.00  0.00     0.417 C 
ATOM     46  F32 054 d   1      24.484  41.652  50.005  0.00  0.00    -0.166 F 
ATOM     47  F33 054 d   1      26.217  42.917  50.244  0.00  0.00    -0.166 F 
ATOM     48  F34 054 d   1      24.269  43.776  50.361  0.00  0.00    -0.166 F 
ENDBRANCH   1  45
TORSDOF 6
