REMARK  23 active torsions:
REMARK  status: ('A' for Active; 'I' for Inactive)
REMARK    1  A    between atoms: C29_29  and  C15_15 
REMARK    2  A    between atoms: C30_30  and  C16_16 
REMARK    3  A    between atoms: C31_31  and  C17_17 
REMARK    4  A    between atoms: C18_18  and  O47_47 
REMARK    5  A    between atoms: C19_19  and  O43_43 
REMARK    6  A    between atoms: C20_20  and  C25_25 
REMARK       I    between atoms: N40_40  and  C20_20 
REMARK    7  A    between atoms: C21_21  and  C35_35 
REMARK       I    between atoms: N41_41  and  C21_21 
REMARK    8  A    between atoms: C24_24  and  C36_36 
REMARK    9  A    between atoms: C24_24  and  N40_40 
REMARK   10  A    between atoms: C32_32  and  C26_26 
REMARK   11  A    between atoms: C36_36  and  C27_27 
REMARK   12  A    between atoms: O47_47  and  C28_28 
REMARK   13  A    between atoms: C33_33  and  C29_29 
REMARK   14  A    between atoms: C37_37  and  C30_30 
REMARK   15  A    between atoms: N42_42  and  C31_31 
REMARK   16  A    between atoms: C36_36  and  C32_32 
REMARK   17  A    between atoms: C35_35  and  C33_33 
REMARK   18  A    between atoms: C38_38  and  C34_34 
REMARK   19  A    between atoms: C34_34  and  N42_42 
REMARK   20  A    between atoms: C35_35  and  N39_39 
REMARK   21  A    between atoms: C37_37  and  C38_38 
REMARK   22  A    between atoms: C37_37  and  N41_41 
REMARK   23  A    between atoms: C38_38  and  O46_46 
ROOT
ATOM      1  C35 PB7 d   1      80.717  60.804  82.181  0.00  0.00     0.074 C 
ATOM      2  H   PB7 d   1      80.209  59.936  81.760  0.00  0.00     0.085 H 
ENDROOT
BRANCH   1   3
ATOM      3  C21 PB7 d   1      80.028  61.145  83.508  0.00  0.00     0.174 C 
ATOM      4  N41 PB7 d   1      78.562  61.364  83.399  0.00  0.00    -0.363 N 
ATOM      5  H   PB7 d   1      78.115  61.273  82.487  0.00  0.00     0.162 HD
ATOM      6  O45 PB7 d   1      80.725  61.231  84.744  0.00  0.00    -0.175 OA
BRANCH   4   7
ATOM      7  C37 PB7 d   1      77.719  61.715  84.588  0.00  0.00     0.041 C 
ATOM      8  H   PB7 d   1      78.343  62.091  85.399  0.00  0.00     0.076 H 
BRANCH   7   9
ATOM      9  C30 PB7 d   1      76.768  62.854  84.209  0.00  0.00    -0.020 C 
ATOM     10  H   PB7 d   1      76.095  62.482  83.436  0.00  0.00     0.043 H 
ATOM     11  H   PB7 d   1      76.246  63.166  85.114  0.00  0.00     0.043 H 
BRANCH   9  12
ATOM     12  C16 PB7 d   1      77.494  64.075  83.646  0.00  0.00    -0.056 A 
ATOM     13  C10 PB7 d   1      78.724  64.646  84.355  0.00  0.00    -0.077 A 
ATOM     14  C5  PB7 d   1      79.455  65.865  83.780  0.00  0.00    -0.082 A 
ATOM     15  H   PB7 d   1      79.083  64.183  85.274  0.00  0.00     0.084 H 
ATOM     16  C2  PB7 d   1      78.951  66.510  82.490  0.00  0.00    -0.083 A 
ATOM     17  H   PB7 d   1      80.330  66.269  84.289  0.00  0.00     0.083 H 
ATOM     18  C6  PB7 d   1      77.722  65.936  81.780  0.00  0.00    -0.082 A 
ATOM     19  H   PB7 d   1      79.465  67.377  82.076  0.00  0.00     0.083 H 
ATOM     20  C11 PB7 d   1      77.002  64.719  82.356  0.00  0.00    -0.077 A 
ATOM     21  H   PB7 d   1      77.360  66.397  80.861  0.00  0.00     0.083 H 
ATOM     22  H   PB7 d   1      76.132  64.309  81.842  0.00  0.00     0.084 H 
ENDBRANCH   9  12
ENDBRANCH   7   9
BRANCH   7  23
ATOM     23  C38 PB7 d   1      77.053  60.479  85.199  0.00  0.00     0.078 C 
ATOM     24  H   PB7 d   1      76.686  59.858  84.382  0.00  0.00     0.088 H 
BRANCH  23  25
ATOM     25  C34 PB7 d   1      78.064  59.707  86.034  0.00  0.00     0.107 C 
ATOM     26  H   PB7 d   1      78.322  60.289  86.919  0.00  0.00     0.079 H 
ATOM     27  H   PB7 d   1      78.960  59.526  85.440  0.00  0.00     0.079 H 
BRANCH  25  28
ATOM     28  N42 PB7 d   1      77.480  58.409  86.452  0.00  0.00    -0.069 N 
ATOM     29  H   PB7 d   1      76.600  58.578  86.939  0.00  0.00     0.277 HD
ATOM     30  H   PB7 d   1      77.316  57.833  85.626  0.00  0.00     0.277 HD
BRANCH  28  31
ATOM     31  C31 PB7 d   1      78.421  57.698  87.369  0.00  0.00     0.105 C 
ATOM     32  H   PB7 d   1      77.981  56.737  87.636  0.00  0.00     0.083 H 
ATOM     33  H   PB7 d   1      79.374  57.575  86.855  0.00  0.00     0.083 H 
BRANCH  31  34
ATOM     34  C17 PB7 d   1      78.664  58.491  88.654  0.00  0.00    -0.030 A 
ATOM     35  C12 PB7 d   1      80.087  58.718  89.158  0.00  0.00    -0.075 A 
ATOM     36  C7  PB7 d   1      80.299  59.520  90.445  0.00  0.00    -0.080 A 
ATOM     37  H   PB7 d   1      80.939  58.315  88.610  0.00  0.00     0.084 H 
ATOM     38  C13 PB7 d   1      79.107  60.093  91.221  0.00  0.00    -0.051 A 
ATOM     39  H   PB7 d   1      81.311  59.686  90.815  0.00  0.00     0.083 H 
ATOM     40  C18 PB7 d   1      77.683  59.866  90.709  0.00  0.00     0.068 A 
ATOM     41  H   PB7 d   1      79.274  60.661  92.136  0.00  0.00     0.087 H 
ATOM     42  C14 PB7 d   1      77.474  59.063  89.430  0.00  0.00    -0.043 A 
ATOM     43  H   PB7 d   1      76.462  58.893  89.062  0.00  0.00     0.088 H 
BRANCH  40  44
ATOM     44  O47 PB7 d   1      76.542  60.379  91.410  0.00  0.00    -0.356 OA
BRANCH  44  45
ATOM     45  C28 PB7 d   1      76.289  61.787  91.372  0.00  0.00     0.010 C 
ATOM     46  H   PB7 d   1      77.139  62.319  91.799  0.00  0.00     0.066 H 
ATOM     47  H   PB7 d   1      76.144  62.101  90.338  0.00  0.00     0.066 H 
ATOM     48  H   PB7 d   1      75.392  62.009  91.950  0.00  0.00     0.066 H 
ENDBRANCH  44  45
ENDBRANCH  40  44
ENDBRANCH  31  34
ENDBRANCH  28  31
ENDBRANCH  25  28
ENDBRANCH  23  25
BRANCH  23  49
ATOM     49  O46 PB7 d   1      75.953  60.846  86.032  0.00  0.00    -0.392 OA
ATOM     50  H   PB7 d   1      75.302  61.320  85.510  0.00  0.00     0.210 HD
ENDBRANCH  23  49
ENDBRANCH   7  23
ENDBRANCH   4   7
ENDBRANCH   1   3
BRANCH   1  51
ATOM     51  C33 PB7 d   1      82.167  60.368  82.369  0.00  0.00    -0.035 C 
ATOM     52  H   PB7 d   1      82.683  61.176  82.888  0.00  0.00     0.037 H 
ATOM     53  H   PB7 d   1      82.153  59.427  82.918  0.00  0.00     0.037 H 
BRANCH  51  54
ATOM     54  C29 PB7 d   1      82.910  60.120  81.068  0.00  0.00    -0.039 C 
ATOM     55  H   PB7 d   1      82.568  59.187  80.620  0.00  0.00     0.040 H 
ATOM     56  H   PB7 d   1      82.718  60.937  80.372  0.00  0.00     0.040 H 
BRANCH  54  57
ATOM     57  C15 PB7 d   1      84.394  60.034  81.361  0.00  0.00    -0.058 A 
ATOM     58  C8  PB7 d   1      84.910  58.990  82.343  0.00  0.00    -0.077 A 
ATOM     59  C3  PB7 d   1      86.401  58.887  82.646  0.00  0.00    -0.082 A 
ATOM     60  H   PB7 d   1      84.210  58.313  82.832  0.00  0.00     0.084 H 
ATOM     61  C1  PB7 d   1      87.380  59.829  81.958  0.00  0.00    -0.083 A 
ATOM     62  H   PB7 d   1      86.765  58.141  83.353  0.00  0.00     0.083 H 
ATOM     63  C4  PB7 d   1      86.857  60.866  80.970  0.00  0.00    -0.082 A 
ATOM     64  H   PB7 d   1      88.447  59.762  82.170  0.00  0.00     0.083 H 
ATOM     65  C9  PB7 d   1      85.367  60.974  80.665  0.00  0.00    -0.077 A 
ATOM     66  H   PB7 d   1      87.558  61.539  80.475  0.00  0.00     0.083 H 
ATOM     67  H   PB7 d   1      85.003  61.717  79.956  0.00  0.00     0.084 H 
ENDBRANCH  54  57
ENDBRANCH  51  54
ENDBRANCH   1  51
BRANCH   1  68
ATOM     68  N39 PB7 d   1      80.566  61.925  81.195  0.00  0.00    -0.374 N 
ATOM     69  C19 PB7 d   1      80.077  61.762  79.797  0.00  0.00     0.124 C 
ATOM     70  C24 PB7 d   1      80.050  63.143  79.166  0.00  0.00     0.080 C 
ATOM     71  H   PB7 d   1      80.006  60.719  79.489  0.00  0.00     0.121 H 
ATOM     72  C22 PB7 d   1      80.925  63.996  80.105  0.00  0.00    -0.023 C 
ATOM     73  C23 PB7 d   1      80.898  63.349  81.497  0.00  0.00    -0.004 C 
ATOM     74  H   PB7 d   1      81.948  64.040  79.730  0.00  0.00     0.039 H 
ATOM     75  H   PB7 d   1      80.540  65.015  80.156  0.00  0.00     0.039 H 
ATOM     76  H   PB7 d   1      80.179  63.819  82.169  0.00  0.00     0.064 H 
ATOM     77  H   PB7 d   1      81.840  63.460  82.034  0.00  0.00     0.064 H 
BRANCH  69  78
ATOM     78  O43 PB7 d   1      79.653  60.577  79.131  0.00  0.00    -0.374 OA
ATOM     79  H   PB7 d   1      79.394  60.792  78.232  0.00  0.00     0.212 HD
ENDBRANCH  69  78
BRANCH  70  80
ATOM     80  C36 PB7 d   1      78.589  63.603  79.098  0.00  0.00    -0.029 C 
ATOM     81  H   PB7 d   1      78.362  63.891  80.124  0.00  0.00     0.043 H 
BRANCH  80  82
ATOM     82  C27 PB7 d   1      78.410  64.778  78.139  0.00  0.00    -0.070 C 
ATOM     83  H   PB7 d   1      79.019  65.617  78.477  0.00  0.00     0.028 H 
ATOM     84  H   PB7 d   1      78.723  64.480  77.138  0.00  0.00     0.028 H 
ATOM     85  H   PB7 d   1      77.361  65.073  78.120  0.00  0.00     0.028 H 
ENDBRANCH  80  82
BRANCH  80  86
ATOM     86  C32 PB7 d   1      77.606  62.519  78.673  0.00  0.00    -0.063 C 
ATOM     87  H   PB7 d   1      77.689  62.390  77.594  0.00  0.00     0.033 H 
ATOM     88  H   PB7 d   1      77.851  61.607  79.217  0.00  0.00     0.033 H 
BRANCH  86  89
ATOM     89  C26 PB7 d   1      76.164  62.891  78.996  0.00  0.00    -0.076 C 
ATOM     90  H   PB7 d   1      76.061  63.040  80.071  0.00  0.00     0.027 H 
ATOM     91  H   PB7 d   1      75.902  63.811  78.473  0.00  0.00     0.027 H 
ATOM     92  H   PB7 d   1      75.502  62.087  78.674  0.00  0.00     0.027 H 
ENDBRANCH  86  89
ENDBRANCH  80  86
ENDBRANCH  70  80
BRANCH  70  93
ATOM     93  N40 PB7 d   1      80.619  63.007  77.791  0.00  0.00    -0.358 N 
ATOM     94  C20 PB7 d   1      81.950  62.430  77.485  0.00  0.00     0.148 C 
ATOM     95  O44 PB7 d   1      82.860  61.926  78.454  0.00  0.00    -0.178 OA
ATOM     96  H   PB7 d   1      80.052  63.334  77.008  0.00  0.00     0.162 HD
BRANCH  94  97
ATOM     97  C25 PB7 d   1      82.317  62.396  76.000  0.00  0.00    -0.015 C 
ATOM     98  H   PB7 d   1      83.224  62.978  75.838  0.00  0.00     0.038 H 
ATOM     99  H   PB7 d   1      82.486  61.364  75.692  0.00  0.00     0.038 H 
ATOM    100  H   PB7 d   1      81.501  62.822  75.416  0.00  0.00     0.038 H 
ENDBRANCH  94  97
ENDBRANCH  70  93
ENDBRANCH   1  68
TORSDOF 23
