REMARK  17 active torsions:
REMARK  status: ('A' for Active; 'I' for Inactive)
REMARK    1  A    between atoms: C31_31  and  C15_15 
REMARK    2  A    between atoms: C32_32  and  C16_16 
REMARK    3  A    between atoms: C20_20  and  C28_28 
REMARK       I    between atoms: N41_41  and  C20_20 
REMARK    4  A    between atoms: C21_21  and  C35_35 
REMARK       I    between atoms: N42_42  and  C21_21 
REMARK    5  A    between atoms: C36_36  and  C26_26 
REMARK    6  A    between atoms: C27_27  and  C33_33 
REMARK    7  A    between atoms: C27_27  and  N41_41 
REMARK    8  A    between atoms: C37_37  and  C29_29 
REMARK    9  A    between atoms: C37_37  and  C30_30 
REMARK   10  A    between atoms: C34_34  and  C31_31 
REMARK   11  A    between atoms: C38_38  and  C32_32 
REMARK   12  A    between atoms: C33_33  and  C37_37 
REMARK   13  A    between atoms: C35_35  and  C34_34 
REMARK   14  A    between atoms: C35_35  and  N40_40 
REMARK   15  A    between atoms: C38_38  and  C36_36 
REMARK   16  A    between atoms: C36_36  and  O46_46 
REMARK   17  A    between atoms: C38_38  and  N42_42 
ROOT
ATOM      1  C35 PB8 d   1      -2.032  15.820  29.473  0.00  0.00     0.092 C 
ATOM      2  H   PB8 d   1      -1.766  16.796  29.880  0.00  0.00     0.087 H 
ENDROOT
BRANCH   1   3
ATOM      3  C21 PB8 d   1      -3.184  15.331  30.379  0.00  0.00     0.241 C 
ATOM      4  N42 PB8 d   1      -3.024  15.318  31.721  0.00  0.00    -0.352 N 
ATOM      5  H   PB8 d   1      -2.141  15.637  32.120  0.00  0.00     0.163 HD
ATOM      6  O45 PB8 d   1      -4.273  15.010  29.907  0.00  0.00    -0.271 OA
BRANCH   4   7
ATOM      7  C38 PB8 d   1      -4.074  14.863  32.606  0.00  0.00     0.043 C 
ATOM      8  H   PB8 d   1      -4.896  14.434  32.032  0.00  0.00     0.077 H 
BRANCH   7   9
ATOM      9  C32 PB8 d   1      -3.422  13.833  33.533  0.00  0.00    -0.020 C 
ATOM     10  H   PB8 d   1      -2.500  14.266  33.921  0.00  0.00     0.043 H 
ATOM     11  H   PB8 d   1      -4.134  13.592  34.322  0.00  0.00     0.043 H 
BRANCH   9  12
ATOM     12  C16 PB8 d   1      -3.066  12.537  32.808  0.00  0.00    -0.050 A 
ATOM     13  C10 PB8 d   1      -1.951  11.819  33.108  0.00  0.00    -0.039 A 
ATOM     14  C17 PB8 d   1      -1.701  10.613  32.441  0.00  0.00     0.119 A 
ATOM     15  H   PB8 d   1      -1.254  12.181  33.864  0.00  0.00     0.089 H 
ATOM     16  C12 PB8 d   1      -2.544  10.075  31.499  0.00  0.00    -0.009 A 
ATOM     17  F47 PB8 d   1      -0.577   9.913  32.708  0.00  0.00    -0.206 F 
ATOM     18  C18 PB8 d   1      -3.644  10.810  31.206  0.00  0.00     0.119 A 
ATOM     19  H   PB8 d   1      -2.341   9.118  31.018  0.00  0.00     0.092 H 
ATOM     20  C11 PB8 d   1      -3.893  12.007  31.848  0.00  0.00    -0.039 A 
ATOM     21  F48 PB8 d   1      -4.489  10.392  30.277  0.00  0.00    -0.206 F 
ATOM     22  H   PB8 d   1      -4.793  12.560  31.579  0.00  0.00     0.089 H 
ENDBRANCH   9  12
ENDBRANCH   7   9
BRANCH   7  23
ATOM     23  C36 PB8 d   1      -4.694  16.001  33.408  0.00  0.00     0.083 C 
ATOM     24  H   PB8 d   1      -3.921  16.599  33.892  0.00  0.00     0.089 H 
BRANCH  23  25
ATOM     25  C26 PB8 d   1      -5.395  17.064  32.484  0.00  0.00     0.132 C 
ATOM     26  C22 PB8 d   1      -6.812  16.755  31.940  0.00  0.00    -0.011 C 
ATOM     27  C13 PB8 d   1      -7.638  17.911  31.468  0.00  0.00    -0.048 A 
ATOM     28  H   PB8 d   1      -6.659  16.126  31.063  0.00  0.00     0.043 H 
ATOM     29  H   PB8 d   1      -7.361  16.325  32.778  0.00  0.00     0.043 H 
ATOM     30  C6  PB8 d   1      -8.953  17.627  30.861  0.00  0.00    -0.076 A 
ATOM     31  C14 PB8 d   1      -7.306  19.157  31.575  0.00  0.00    -0.026 A 
ATOM     32  C2  PB8 d   1      -9.805  18.576  30.449  0.00  0.00    -0.082 A 
ATOM     33  H   PB8 d   1      -9.248  16.585  30.741  0.00  0.00     0.084 H 
ATOM     34  C3  PB8 d   1      -9.467  20.010  30.548  0.00  0.00    -0.082 A 
ATOM     35  H   PB8 d   1     -10.768  18.283  30.032  0.00  0.00     0.083 H 
ATOM     36  C7  PB8 d   1      -8.273  20.233  31.111  0.00  0.00    -0.075 A 
ATOM     37  H   PB8 d   1     -10.123  20.807  30.198  0.00  0.00     0.083 H 
ATOM     38  H   PB8 d   1      -7.970  21.271  31.248  0.00  0.00     0.084 H 
ATOM     39  C23 PB8 d   1      -5.959  19.572  32.148  0.00  0.00     0.106 C 
ATOM     40  N39 PB8 d   1      -5.261  18.510  32.999  0.00  0.00    -0.064 N 
ATOM     41  H   PB8 d   1      -6.145  20.425  32.801  0.00  0.00     0.083 H 
ATOM     42  H   PB8 d   1      -5.306  19.773  31.299  0.00  0.00     0.083 H 
ATOM     43  H   PB8 d   1      -5.702  18.535  33.918  0.00  0.00     0.278 HD
ATOM     44  H   PB8 d   1      -4.266  18.734  32.988  0.00  0.00     0.278 HD
ATOM     45  H   PB8 d   1      -4.791  16.964  31.582  0.00  0.00     0.088 H 
ENDBRANCH  23  25
BRANCH  23  46
ATOM     46  O46 PB8 d   1      -5.472  15.458  34.483  0.00  0.00    -0.391 OA
ATOM     47  H   PB8 d   1      -4.905  14.934  35.054  0.00  0.00     0.210 HD
ENDBRANCH  23  46
ENDBRANCH   7  23
ENDBRANCH   4   7
ENDBRANCH   1   3
BRANCH   1  48
ATOM     48  C34 PB8 d   1      -2.394  16.086  28.016  0.00  0.00    -0.034 C 
ATOM     49  H   PB8 d   1      -2.338  15.157  27.448  0.00  0.00     0.037 H 
ATOM     50  H   PB8 d   1      -3.409  16.479  27.955  0.00  0.00     0.037 H 
BRANCH  48  51
ATOM     51  C31 PB8 d   1      -1.419  17.096  27.441  0.00  0.00    -0.039 C 
ATOM     52  H   PB8 d   1      -1.698  18.113  27.716  0.00  0.00     0.040 H 
ATOM     53  H   PB8 d   1      -0.414  16.940  27.834  0.00  0.00     0.040 H 
BRANCH  51  54
ATOM     54  C15 PB8 d   1      -1.454  16.906  25.928  0.00  0.00    -0.058 A 
ATOM     55  C8  PB8 d   1      -2.154  17.864  25.137  0.00  0.00    -0.077 A 
ATOM     56  C4  PB8 d   1      -2.224  17.746  23.718  0.00  0.00    -0.082 A 
ATOM     57  H   PB8 d   1      -2.646  18.704  25.628  0.00  0.00     0.084 H 
ATOM     58  C1  PB8 d   1      -1.544  16.631  23.156  0.00  0.00    -0.083 A 
ATOM     59  H   PB8 d   1      -2.765  18.465  23.103  0.00  0.00     0.083 H 
ATOM     60  C5  PB8 d   1      -0.831  15.669  23.975  0.00  0.00    -0.082 A 
ATOM     61  H   PB8 d   1      -1.559  16.495  22.075  0.00  0.00     0.083 H 
ATOM     62  C9  PB8 d   1      -0.791  15.803  25.369  0.00  0.00    -0.077 A 
ATOM     63  H   PB8 d   1      -0.320  14.832  23.500  0.00  0.00     0.083 H 
ATOM     64  H   PB8 d   1      -0.266  15.080  25.994  0.00  0.00     0.084 H 
ENDBRANCH  51  54
ENDBRANCH  48  51
ENDBRANCH   1  48
BRANCH   1  65
ATOM     65  N40 PB8 d   1      -0.934  14.917  29.537  0.00  0.00    -0.336 N 
ATOM     66  C19 PB8 d   1       0.203  15.272  30.084  0.00  0.00     0.249 C 
ATOM     67  C27 PB8 d   1       1.050  14.057  30.336  0.00  0.00     0.115 C 
ATOM     68  O43 PB8 d   1       0.508  16.381  30.415  0.00  0.00    -0.271 OA
ATOM     69  C24 PB8 d   1       0.372  12.826  29.665  0.00  0.00    -0.018 C 
ATOM     70  C25 PB8 d   1      -0.985  13.451  29.299  0.00  0.00     0.001 C 
ATOM     71  H   PB8 d   1       0.922  12.407  28.822  0.00  0.00     0.039 H 
ATOM     72  H   PB8 d   1       0.309  11.941  30.297  0.00  0.00     0.039 H 
ATOM     73  H   PB8 d   1      -1.767  13.009  29.916  0.00  0.00     0.064 H 
ATOM     74  H   PB8 d   1      -1.202  13.260  28.248  0.00  0.00     0.064 H 
BRANCH  67  75
ATOM     75  C33 PB8 d   1       1.241  13.837  31.850  0.00  0.00    -0.030 C 
ATOM     76  H   PB8 d   1       0.287  13.937  32.368  0.00  0.00     0.037 H 
ATOM     77  H   PB8 d   1       1.925  14.583  32.255  0.00  0.00     0.037 H 
BRANCH  75  78
ATOM     78  C37 PB8 d   1       1.801  12.453  32.054  0.00  0.00    -0.059 C 
ATOM     79  H   PB8 d   1       1.466  11.784  31.261  0.00  0.00     0.039 H 
BRANCH  78  80
ATOM     80  C29 PB8 d   1       3.293  12.586  32.221  0.00  0.00    -0.073 C 
ATOM     81  H   PB8 d   1       3.508  13.370  32.947  0.00  0.00     0.028 H 
ATOM     82  H   PB8 d   1       3.704  11.640  32.575  0.00  0.00     0.028 H 
ATOM     83  H   PB8 d   1       3.743  12.843  31.262  0.00  0.00     0.028 H 
ENDBRANCH  78  80
BRANCH  78  84
ATOM     84  C30 PB8 d   1       1.459  12.111  33.464  0.00  0.00    -0.073 C 
ATOM     85  H   PB8 d   1       1.971  11.192  33.748  0.00  0.00     0.028 H 
ATOM     86  H   PB8 d   1       1.775  12.922  34.120  0.00  0.00     0.028 H 
ATOM     87  H   PB8 d   1       0.382  11.970  33.551  0.00  0.00     0.028 H 
ENDBRANCH  78  84
ENDBRANCH  75  78
ENDBRANCH  67  75
BRANCH  67  88
ATOM     88  N41 PB8 d   1       2.312  14.275  29.704  0.00  0.00    -0.343 N 
ATOM     89  C20 PB8 d   1       2.610  14.449  28.423  0.00  0.00     0.214 C 
ATOM     90  O44 PB8 d   1       3.780  14.591  28.159  0.00  0.00    -0.274 OA
ATOM     91  H   PB8 d   1       3.111  14.301  30.338  0.00  0.00     0.163 HD
BRANCH  89  92
ATOM     92  C28 PB8 d   1       1.631  14.499  27.278  0.00  0.00    -0.003 C 
ATOM     93  H   PB8 d   1       1.702  15.468  26.783  0.00  0.00     0.040 H 
ATOM     94  H   PB8 d   1       1.866  13.708  26.566  0.00  0.00     0.040 H 
ATOM     95  H   PB8 d   1       0.620  14.357  27.660  0.00  0.00     0.040 H 
ENDBRANCH  89  92
ENDBRANCH  67  88
ENDBRANCH   1  65
TORSDOF 17
