REMARK  4 active torsions:
REMARK  status: ('A' for Active; 'I' for Inactive)
REMARK    1  A    between atoms: N1_3  and  C9_14 
REMARK    2  A    between atoms: C5_10  and  C10_15 
REMARK    3  A    between atoms: C11_16  and  C6_11 
REMARK    4  A    between atoms: C9_14  and  C17_22 
ROOT
ATOM      1  C1  058 d   1      25.336  42.983  49.190  0.00  0.00     0.035 A 
ATOM      2  N1  058 d   1      25.238  43.704  45.096  0.00  0.00    -0.336 N 
ATOM      3 CL1  058 d   1      25.305  42.810  50.908  0.00  0.00    -0.084 Cl
ATOM      4  C2  058 d   1      25.990  42.037  48.400  0.00  0.00    -0.060 A 
ATOM      5  C3  058 d   1      26.019  42.182  47.005  0.00  0.00    -0.054 A 
ATOM      6  C4  058 d   1      24.686  44.087  48.607  0.00  0.00    -0.049 A 
ATOM      7  C5  058 d   1      24.507  44.885  45.005  0.00  0.00     0.125 A 
ATOM      8  C6  058 d   1      24.163  45.230  46.319  0.00  0.00     0.024 A 
ATOM      9  C7  058 d   1      24.703  44.249  47.197  0.00  0.00     0.006 A 
ATOM     10  C8  058 d   1      25.369  43.300  46.418  0.00  0.00     0.046 A 
ATOM     11  H1  058 d   1      26.477  41.188  48.865  0.00  0.00     0.086 H 
ATOM     12  H2  058 d   1      26.529  41.453  46.386  0.00  0.00     0.087 H 
ATOM     13  H3  058 d   1      24.175  44.810  49.232  0.00  0.00     0.087 H 
ENDROOT
BRANCH   2  14
ATOM     14  C9  058 d   1      25.804  43.000  43.953  0.00  0.00     0.024 C 
ATOM     15  H4  058 d   1      25.093  43.042  43.115  0.00  0.00     0.072 H 
ATOM     16  H5  058 d   1      25.985  41.950  44.228  0.00  0.00     0.072 H 
BRANCH  14  17
ATOM     17  C17 058 d   1      27.105  43.631  43.530  0.00  0.00    -0.040 A 
ATOM     18  C18 058 d   1      27.801  43.136  42.415  0.00  0.00    -0.075 A 
ATOM     19  C19 058 d   1      29.010  43.724  42.015  0.00  0.00    -0.082 A 
ATOM     20  H10 058 d   1      27.401  42.295  41.860  0.00  0.00     0.084 H 
ATOM     21  C20 058 d   1      29.543  44.805  42.730  0.00  0.00    -0.083 A 
ATOM     22  H11 058 d   1      29.535  43.340  41.148  0.00  0.00     0.083 H 
ATOM     23  C21 058 d   1      28.867  45.305  43.847  0.00  0.00    -0.082 A 
ATOM     24  H12 058 d   1      30.479  45.253  42.417  0.00  0.00     0.083 H 
ATOM     25  C22 058 d   1      27.656  44.724  44.241  0.00  0.00    -0.075 A 
ATOM     26  H13 058 d   1      29.279  46.138  44.405  0.00  0.00     0.083 H 
ATOM     27  H14 058 d   1      27.132  45.117  45.104  0.00  0.00     0.084 H 
ENDBRANCH  14  17
ENDBRANCH   2  14
BRANCH   7  28
ATOM     28  C10 058 d   1      24.185  45.598  43.766  0.00  0.00     0.228 C 
ATOM     29  O1  058 d   1      24.523  46.915  43.828  0.00  0.00    -0.643 OA
ATOM     30  O2  058 d   1      23.721  45.104  42.744  0.00  0.00    -0.643 OA
ENDBRANCH   7  28
BRANCH   8  31
ATOM     31  C11 058 d   1      23.380  46.402  46.708  0.00  0.00     0.016 A 
ATOM     32  C12 058 d   1      23.875  47.268  47.701  0.00  0.00    -0.069 A 
ATOM     33  C13 058 d   1      23.128  48.388  48.092  0.00  0.00    -0.082 A 
ATOM     34  H6  058 d   1      24.835  47.069  48.164  0.00  0.00     0.085 H 
ATOM     35  C14 058 d   1      21.883  48.656  47.500  0.00  0.00    -0.080 A 
ATOM     36  H7  058 d   1      23.514  49.052  48.857  0.00  0.00     0.083 H 
ATOM     37  C15 058 d   1      21.383  47.803  46.518  0.00  0.00    -0.045 A 
ATOM     38  H8  058 d   1      21.312  49.525  47.806  0.00  0.00     0.083 H 
ATOM     39  C16 058 d   1      22.123  46.684  46.128  0.00  0.00     0.127 A 
ATOM     40  H9  058 d   1      20.423  48.007  46.058  0.00  0.00     0.088 H 
ATOM     41  F1  058 d   1      21.607  45.878  45.185  0.00  0.00    -0.205 F 
ENDBRANCH   8  31
TORSDOF 4
