REMARK  10 active torsions:
REMARK  status: ('A' for Active; 'I' for Inactive)
REMARK    1  A    between atoms: B1_1  and  O1_4 
REMARK    2  A    between atoms: B1_1  and  O2_7 
REMARK    3  A    between atoms: C5_12  and  B1_1 
REMARK    4  A    between atoms: C3_8  and  N1_3 
REMARK    5  A    between atoms: C3_8  and  C2_5 
REMARK    6  A    between atoms: C6_13  and  C3_8 
REMARK    7  A    between atoms: C3_8  and  C7_14 
REMARK    8  A    between atoms: C4_10  and  C5_12 
REMARK    9  A    between atoms: C8_15  and  C4_10 
REMARK   10  A    between atoms: C6_13  and  C8_15 
ROOT
ATOM      1  C6  FB5 d   1      37.150 -17.132  24.978  0.00  0.00    -0.019 C 
ATOM      2  H   FB5 d   1      37.663 -18.093  24.984  0.00  0.00     0.037 H 
ATOM      3  H   FB5 d   1      36.995 -16.664  25.950  0.00  0.00     0.037 H 
ENDROOT
BRANCH   1   4
ATOM      4  C3  FB5 d   1      35.748 -17.396  24.399  0.00  0.00     0.267 C 
BRANCH   4   5
ATOM      5  N1  FB5 d   1      35.604 -17.433  22.948  0.00  0.00    -0.055 N 
ATOM      6  H   FB5 d   1      34.629 -17.615  22.709  0.00  0.00     0.276 HD
ATOM      7  H   FB5 d   1      35.889 -16.535  22.556  0.00  0.00     0.276 HD
ATOM      8  H   FB5 d   1      36.193 -18.174  22.568  0.00  0.00     0.276 HD
ENDBRANCH   4   5
BRANCH   4   9
ATOM      9  C2  FB5 d   1      35.162 -15.969  24.585  0.00  0.00     0.216 C 
ATOM     10  O3  FB5 d   1      35.305 -15.359  25.637  0.00  0.00    -0.646 OA
ATOM     11  O4  FB5 d   1      34.463 -15.383  23.547  0.00  0.00    -0.646 OA
ENDBRANCH   4   9
BRANCH   4  12
ATOM     12  C7  FB5 d   1      34.698 -18.120  25.212  0.00  0.00     0.250 C 
ATOM     13  F1  FB5 d   1      34.620 -17.685  26.466  0.00  0.00    -0.211 F 
ATOM     14  F2  FB5 d   1      34.806 -19.445  25.114  0.00  0.00    -0.211 F 
ATOM     15  H   FB5 d   1      33.736 -17.867  24.766  0.00  0.00     0.150 H 
ENDBRANCH   4  12
ENDBRANCH   1   4
BRANCH   1  16
ATOM     16  C8  FB5 d   1      38.033 -16.184  24.186  0.00  0.00    -0.063 C 
ATOM     17  H   FB5 d   1      37.888 -16.454  23.140  0.00  0.00     0.033 H 
ATOM     18  H   FB5 d   1      37.736 -15.182  24.495  0.00  0.00     0.033 H 
BRANCH  16  19
ATOM     19  C4  FB5 d   1      39.531 -16.256  24.421  0.00  0.00    -0.068 C 
ATOM     20  H   FB5 d   1      39.658 -16.532  25.468  0.00  0.00     0.032 H 
ATOM     21  H   FB5 d   1      39.918 -16.955  23.680  0.00  0.00     0.032 H 
BRANCH  19  22
ATOM     22  C5  FB5 d   1      40.307 -14.981  24.232  0.00  0.00    -0.035 C 
ATOM     23  H   FB5 d   1      39.803 -14.436  23.434  0.00  0.00     0.028 H 
ATOM     24  H   FB5 d   1      40.335 -14.497  25.208  0.00  0.00     0.028 H 
BRANCH  22  25
ATOM     25  B1  FB5 d   1      41.824 -15.134  23.772  0.00  0.00     0.490 B 
BRANCH  25  26
ATOM     26  O1  FB5 d   1      42.129 -15.210  22.436  0.00  0.00    -0.438 OA
ATOM     27  H   FB5 d   1      42.688 -14.468  22.194  0.00  0.00     0.184 HD
ENDBRANCH  25  26
BRANCH  25  28
ATOM     28  O2  FB5 d   1      42.803 -15.153  24.727  0.00  0.00    -0.438 OA
ATOM     29  H   FB5 d   1      43.394 -14.409  24.593  0.00  0.00     0.184 HD
ENDBRANCH  25  28
ENDBRANCH  22  25
ENDBRANCH  19  22
ENDBRANCH  16  19
ENDBRANCH   1  16
TORSDOF 10
