REMARK  10 active torsions:
REMARK  status: ('A' for Active; 'I' for Inactive)
REMARK    1  A    between atoms: B1_1  and  O2_6 
REMARK    2  A    between atoms: B1_1  and  O3_8 
REMARK    3  A    between atoms: C4_9  and  B1_1 
REMARK    4  A    between atoms: C2_5  and  C1_2 
REMARK    5  A    between atoms: C2_5  and  N1_3 
REMARK    6  A    between atoms: C5_11  and  C2_5 
REMARK    7  A    between atoms: C2_5  and  C6_12 
REMARK    8  A    between atoms: C3_7  and  C4_9 
REMARK    9  A    between atoms: C7_13  and  C3_7 
REMARK   10  A    between atoms: C5_11  and  C7_13 
ROOT
ATOM      1  C5  FB6 d   1      37.345 -17.314  24.696  0.00  0.00    -0.024 C 
ATOM      2  H   FB6 d   1      37.850 -18.265  24.524  0.00  0.00     0.037 H 
ATOM      3  H   FB6 d   1      37.240 -16.977  25.727  0.00  0.00     0.037 H 
ENDROOT
BRANCH   1   4
ATOM      4  C2  FB6 d   1      35.945 -17.505  24.190  0.00  0.00     0.206 C 
BRANCH   4   5
ATOM      5  C1  FB6 d   1      35.282 -16.133  24.352  0.00  0.00     0.210 C 
ATOM      6  O1  FB6 d   1      34.730 -15.597  23.399  0.00  0.00    -0.646 OA
ATOM      7  O4  FB6 d   1      35.251 -15.535  25.589  0.00  0.00    -0.646 OA
ENDBRANCH   4   5
BRANCH   4   8
ATOM      8  N1  FB6 d   1      35.872 -17.788  22.772  0.00  0.00    -0.061 N 
ATOM      9  H   FB6 d   1      34.896 -17.905  22.500  0.00  0.00     0.275 HD
ATOM     10  H   FB6 d   1      36.281 -17.013  22.250  0.00  0.00     0.275 HD
ATOM     11  H   FB6 d   1      36.388 -18.645  22.570  0.00  0.00     0.275 HD
ENDBRANCH   4   8
BRANCH   4  12
ATOM     12  C6  FB6 d   1      35.127 -18.431  25.045  0.00  0.00    -0.036 C 
ATOM     13  H   FB6 d   1      35.603 -19.411  25.075  0.00  0.00     0.031 H 
ATOM     14  H   FB6 d   1      35.060 -18.027  26.055  0.00  0.00     0.031 H 
ATOM     15  H   FB6 d   1      34.127 -18.525  24.623  0.00  0.00     0.031 H 
ENDBRANCH   4  12
ENDBRANCH   1   4
BRANCH   1  16
ATOM     16  C7  FB6 d   1      38.188 -16.287  24.024  0.00  0.00    -0.063 C 
ATOM     17  H   FB6 d   1      38.139 -16.511  22.958  0.00  0.00     0.033 H 
ATOM     18  H   FB6 d   1      37.795 -15.322  24.343  0.00  0.00     0.033 H 
BRANCH  16  19
ATOM     19  C3  FB6 d   1      39.634 -16.273  24.371  0.00  0.00    -0.068 C 
ATOM     20  H   FB6 d   1      39.678 -16.408  25.452  0.00  0.00     0.032 H 
ATOM     21  H   FB6 d   1      40.093 -17.042  23.749  0.00  0.00     0.032 H 
BRANCH  19  22
ATOM     22  C4  FB6 d   1      40.396 -15.024  24.092  0.00  0.00    -0.035 C 
ATOM     23  H   FB6 d   1      39.911 -14.551  23.238  0.00  0.00     0.028 H 
ATOM     24  H   FB6 d   1      40.393 -14.447  25.017  0.00  0.00     0.028 H 
BRANCH  22  25
ATOM     25  B1  FB6 d   1      41.928 -15.223  23.689  0.00  0.00     0.490 B 
BRANCH  25  26
ATOM     26  O2  FB6 d   1      42.861 -15.331  24.682  0.00  0.00    -0.438 OA
ATOM     27  H   FB6 d   1      43.278 -16.195  24.635  0.00  0.00     0.184 HD
ENDBRANCH  25  26
BRANCH  25  28
ATOM     28  O3  FB6 d   1      42.290 -15.336  22.371  0.00  0.00    -0.438 OA
ATOM     29  H   FB6 d   1      42.929 -14.652  22.156  0.00  0.00     0.184 HD
ENDBRANCH  25  28
ENDBRANCH  22  25
ENDBRANCH  19  22
ENDBRANCH  16  19
ENDBRANCH   1  16
TORSDOF 10
