REMARK  9 active torsions:
REMARK  status: ('A' for Active; 'I' for Inactive)
REMARK       I    between atoms: N2_2  and  C7_7 
REMARK       I    between atoms: C7_7  and  N9_9 
REMARK    1  A    between atoms: N9_9  and  C10_10 
REMARK    2  A    between atoms: C10_10  and  C11_11 
REMARK    3  A    between atoms: C13_13  and  N20_20 
REMARK    4  A    between atoms: C14_14  and  C15_15 
REMARK    5  A    between atoms: C15_15  and  O16_16 
REMARK    6  A    between atoms: O16_16  and  C17_17 
REMARK    7  A    between atoms: C17_17  and  C18_18 
REMARK       I    between atoms: N20_20  and  C21_21 
REMARK    8  A    between atoms: C21_21  and  C22_22 
REMARK    9  A    between atoms: C22_22  and  C23_23 
ROOT
ATOM      1  C1  JN4 d   1     -21.712  10.464  27.774  0.00  0.00     0.003 C 
ATOM      2  N2  JN4 d   1     -21.741   9.703  26.533  0.00  0.00    -0.329 N 
ATOM      3  C3  JN4 d   1     -21.161   8.333  26.527  0.00  0.00     0.029 C 
ATOM      4  C4  JN4 d   1     -21.400   7.482  27.796  0.00  0.00     0.010 A 
ATOM      5  C5  JN4 d   1     -21.794   8.161  29.007  0.00  0.00    -0.023 A 
ATOM      6  C6  JN4 d   1     -21.935   9.680  29.065  0.00  0.00    -0.024 C 
ATOM      7  C7  JN4 d   1     -22.644  10.142  25.506  0.00  0.00     0.318 C 
ATOM      8  O8  JN4 d   1     -22.743   9.514  24.464  0.00  0.00    -0.247 OA
ATOM      9  N9  JN4 d   1     -23.257  11.436  25.638  0.00  0.00    -0.343 N 
ATOM     10  S12 JN4 d   1     -21.346   5.778  28.125  0.00  0.00    -0.074 SA
ATOM     11  C13 JN4 d   1     -21.748   5.613  29.650  0.00  0.00     0.094 A 
ATOM     12  C14 JN4 d   1     -22.030   7.011  30.225  0.00  0.00     0.080 A 
ATOM     13  H1  JN4 d   1     -22.496  11.233  27.712  0.00  0.00     0.065 H 
ATOM     14  H2  JN4 d   1     -20.727  10.949  27.845  0.00  0.00     0.065 H 
ATOM     15  H3  JN4 d   1     -20.074   8.430  26.388  0.00  0.00     0.072 H 
ATOM     16  H4  JN4 d   1     -21.593   7.790  25.673  0.00  0.00     0.072 H 
ATOM     17  H5  JN4 d   1     -22.955   9.902  29.412  0.00  0.00     0.042 H 
ATOM     18  H6  JN4 d   1     -21.208  10.049  29.803  0.00  0.00     0.042 H 
ATOM     19  H7  JN4 d   1     -23.144  11.947  26.490  0.00  0.00     0.164 HD
ENDROOT
BRANCH  11  20
ATOM     20  N20 JN4 d   1     -21.906   4.432  30.483  0.00  0.00    -0.320 N 
ATOM     21  C21 JN4 d   1     -21.815   3.073  30.017  0.00  0.00     0.226 C 
ATOM     22  O29 JN4 d   1     -21.370   2.856  28.911  0.00  0.00    -0.273 OA
ATOM     23  H18 JN4 d   1     -22.092   4.575  31.455  0.00  0.00     0.169 HD
BRANCH  21  24
ATOM     24  C22 JN4 d   1     -22.106   1.956  30.986  0.00  0.00     0.033 C 
ATOM     25  H19 JN4 d   1     -21.228   1.294  31.007  0.00  0.00     0.054 H 
ATOM     26  H20 JN4 d   1     -22.975   1.400  30.605  0.00  0.00     0.054 H 
BRANCH  24  27
ATOM     27  C23 JN4 d   1     -22.410   2.365  32.414  0.00  0.00    -0.050 A 
ATOM     28  C24 JN4 d   1     -23.654   2.823  32.763  0.00  0.00    -0.076 A 
ATOM     29  C28 JN4 d   1     -23.925   3.220  34.131  0.00  0.00    -0.082 A 
ATOM     30  H21 JN4 d   1     -24.436   2.889  32.015  0.00  0.00     0.084 H 
ATOM     31  C27 JN4 d   1     -22.910   3.145  35.118  0.00  0.00    -0.083 A 
ATOM     32  H25 JN4 d   1     -24.912   3.577  34.401  0.00  0.00     0.083 H 
ATOM     33  C26 JN4 d   1     -21.625   2.670  34.764  0.00  0.00    -0.082 A 
ATOM     34  H24 JN4 d   1     -23.117   3.450  36.138  0.00  0.00     0.083 H 
ATOM     35  C25 JN4 d   1     -21.364   2.293  33.434  0.00  0.00    -0.076 A 
ATOM     36  H23 JN4 d   1     -20.846   2.597  35.514  0.00  0.00     0.083 H 
ATOM     37  H22 JN4 d   1     -20.374   1.944  33.161  0.00  0.00     0.084 H 
ENDBRANCH  24  27
ENDBRANCH  21  24
ENDBRANCH  11  20
BRANCH  12  38
ATOM     38  C15 JN4 d   1     -22.459   7.307  31.630  0.00  0.00     0.296 C 
ATOM     39  O19 JN4 d   1     -22.581   6.372  32.474  0.00  0.00    -0.259 OA
BRANCH  38  40
ATOM     40  O16 JN4 d   1     -22.800   8.491  31.931  0.00  0.00    -0.318 OA
BRANCH  40  41
ATOM     41  C17 JN4 d   1     -23.115   8.787  33.247  0.00  0.00     0.026 C 
ATOM     42  H13 JN4 d   1     -23.749   7.973  33.629  0.00  0.00     0.074 H 
ATOM     43  H14 JN4 d   1     -23.685   9.728  33.250  0.00  0.00     0.074 H 
BRANCH  41  44
ATOM     44  C18 JN4 d   1     -21.969   8.950  34.192  0.00  0.00    -0.056 C 
ATOM     45  H15 JN4 d   1     -22.352   9.181  35.197  0.00  0.00     0.030 H 
ATOM     46  H16 JN4 d   1     -21.324   9.772  33.848  0.00  0.00     0.030 H 
ATOM     47  H17 JN4 d   1     -21.387   8.017  34.227  0.00  0.00     0.030 H 
ENDBRANCH  41  44
ENDBRANCH  40  41
ENDBRANCH  38  40
ENDBRANCH  12  38
BRANCH   9  48
ATOM     48  C10 JN4 d   1     -24.029  12.010  24.569  0.00  0.00    -0.006 C 
ATOM     49  H8  JN4 d   1     -25.056  11.627  24.663  0.00  0.00     0.063 H 
ATOM     50  H9  JN4 d   1     -23.592  11.659  23.622  0.00  0.00     0.063 H 
BRANCH  48  51
ATOM     51  C11 JN4 d   1     -24.112  13.498  24.498  0.00  0.00    -0.061 C 
ATOM     52  H10 JN4 d   1     -24.730  13.790  23.637  0.00  0.00     0.029 H 
ATOM     53  H11 JN4 d   1     -23.101  13.916  24.383  0.00  0.00     0.029 H 
ATOM     54  H12 JN4 d   1     -24.566  13.884  25.423  0.00  0.00     0.029 H 
ENDBRANCH  48  51
ENDBRANCH   9  48
TORSDOF 9
