REMARK  9 active torsions:
REMARK  status: ('A' for Active; 'I' for Inactive)
REMARK    1  A    between atoms: C2_2  and  C19_19 
REMARK       I    between atoms: N7_7  and  C24_24 
REMARK       I    between atoms: N10_10  and  C11_11 
REMARK    2  A    between atoms: C11_11  and  C12_12 
REMARK    3  A    between atoms: C12_12  and  C13_13 
REMARK    4  A    between atoms: C19_19  and  O20_20 
REMARK    5  A    between atoms: O20_20  and  C21_21 
REMARK    6  A    between atoms: C21_21  and  C22_22 
REMARK    7  A    between atoms: C24_24  and  O25_25 
REMARK    8  A    between atoms: O25_25  and  C26_26 
REMARK    9  A    between atoms: C26_26  and  C27_27 
ROOT
ATOM      1  C1  J25 d   1     -21.713   7.393  28.943  0.00  0.00    -0.023 A 
ATOM      2  C2  J25 d   1     -21.602   6.403  30.066  0.00  0.00     0.080 A 
ATOM      3  C3  J25 d   1     -21.255   5.032  29.555  0.00  0.00     0.094 A 
ATOM      4  S4  J25 d   1     -21.061   5.039  27.829  0.00  0.00    -0.074 SA
ATOM      5  C5  J25 d   1     -21.432   6.734  27.658  0.00  0.00     0.010 A 
ATOM      6  C6  J25 d   1     -21.454   7.389  26.313  0.00  0.00     0.030 C 
ATOM      7  N7  J25 d   1     -22.263   8.621  26.367  0.00  0.00    -0.323 N 
ATOM      8  C8  J25 d   1     -22.822   9.156  27.629  0.00  0.00     0.004 C 
ATOM      9  C9  J25 d   1     -22.042   8.856  28.919  0.00  0.00    -0.024 C 
ATOM     10  N10 J25 d   1     -21.061   3.939  30.347  0.00  0.00    -0.320 N 
ATOM     11  C11 J25 d   1     -21.282   2.672  29.976  0.00  0.00     0.227 C 
ATOM     12  O18 J25 d   1     -20.577   2.070  29.171  0.00  0.00    -0.273 OA
ATOM     13  C24 J25 d   1     -22.564   9.264  25.232  0.00  0.00     0.363 C 
ATOM     14  O28 J25 d   1     -23.730   9.564  24.999  0.00  0.00    -0.238 OA
ATOM     15  H   J25 d   1     -21.891   6.704  25.587  0.00  0.00     0.072 H 
ATOM     16  H   J25 d   1     -20.435   7.641  26.019  0.00  0.00     0.072 H 
ATOM     17  H   J25 d   1     -23.794   8.678  27.751  0.00  0.00     0.065 H 
ATOM     18  H   J25 d   1     -22.815  10.241  27.522  0.00  0.00     0.065 H 
ATOM     19  H   J25 d   1     -21.125   9.445  28.947  0.00  0.00     0.042 H 
ATOM     20  H   J25 d   1     -22.645   9.117  29.789  0.00  0.00     0.042 H 
ATOM     21  H   J25 d   1     -20.721   4.099  31.295  0.00  0.00     0.169 HD
ENDROOT
BRANCH   2  22
ATOM     22  C19 J25 d   1     -21.850   6.780  31.484  0.00  0.00     0.296 C 
ATOM     23  O23 J25 d   1     -22.070   5.947  32.356  0.00  0.00    -0.259 OA
BRANCH  22  24
ATOM     24  O20 J25 d   1     -21.866   8.189  31.816  0.00  0.00    -0.318 OA
BRANCH  24  25
ATOM     25  C21 J25 d   1     -22.676   8.655  32.890  0.00  0.00     0.026 C 
ATOM     26  H   J25 d   1     -22.739   7.898  33.671  0.00  0.00     0.074 H 
ATOM     27  H   J25 d   1     -23.688   8.859  32.539  0.00  0.00     0.074 H 
BRANCH  25  28
ATOM     28  C22 J25 d   1     -22.045   9.918  33.434  0.00  0.00    -0.056 C 
ATOM     29  H   J25 d   1     -21.038   9.696  33.788  0.00  0.00     0.030 H 
ATOM     30  H   J25 d   1     -21.997  10.668  32.644  0.00  0.00     0.030 H 
ATOM     31  H   J25 d   1     -22.647  10.297  34.260  0.00  0.00     0.030 H 
ENDBRANCH  25  28
ENDBRANCH  24  25
ENDBRANCH  22  24
ENDBRANCH   2  22
BRANCH  11  32
ATOM     32  C12 J25 d   1     -22.468   1.994  30.637  0.00  0.00     0.039 C 
ATOM     33  H   J25 d   1     -22.310   0.916  30.625  0.00  0.00     0.055 H 
ATOM     34  H   J25 d   1     -23.374   2.256  30.090  0.00  0.00     0.055 H 
BRANCH  32  35
ATOM     35  C13 J25 d   1     -22.613   2.453  32.075  0.00  0.00    -0.009 A 
ATOM     36  C14 J25 d   1     -23.685   2.893  32.843  0.00  0.00    -0.069 A 
ATOM     37  C15 J25 d   1     -23.313   3.221  34.157  0.00  0.00    -0.076 A 
ATOM     38  H   J25 d   1     -24.704   2.975  32.466  0.00  0.00     0.085 H 
ATOM     39  C16 J25 d   1     -21.968   3.067  34.494  0.00  0.00    -0.045 A 
ATOM     40  H   J25 d   1     -24.043   3.580  34.882  0.00  0.00     0.084 H 
ATOM     41  S17 J25 d   1     -21.193   2.481  33.060  0.00  0.00    -0.106 SA
ATOM     42  H   J25 d   1     -21.502   3.272  35.458  0.00  0.00     0.095 H 
ENDBRANCH  32  35
ENDBRANCH  11  32
BRANCH  13  43
ATOM     43  O25 J25 d   1     -21.550   9.616  24.224  0.00  0.00    -0.304 OA
BRANCH  43  44
ATOM     44  C26 J25 d   1     -20.141   9.430  24.423  0.00  0.00     0.027 C 
ATOM     45  H   J25 d   1     -19.987   8.569  25.074  0.00  0.00     0.074 H 
ATOM     46  H   J25 d   1     -19.726  10.331  24.874  0.00  0.00     0.074 H 
BRANCH  44  47
ATOM     47  C27 J25 d   1     -19.444   9.177  23.100  0.00  0.00    -0.056 C 
ATOM     48  H   J25 d   1     -19.858   8.280  22.639  0.00  0.00     0.030 H 
ATOM     49  H   J25 d   1     -19.598  10.031  22.440  0.00  0.00     0.030 H 
ATOM     50  H   J25 d   1     -18.377   9.039  23.274  0.00  0.00     0.030 H 
ENDBRANCH  44  47
ENDBRANCH  43  44
ENDBRANCH  13  43
TORSDOF 9
