REMARK  9 active torsions:
REMARK  status: ('A' for Active; 'I' for Inactive)
REMARK       I    between atoms: N3_3  and  C10_10 
REMARK    1  A    between atoms: C8_8  and  N16_16 
REMARK    2  A    between atoms: C9_9  and  C15_15 
REMARK    3  A    between atoms: C10_10  and  O12_12 
REMARK    4  A    between atoms: O12_12  and  C13_13 
REMARK    5  A    between atoms: C13_13  and  C14_14 
REMARK    6  A    between atoms: C15_15  and  O25_25 
REMARK       I    between atoms: N16_16  and  C17_17 
REMARK    7  A    between atoms: C17_17  and  C18_18 
REMARK    8  A    between atoms: C18_18  and  C19_19 
REMARK    9  A    between atoms: O25_25  and  C27_27 
ROOT
ATOM      1  C1  JN7 d   1      72.058  -9.367  29.665  0.00  0.00    -0.024 C 
ATOM      2  C2  JN7 d   1      71.773 -10.040  28.293  0.00  0.00     0.004 C 
ATOM      3  N3  JN7 d   1      72.016  -9.148  27.172  0.00  0.00    -0.323 N 
ATOM      4  C4  JN7 d   1      71.215  -7.918  27.099  0.00  0.00     0.030 C 
ATOM      5  C5  JN7 d   1      71.332  -7.143  28.407  0.00  0.00     0.010 A 
ATOM      6  C6  JN7 d   1      71.761  -7.848  29.677  0.00  0.00    -0.023 A 
ATOM      7  S7  JN7 d   1      71.113  -5.585  28.723  0.00  0.00    -0.074 SA
ATOM      8  C8  JN7 d   1      71.440  -5.384  30.368  0.00  0.00     0.094 A 
ATOM      9  C9  JN7 d   1      71.826  -6.713  30.949  0.00  0.00     0.080 A 
ATOM     10  C10 JN7 d   1      73.251  -9.058  26.411  0.00  0.00     0.363 C 
ATOM     11  O11 JN7 d   1      73.588  -7.972  25.853  0.00  0.00    -0.238 OA
ATOM     12  H   JN7 d   1      73.119  -9.517  29.913  0.00  0.00     0.042 H 
ATOM     13  H   JN7 d   1      71.431  -9.851  30.428  0.00  0.00     0.042 H 
ATOM     14  H   JN7 d   1      70.720 -10.358  28.268  0.00  0.00     0.065 H 
ATOM     15  H   JN7 d   1      72.424 -10.920  28.190  0.00  0.00     0.065 H 
ATOM     16  H   JN7 d   1      70.161  -8.179  26.923  0.00  0.00     0.072 H 
ATOM     17  H   JN7 d   1      71.581  -7.293  26.271  0.00  0.00     0.072 H 
ENDROOT
BRANCH   9  18
ATOM     18  C15 JN7 d   1      72.214  -6.900  32.404  0.00  0.00     0.297 C 
ATOM     19  O26 JN7 d   1      72.551  -5.868  33.038  0.00  0.00    -0.259 OA
BRANCH  18  20
ATOM     20  O25 JN7 d   1      72.020  -7.949  33.108  0.00  0.00    -0.312 OA
BRANCH  20  21
ATOM     21  C27 JN7 d   1      71.882  -9.235  32.606  0.00  0.00     0.048 C 
ATOM     22  C28 JN7 d   1      70.744 -10.118  33.151  0.00  0.00    -0.040 C 
ATOM     23  C29 JN7 d   1      71.382 -11.467  33.557  0.00  0.00    -0.063 C 
ATOM     24  H   JN7 d   1      69.983 -10.278  32.373  0.00  0.00     0.036 H 
ATOM     25  H   JN7 d   1      70.279  -9.640  34.026  0.00  0.00     0.036 H 
ATOM     26  C30 JN7 d   1      72.666 -11.562  32.734  0.00  0.00    -0.063 C 
ATOM     27  H   JN7 d   1      70.707 -12.302  33.317  0.00  0.00     0.033 H 
ATOM     28  H   JN7 d   1      71.611 -11.478  34.633  0.00  0.00     0.033 H 
ATOM     29  C31 JN7 d   1      73.122 -10.124  32.527  0.00  0.00    -0.040 C 
ATOM     30  H   JN7 d   1      72.468 -12.046  31.766  0.00  0.00     0.033 H 
ATOM     31  H   JN7 d   1      73.431 -12.133  33.280  0.00  0.00     0.033 H 
ATOM     32  H   JN7 d   1      73.839  -9.840  33.312  0.00  0.00     0.036 H 
ATOM     33  H   JN7 d   1      73.598 -10.019  31.541  0.00  0.00     0.036 H 
ATOM     34  H   JN7 d   1      71.609  -9.049  31.557  0.00  0.00     0.084 H 
ENDBRANCH  20  21
ENDBRANCH  18  20
ENDBRANCH   9  18
BRANCH   8  35
ATOM     35  N16 JN7 d   1      71.418  -4.150  31.127  0.00  0.00    -0.320 N 
ATOM     36  C17 JN7 d   1      71.424  -2.813  30.578  0.00  0.00     0.227 C 
ATOM     37  O24 JN7 d   1      71.076  -2.589  29.431  0.00  0.00    -0.273 OA
ATOM     38  H   JN7 d   1      71.397  -4.231  32.123  0.00  0.00     0.169 HD
BRANCH  36  39
ATOM     39  C18 JN7 d   1      71.489  -1.700  31.582  0.00  0.00     0.039 C 
ATOM     40  H   JN7 d   1      70.522  -1.176  31.565  0.00  0.00     0.055 H 
ATOM     41  H   JN7 d   1      72.285  -1.010  31.266  0.00  0.00     0.055 H 
BRANCH  39  42
ATOM     42  C19 JN7 d   1      71.769  -2.103  33.011  0.00  0.00    -0.009 A 
ATOM     43  S20 JN7 d   1      73.195  -2.644  33.647  0.00  0.00    -0.106 SA
ATOM     44  C21 JN7 d   1      72.927  -2.953  35.214  0.00  0.00    -0.045 A 
ATOM     45  C22 JN7 d   1      71.460  -2.631  35.534  0.00  0.00    -0.076 A 
ATOM     46  H   JN7 d   1      73.664  -3.327  35.923  0.00  0.00     0.095 H 
ATOM     47  C23 JN7 d   1      70.726  -2.099  34.161  0.00  0.00    -0.069 A 
ATOM     48  H   JN7 d   1      70.984  -2.737  36.508  0.00  0.00     0.084 H 
ATOM     49  H   JN7 d   1      69.684  -1.795  34.074  0.00  0.00     0.085 H 
ENDBRANCH  39  42
ENDBRANCH  36  39
ENDBRANCH   8  35
BRANCH  10  50
ATOM     50  O12 JN7 d   1      74.086 -10.017  26.506  0.00  0.00    -0.304 OA
BRANCH  50  51
ATOM     51  C13 JN7 d   1      75.229 -10.100  25.726  0.00  0.00     0.027 C 
ATOM     52  H   JN7 d   1      75.667  -9.092  25.672  0.00  0.00     0.074 H 
ATOM     53  H   JN7 d   1      74.921 -10.421  24.720  0.00  0.00     0.074 H 
BRANCH  51  54
ATOM     54  C14 JN7 d   1      76.303 -11.034  26.188  0.00  0.00    -0.056 C 
ATOM     55  H   JN7 d   1      77.146 -11.002  25.482  0.00  0.00     0.030 H 
ATOM     56  H   JN7 d   1      75.903 -12.058  26.235  0.00  0.00     0.030 H 
ATOM     57  H   JN7 d   1      76.649 -10.729  27.187  0.00  0.00     0.030 H 
ENDBRANCH  51  54
ENDBRANCH  50  51
ENDBRANCH  10  50
TORSDOF 9
