REMARK  7 active torsions:
REMARK  status: ('A' for Active; 'I' for Inactive)
REMARK    1  A    between atoms: N1_1  and  C1_12 
REMARK    2  A    between atoms: C2_13  and  N1_1 
REMARK    3  A    between atoms: C6_5  and  N3_2 
REMARK    4  A    between atoms: N3_2  and  C7_6 
REMARK    5  A    between atoms: C4_3  and  C5_4 
REMARK    6  A    between atoms: C5_4  and  C6_5 
REMARK    7  A    between atoms: C7_6  and  C8_7 
ROOT
ATOM      1  C5  AEK d   1      15.017  16.429  19.365  0.00  0.00    -0.014 C 
ATOM      2  H   AEK d   1      14.629  17.182  18.679  0.00  0.00     0.042 H 
ATOM      3  H   AEK d   1      14.306  16.257  20.173  0.00  0.00     0.042 H 
ENDROOT
BRANCH   1   4
ATOM      4  C4  AEK d   1      16.341  16.923  19.957  0.00  0.00     0.003 A 
ATOM      5  C13 AEK d   1      16.659  16.910  21.320  0.00  0.00     0.082 A 
ATOM      6  N4  AEK d   1      15.717  16.482  22.200  0.00  0.00    -0.242 NA
ATOM      7  C16 AEK d   1      17.920  17.323  21.795  0.00  0.00     0.064 A 
ATOM      8  C14 AEK d   1      15.949  16.445  23.481  0.00  0.00     0.067 A 
ATOM      9  N5  AEK d   1      17.119  16.818  24.064  0.00  0.00    -0.317 N 
ATOM     10  H   AEK d   1      15.149  16.090  24.131  0.00  0.00     0.143 H 
ATOM     11  C15 AEK d   1      18.146  17.266  23.281  0.00  0.00     0.259 A 
ATOM     12  H   AEK d   1      17.230  16.764  25.077  0.00  0.00     0.169 HD
ATOM     13  O1  AEK d   1      19.216  17.613  23.771  0.00  0.00    -0.267 OA
ATOM     14  C17 AEK d   1      18.929  17.773  20.930  0.00  0.00    -0.035 A 
ATOM     15  C18 AEK d   1      18.592  17.780  19.580  0.00  0.00     0.104 A 
ATOM     16  H   AEK d   1      19.907  18.094  21.290  0.00  0.00     0.088 H 
ATOM     17  C3  AEK d   1      17.356  17.377  19.111  0.00  0.00     0.087 A 
ATOM     18  N6  AEK d   1      19.314  18.146  18.518  0.00  0.00    -0.063 NA
ATOM     19  N2  AEK d   1      17.372  17.513  17.754  0.00  0.00    -0.187 N 
ATOM     20  C2  AEK d   1      18.579  17.988  17.404  0.00  0.00     0.701 A 
ATOM     21  H   AEK d   1      16.605  17.293  17.119  0.00  0.00     0.184 HD
BRANCH  20  22
ATOM     22  N1  AEK d   1      19.063  18.286  16.173  0.00  0.00    -0.229 N 
ATOM     23  H   AEK d   1      20.013  18.646  16.087  0.00  0.00     0.177 HD
BRANCH  22  24
ATOM     24  C1  AEK d   1      18.251  18.103  14.956  0.00  0.00    -0.005 C 
ATOM     25  H   AEK d   1      17.969  17.054  14.863  0.00  0.00     0.057 H 
ATOM     26  H   AEK d   1      17.353  18.718  15.024  0.00  0.00     0.057 H 
ATOM     27  H   AEK d   1      18.833  18.402  14.084  0.00  0.00     0.057 H 
ENDBRANCH  22  24
ENDBRANCH  20  22
ENDBRANCH   1   4
BRANCH   1  28
ATOM     28  C6  AEK d   1      15.240  15.107  18.595  0.00  0.00     0.085 C 
ATOM     29  H   AEK d   1      16.133  15.222  17.981  0.00  0.00     0.076 H 
ATOM     30  H   AEK d   1      15.337  14.304  19.326  0.00  0.00     0.076 H 
BRANCH  28  31
ATOM     31  N3  AEK d   1      14.110  14.776  17.700  0.00  0.00    -0.074 N 
ATOM     32  H   AEK d   1      14.202  13.787  17.470  0.00  0.00     0.277 HD
ATOM     33  H   AEK d   1      14.168  15.418  16.910  0.00  0.00     0.277 HD
BRANCH  31  34
ATOM     34  C7  AEK d   1      12.759  14.949  18.286  0.00  0.00     0.085 C 
ATOM     35  H   AEK d   1      12.684  15.952  18.706  0.00  0.00     0.076 H 
ATOM     36  H   AEK d   1      12.611  14.194  19.058  0.00  0.00     0.076 H 
BRANCH  34  37
ATOM     37  C8  AEK d   1      11.647  14.775  17.187  0.00  0.00    -0.031 C 
ATOM     38  C9  AEK d   1      10.229  14.744  17.819  0.00  0.00    -0.060 C 
ATOM     39  C10 AEK d   1       9.320  15.282  16.714  0.00  0.00    -0.065 C 
ATOM     40  H   AEK d   1      10.169  15.340  18.730  0.00  0.00     0.033 H 
ATOM     41  H   AEK d   1       9.941  13.743  18.140  0.00  0.00     0.033 H 
ATOM     42  C11 AEK d   1      10.158  16.229  15.844  0.00  0.00    -0.065 C 
ATOM     43  H   AEK d   1       8.471  15.813  17.145  0.00  0.00     0.033 H 
ATOM     44  H   AEK d   1       8.926  14.462  16.113  0.00  0.00     0.033 H 
ATOM     45  C12 AEK d   1      11.635  16.045  16.277  0.00  0.00    -0.060 C 
ATOM     46  H   AEK d   1       9.840  17.263  15.979  0.00  0.00     0.033 H 
ATOM     47  H   AEK d   1      10.032  15.997  14.786  0.00  0.00     0.033 H 
ATOM     48  H   AEK d   1      12.292  15.926  15.416  0.00  0.00     0.033 H 
ATOM     49  H   AEK d   1      12.008  16.921  16.808  0.00  0.00     0.033 H 
ATOM     50  H   AEK d   1      11.866  13.851  16.652  0.00  0.00     0.042 H 
ENDBRANCH  34  37
ENDBRANCH  31  34
ENDBRANCH  28  31
ENDBRANCH   1  28
TORSDOF 7
