REMARK  23 active torsions:
REMARK  status: ('A' for Active; 'I' for Inactive)
REMARK    1  A    between atoms: CA_1  and  CB_2 
REMARK    2  A    between atoms: CA_1  and  C_5 
REMARK    3  A    between atoms: CB_2  and  CG1_3 
REMARK    4  A    between atoms: CB_2  and  CG2_4 
REMARK       I    between atoms: C_5  and  N_7 
REMARK    5  A    between atoms: N_7  and  CA_8 
REMARK    6  A    between atoms: CA_8  and  C_9 
REMARK    7  A    between atoms: CA_8  and  CB_11 
REMARK       I    between atoms: C_9  and  N_14 
REMARK    8  A    between atoms: CB_11  and  CG1_12 
REMARK    9  A    between atoms: CB_11  and  CG2_13 
REMARK   10  A    between atoms: N_14  and  CA_15 
REMARK   11  A    between atoms: CA_15  and  C_16 
REMARK   12  A    between atoms: CA_15  and  CB_18 
REMARK       I    between atoms: C_16  and  N_21 
REMARK   13  A    between atoms: CB_18  and  CG1_19 
REMARK   14  A    between atoms: CB_18  and  CG2_20 
REMARK   15  A    between atoms: N_21  and  CA_22 
REMARK   16  A    between atoms: CA_22  and  CB_23 
REMARK   17  A    between atoms: CA_22  and  CH_27 
REMARK   18  A    between atoms: CB_23  and  CG_24 
REMARK   19  A    between atoms: CG_24  and  CD1_25 
REMARK   20  A    between atoms: CG_24  and  CD2_26 
REMARK   21  A    between atoms: CH_27  and  OH_28 
REMARK   22  A    between atoms: CH_27  and  CM_29 
REMARK   23  A    between atoms: CM_29  and  C_30 
ROOT
ATOM      1  CA  VAL d   1      -9.532   5.199   4.236  0.00  0.00     0.092 C 
ATOM      2  H   VAL d   1      -9.292   4.458   3.473  0.00  0.00     0.088 H 
ENDROOT
BRANCH   1   3
ATOM      3  N   VAL d   1      -8.403   5.374   5.158  0.00  0.00    -0.346 N 
ATOM      4  C   VAL d   1      -7.302   4.658   5.055  0.00  0.00     0.241 C 
ATOM      5  O   VAL d   1      -7.161   3.764   4.204  0.00  0.00    -0.271 OA
ATOM      6  H   VAL d   1      -8.473   6.070   5.900  0.00  0.00     0.163 HD
BRANCH   4   7
ATOM      7  CA  VAL d   1      -6.177   5.000   6.047  0.00  0.00     0.092 C 
ATOM      8  H   VAL d   1      -6.426   5.793   6.753  0.00  0.00     0.088 H 
BRANCH   7   9
ATOM      9  N   VAL d   1      -5.934   3.753   6.763  0.00  0.00    -0.347 N 
ATOM     10  C   IVA d   1      -5.734   3.702   8.074  0.00  0.00     0.218 C 
ATOM     11  O   IVA d   1      -5.685   4.734   8.749  0.00  0.00    -0.274 OA
ATOM     12  H   VAL d   1      -5.917   2.882   6.233  0.00  0.00     0.163 HD
BRANCH  10  13
ATOM     13  CA  IVA d   1      -5.557   2.335   8.709  0.00  0.00     0.012 C 
ATOM     14  H   IVA d   1      -5.184   1.664   7.935  0.00  0.00     0.047 H 
ATOM     15  H   IVA d   1      -4.880   2.456   9.554  0.00  0.00     0.047 H 
BRANCH  13  16
ATOM     16  CB  IVA d   1      -6.863   1.724   9.253  0.00  0.00    -0.053 C 
ATOM     17  H   IVA d   1      -6.534   0.764   9.650  0.00  0.00     0.039 H 
BRANCH  16  18
ATOM     18  CG1 IVA d   1      -7.486   2.575  10.351  0.00  0.00    -0.073 C 
ATOM     19  H   IVA d   1      -7.848   3.510   9.923  0.00  0.00     0.028 H 
ATOM     20  H   IVA d   1      -8.318   2.033  10.801  0.00  0.00     0.028 H 
ATOM     21  H   IVA d   1      -6.736   2.789  11.113  0.00  0.00     0.028 H 
ENDBRANCH  16  18
BRANCH  16  22
ATOM     22  CG2 IVA d   1      -7.933   1.443   8.207  0.00  0.00    -0.073 C 
ATOM     23  H   IVA d   1      -8.762   0.909   8.671  0.00  0.00     0.028 H 
ATOM     24  H   IVA d   1      -8.292   2.386   7.794  0.00  0.00     0.028 H 
ATOM     25  H   IVA d   1      -7.508   0.834   7.409  0.00  0.00     0.028 H 
ENDBRANCH  16  22
ENDBRANCH  13  16
ENDBRANCH  10  13
ENDBRANCH   7   9
BRANCH   7  26
ATOM     26  CB  VAL d   1      -4.938   5.534   5.267  0.00  0.00    -0.033 C 
ATOM     27  H   VAL d   1      -4.522   4.683   4.729  0.00  0.00     0.042 H 
BRANCH  26  28
ATOM     28  CG1 VAL d   1      -5.312   6.605   4.223  0.00  0.00    -0.071 C 
ATOM     29  H   VAL d   1      -6.006   6.178   3.499  0.00  0.00     0.028 H 
ATOM     30  H   VAL d   1      -5.783   7.451   4.724  0.00  0.00     0.028 H 
ATOM     31  H   VAL d   1      -4.411   6.941   3.710  0.00  0.00     0.028 H 
ENDBRANCH  26  28
BRANCH  26  32
ATOM     32  CG2 VAL d   1      -3.880   6.090   6.232  0.00  0.00    -0.071 C 
ATOM     33  H   VAL d   1      -4.311   6.908   6.809  0.00  0.00     0.028 H 
ATOM     34  H   VAL d   1      -3.555   5.299   6.908  0.00  0.00     0.028 H 
ATOM     35  H   VAL d   1      -3.026   6.456   5.662  0.00  0.00     0.028 H 
ENDBRANCH  26  32
ENDBRANCH   7  26
ENDBRANCH   4   7
ENDBRANCH   1   3
BRANCH   1  36
ATOM     36  C   VAL d   1      -9.819   6.553   3.593  0.00  0.00     0.241 C 
ATOM     37  O   VAL d   1      -9.756   7.562   4.286  0.00  0.00    -0.271 OA
ATOM     38  N   STA d   1     -10.177   6.570   2.295  0.00  0.00    -0.352 N 
ATOM     39  H   STA d   1     -10.216   5.694   1.773  0.00  0.00     0.163 HD
BRANCH  38  40
ATOM     40  CA  STA d   1     -10.511   7.828   1.620  0.00  0.00     0.037 C 
ATOM     41  H   STA d   1      -9.875   8.646   1.957  0.00  0.00     0.076 H 
BRANCH  40  42
ATOM     42  CB  STA d   1     -10.205   7.750   0.118  0.00  0.00    -0.041 C 
ATOM     43  H   STA d   1     -10.519   8.692  -0.332  0.00  0.00     0.036 H 
ATOM     44  H   STA d   1     -10.734   6.885  -0.282  0.00  0.00     0.036 H 
BRANCH  42  45
ATOM     45  CG  STA d   1      -8.708   7.563  -0.188  0.00  0.00    -0.059 C 
ATOM     46  H   STA d   1      -8.422   6.644   0.323  0.00  0.00     0.038 H 
BRANCH  45  47
ATOM     47  CD1 STA d   1      -7.854   8.706   0.353  0.00  0.00    -0.073 C 
ATOM     48  H   STA d   1      -8.175   9.644  -0.100  0.00  0.00     0.028 H 
ATOM     49  H   STA d   1      -7.971   8.765   1.435  0.00  0.00     0.028 H 
ATOM     50  H   STA d   1      -6.808   8.523   0.109  0.00  0.00     0.028 H 
ENDBRANCH  45  47
BRANCH  45  51
ATOM     51  CD2 STA d   1      -8.440   7.401  -1.693  0.00  0.00    -0.073 C 
ATOM     52  H   STA d   1      -8.974   6.526  -2.064  0.00  0.00     0.028 H 
ATOM     53  H   STA d   1      -8.786   8.290  -2.220  0.00  0.00     0.028 H 
ATOM     54  H   STA d   1      -7.370   7.272  -1.859  0.00  0.00     0.028 H 
ENDBRANCH  45  51
ENDBRANCH  42  45
ENDBRANCH  40  42
BRANCH  40  55
ATOM     55  CH  STA d   1     -11.959   8.228   2.008  0.00  0.00     0.062 C 
ATOM     56  H   STA d   1     -11.970   8.269   3.097  0.00  0.00     0.086 H 
BRANCH  55  57
ATOM     57  OH  STA d   1     -12.342   9.513   1.533  0.00  0.00    -0.393 OA
ATOM     58  H   STA d   1     -11.753  10.177   1.899  0.00  0.00     0.210 HD
ENDBRANCH  55  57
BRANCH  55  59
ATOM     59  CM  STA d   1     -12.952   7.197   1.508  0.00  0.00     0.022 C 
ATOM     60  H   STA d   1     -12.623   6.225   1.875  0.00  0.00     0.049 H 
ATOM     61  H   STA d   1     -12.978   7.271   0.421  0.00  0.00     0.049 H 
BRANCH  59  62
ATOM     62  C   STA d   1     -14.367   7.415   2.010  0.00  0.00     0.151 C 
ATOM     63  O   STA d   1     -14.674   7.369   3.386  0.00  0.00    -0.177 OA
ATOM     64  N   ALA d   1     -15.286   7.480   1.049  0.00  0.00    -0.381 N 
ATOM     65  H   ALA d   1     -16.277   7.499   1.291  0.00  0.00     0.158 HD
ATOM     66  H   ALA d   1     -14.999   7.511   0.071  0.00  0.00     0.158 HD
ENDBRANCH  59  62
ENDBRANCH  55  59
ENDBRANCH  40  55
ENDBRANCH  38  40
ENDBRANCH   1  36
BRANCH   1  67
ATOM     67  CB  VAL d   1     -10.785   4.704   5.020  0.00  0.00    -0.033 C 
ATOM     68  H   VAL d   1     -10.905   5.371   5.873  0.00  0.00     0.042 H 
BRANCH  67  69
ATOM     69  CG1 VAL d   1     -12.051   4.780   4.183  0.00  0.00    -0.071 C 
ATOM     70  H   VAL d   1     -12.225   5.813   3.882  0.00  0.00     0.028 H 
ATOM     71  H   VAL d   1     -11.937   4.156   3.296  0.00  0.00     0.028 H 
ATOM     72  H   VAL d   1     -12.896   4.425   4.772  0.00  0.00     0.028 H 
ENDBRANCH  67  69
BRANCH  67  73
ATOM     73  CG2 VAL d   1     -10.583   3.269   5.522  0.00  0.00    -0.071 C 
ATOM     74  H   VAL d   1     -10.417   2.608   4.671  0.00  0.00     0.028 H 
ATOM     75  H   VAL d   1      -9.718   3.236   6.184  0.00  0.00     0.028 H 
ATOM     76  H   VAL d   1     -11.471   2.947   6.066  0.00  0.00     0.028 H 
ENDBRANCH  67  73
ENDBRANCH   1  67
TORSDOF 23
