REMARK  4 active torsions:
REMARK  status: ('A' for Active; 'I' for Inactive)
REMARK    1  A    between atoms: CAI_9  and  CAK_11 
REMARK    2  A    between atoms: NAN_14  and  CAI_9 
REMARK    3  A    between atoms: CAK_11  and  CAQ_17 
REMARK       I    between atoms: CAR_18  and  NAN_14 
REMARK       I    between atoms: NAO_15  and  CAR_18 
REMARK    4  A    between atoms: NAO_15  and  CAS_19 
ROOT
ATOM      1  CAI TDU d   1       3.278  -3.924   9.375  0.00  0.00    -0.003 C 
ATOM      2  H10 TDU d   1       3.277  -2.904   8.963  0.00  0.00     0.064 H 
ATOM      3  H11 TDU d   1       4.141  -4.048  10.046  0.00  0.00     0.064 H 
ENDROOT
BRANCH   1   4
ATOM      4  CAK TDU d   1       3.346  -4.948   8.240  0.00  0.00    -0.044 C 
ATOM      5  H14 TDU d   1       2.626  -4.659   7.461  0.00  0.00     0.036 H 
ATOM      6  H15 TDU d   1       3.076  -5.936   8.640  0.00  0.00     0.036 H 
BRANCH   4   7
ATOM      7  CAQ TDU d   1       4.738  -5.038   7.611  0.00  0.00    -0.037 C 
ATOM      8  CAB TDU d   1       5.063  -6.208   6.911  0.00  0.00    -0.102 C 
ATOM      9  CAF TDU d   1       6.264  -6.489   6.260  0.00  0.00    -0.106 C 
ATOM     10  H1  TDU d   1       4.296  -6.980   6.871  0.00  0.00     0.076 H 
ATOM     11  CAG TDU d   1       7.363  -5.444   6.567  0.00  0.00    -0.050 C 
ATOM     12  H5  TDU d   1       6.412  -7.349   5.608  0.00  0.00     0.076 H 
ATOM     13  CAH TDU d   1       6.870  -3.994   6.703  0.00  0.00    -0.061 C 
ATOM     14  H6  TDU d   1       8.101  -5.477   5.752  0.00  0.00     0.038 H 
ATOM     15  H7  TDU d   1       7.848  -5.728   7.513  0.00  0.00     0.038 H 
ATOM     16  CAJ TDU d   1       5.746  -3.883   7.747  0.00  0.00    -0.058 C 
ATOM     17  H8  TDU d   1       6.490  -3.652   5.729  0.00  0.00     0.033 H 
ATOM     18  H9  TDU d   1       7.711  -3.357   7.013  0.00  0.00     0.033 H 
ATOM     19  H12 TDU d   1       5.218  -2.929   7.605  0.00  0.00     0.034 H 
ATOM     20  H13 TDU d   1       6.188  -3.911   8.754  0.00  0.00     0.034 H 
ATOM     21  H18 TDU d   1       4.355  -4.584   6.685  0.00  0.00     0.046 H 
ENDBRANCH   4   7
ENDBRANCH   1   4
BRANCH   1  22
ATOM     22  NAN TDU d   1       2.029  -4.170  10.111  0.00  0.00    -0.343 N 
ATOM     23  CAR TDU d   1       2.039  -4.489  11.399  0.00  0.00     0.320 C 
ATOM     24  OAA TDU d   1       3.098  -4.580  12.023  0.00  0.00    -0.247 OA
ATOM     25  NAO TDU d   1       0.827  -4.647  11.950  0.00  0.00    -0.309 N 
ATOM     26  H17 TDU d   1       0.056  -4.468  11.339  0.00  0.00     0.170 HD
ATOM     27  H16 TDU d   1       1.155  -4.095   9.631  0.00  0.00     0.164 HD
BRANCH  25  28
ATOM     28  CAS TDU d   1       0.496  -5.008  13.192  0.00  0.00     0.037 A 
ATOM     29  CAC TDU d   1      -0.835  -4.829  13.566  0.00  0.00    -0.055 A 
ATOM     30  CAD TDU d   1      -1.272  -5.201  14.835  0.00  0.00    -0.050 A 
ATOM     31  H2  TDU d   1      -1.537  -4.396  12.862  0.00  0.00     0.087 H 
ATOM     32  CAT TDU d   1      -0.390  -5.768  15.744  0.00  0.00     0.098 A 
ATOM     33  H3  TDU d   1      -2.308  -5.047  15.114  0.00  0.00     0.087 H 
ATOM     34  NAM TDU d   1      -0.626  -6.184  17.010  0.00  0.00    -0.142 NA
ATOM     35  CAU TDU d   1       0.935  -5.942  15.361  0.00  0.00     0.058 A 
ATOM     36  NAL TDU d   1       0.325  -6.667  17.651  0.00  0.00    -0.110 NA
ATOM     37  SAP TDU d   1       1.663  -6.631  16.710  0.00  0.00     0.036 SA
ATOM     38  CAE TDU d   1       1.385  -5.582  14.096  0.00  0.00    -0.037 A 
ATOM     39  H4  TDU d   1       2.419  -5.747  13.816  0.00  0.00     0.089 H 
ENDBRANCH  25  28
ENDBRANCH   1  22
TORSDOF 4
