REMARK  6 active torsions:
REMARK  status: ('A' for Active; 'I' for Inactive)
REMARK    1  A    between atoms: C2_5  and  C1_1 
REMARK    2  A    between atoms: C14_20  and  O1_4 
REMARK    3  A    between atoms: O1_4  and  C18_24 
REMARK    4  A    between atoms: C7_13  and  C6_12 
REMARK    5  A    between atoms: C8_14  and  C19_25 
REMARK    6  A    between atoms: C16_22  and  C17_23 
ROOT
ATOM      1  F1  540 d   1      20.407 -10.046 -38.965  0.00  0.00    -0.206 F 
ATOM      2  N2  540 d   1      20.110 -10.865 -32.366  0.00  0.00    -0.232 NA
ATOM      3  N3  540 d   1      20.608 -11.537 -34.387  0.00  0.00    -0.289 N 
ATOM      4  N4  540 d   1      22.096 -13.904 -35.264  0.00  0.00    -0.246 NA
ATOM      5  C7  540 d   1      20.008 -10.619 -33.624  0.00  0.00     0.146 A 
ATOM      6  C8  540 d   1      20.793 -12.061 -32.176  0.00  0.00     0.062 A 
ATOM      7  C9  540 d   1      21.133 -12.523 -33.448  0.00  0.00     0.090 A 
ATOM      8  C10 540 d   1      20.861 -11.724 -35.803  0.00  0.00     0.076 A 
ATOM      9  C11 540 d   1      20.466 -10.815 -36.775  0.00  0.00    -0.017 A 
ATOM     10  C12 540 d   1      20.793 -11.011 -38.128  0.00  0.00     0.121 A 
ATOM     11  C13 540 d   1      21.518 -12.157 -38.605  0.00  0.00    -0.011 A 
ATOM     12  C14 540 d   1      21.958 -13.163 -37.635  0.00  0.00     0.102 A 
ATOM     13  C15 540 d   1      21.641 -12.944 -36.217  0.00  0.00     0.117 A 
ATOM     14  C16 540 d   1      21.886 -13.703 -33.974  0.00  0.00     0.060 A 
ATOM     15  H7  540 d   1      19.896  -9.940 -36.486  0.00  0.00     0.091 H 
ATOM     16  H8  540 d   1      21.735 -12.274 -39.661  0.00  0.00     0.092 H 
ENDROOT
BRANCH   5  17
ATOM     17  C6  540 d   1      19.277  -9.438 -34.055  0.00  0.00     0.019 A 
ATOM     18  C2  540 d   1      18.016  -9.687 -34.811  0.00  0.00    -0.030 A 
ATOM     19  C3  540 d   1      17.270  -8.517 -35.227  0.00  0.00     0.008 A 
ATOM     20  N1  540 d   1      17.732  -7.228 -34.959  0.00  0.00    -0.273 NA
ATOM     21  H4  540 d   1      16.334  -8.646 -35.758  0.00  0.00     0.115 H 
ATOM     22  C4  540 d   1      18.923  -7.022 -34.207  0.00  0.00     0.003 A 
ATOM     23  C5  540 d   1      19.746  -8.093 -33.721  0.00  0.00    -0.052 A 
ATOM     24  H5  540 d   1      19.224  -6.003 -33.990  0.00  0.00     0.114 H 
ATOM     25  H6  540 d   1      20.649  -7.918 -33.148  0.00  0.00     0.087 H 
BRANCH  18  26
ATOM     26  C1  540 d   1      17.408 -11.041 -35.167  0.00  0.00    -0.049 C 
ATOM     27  H1  540 d   1      16.475 -10.888 -35.729  0.00  0.00     0.033 H 
ATOM     28  H2  540 d   1      17.193 -11.600 -34.245  0.00  0.00     0.033 H 
ATOM     29  H3  540 d   1      18.118 -11.611 -35.784  0.00  0.00     0.033 H 
ENDBRANCH  18  26
ENDBRANCH   5  17
BRANCH   6  30
ATOM     30  C19 540 d   1      21.101 -12.579 -30.796  0.00  0.00    -0.033 C 
ATOM     31  H15 540 d   1      21.643 -13.533 -30.875  0.00  0.00     0.035 H 
ATOM     32  H16 540 d   1      20.162 -12.736 -30.245  0.00  0.00     0.035 H 
ATOM     33  H17 540 d   1      21.723 -11.847 -30.260  0.00  0.00     0.035 H 
ENDBRANCH   6  30
BRANCH  14  34
ATOM     34  C17 540 d   1      22.406 -14.711 -33.068  0.00  0.00    -0.033 C 
ATOM     35  H9  540 d   1      22.168 -14.430 -32.031  0.00  0.00     0.035 H 
ATOM     36  H10 540 d   1      23.497 -14.783 -33.187  0.00  0.00     0.035 H 
ATOM     37  H11 540 d   1      21.947 -15.684 -33.299  0.00  0.00     0.035 H 
ENDBRANCH  14  34
BRANCH  12  38
ATOM     38  O1  540 d   1      22.703 -14.269 -37.994  0.00  0.00    -0.353 OA
BRANCH  38  39
ATOM     39  C18 540 d   1      23.151 -14.362 -39.361  0.00  0.00     0.010 C 
ATOM     40  H12 540 d   1      23.727 -15.289 -39.496  0.00  0.00     0.066 H 
ATOM     41  H13 540 d   1      23.788 -13.497 -39.598  0.00  0.00     0.066 H 
ATOM     42  H14 540 d   1      22.280 -14.371 -40.033  0.00  0.00     0.066 H 
ENDBRANCH  38  39
ENDBRANCH  12  38
TORSDOF 6
