REMARK  11 active torsions:
REMARK  status: ('A' for Active; 'I' for Inactive)
REMARK    1  A    between atoms: CAZ_1  and  CAE_3 
REMARK       I    between atoms: CAZ_1  and  NAY_11 
REMARK    2  A    between atoms: CAE_3  and  CAF_4 
REMARK    3  A    between atoms: CAF_4  and  CBB_5 
REMARK    4  A    between atoms: NAY_11  and  CBF_12 
REMARK    5  A    between atoms: CBF_12  and  CBA_13 
REMARK    6  A    between atoms: CBF_12  and  CAW_15 
REMARK       I    between atoms: CBA_13  and  N_22 
REMARK    7  A    between atoms: CAW_15  and  CBD_16 
REMARK    8  A    between atoms: N_22  and  CA_23 
REMARK    9  A    between atoms: CA_23  and  C_24 
REMARK   10  A    between atoms: CA_23  and  CB_26 
REMARK   11  A    between atoms: CB_26  and  CG_27 
ROOT
ATOM      1  CBF S89 d   1      17.310  -0.973  22.031  0.00  0.00     0.093 C 
ATOM      2  H   S89 d   1      16.631  -0.776  21.201  0.00  0.00     0.088 H 
ENDROOT
BRANCH   1   3
ATOM      3  NAY S89 d   1      17.645   0.172  22.870  0.00  0.00    -0.347 N 
ATOM      4  CAZ S89 d   1      16.755   1.170  23.017  0.00  0.00     0.218 C 
ATOM      5  OAB S89 d   1      15.677   1.172  22.428  0.00  0.00    -0.274 OA
ATOM      6  H   S89 d   1      18.548   0.216  23.342  0.00  0.00     0.163 HD
BRANCH   4   7
ATOM      7  CAE S89 d   1      17.154   2.294  23.961  0.00  0.00     0.013 C 
ATOM      8  H   S89 d   1      18.172   2.102  24.300  0.00  0.00     0.047 H 
ATOM      9  H   S89 d   1      16.436   2.314  24.781  0.00  0.00     0.047 H 
BRANCH   7  10
ATOM     10  CAF S89 d   1      17.134   3.652  23.290  0.00  0.00    -0.033 C 
ATOM     11  H   S89 d   1      16.251   3.688  22.652  0.00  0.00     0.040 H 
ATOM     12  H   S89 d   1      18.072   3.761  22.745  0.00  0.00     0.040 H 
BRANCH  10  13
ATOM     13  CBB S89 d   1      17.038   4.806  24.262  0.00  0.00    -0.058 A 
ATOM     14  CAP S89 d   1      16.760   4.600  25.612  0.00  0.00    -0.077 A 
ATOM     15  CAJ S89 d   1      16.688   5.702  26.464  0.00  0.00    -0.082 A 
ATOM     16  H   S89 d   1      16.601   3.592  25.996  0.00  0.00     0.084 H 
ATOM     17  CAG S89 d   1      16.872   7.002  25.986  0.00  0.00    -0.083 A 
ATOM     18  H   S89 d   1      16.484   5.546  27.523  0.00  0.00     0.083 H 
ATOM     19  CAK S89 d   1      17.148   7.203  24.638  0.00  0.00    -0.082 A 
ATOM     20  H   S89 d   1      16.800   7.852  26.665  0.00  0.00     0.083 H 
ATOM     21  CAQ S89 d   1      17.226   6.108  23.774  0.00  0.00    -0.077 A 
ATOM     22  H   S89 d   1      17.303   8.212  24.256  0.00  0.00     0.083 H 
ATOM     23  H   S89 d   1      17.434   6.266  22.716  0.00  0.00     0.084 H 
ENDBRANCH  10  13
ENDBRANCH   7  10
ENDBRANCH   4   7
ENDBRANCH   1   3
BRANCH   1  24
ATOM     24  CBA S89 d   1      16.734  -1.935  23.028  0.00  0.00     0.241 C 
ATOM     25  OAC S89 d   1      17.410  -2.866  23.469  0.00  0.00    -0.271 OA
ATOM     26  N   S89 d   1      15.480  -1.641  23.411  0.00  0.00    -0.348 N 
ATOM     27  H   S89 d   1      15.023  -0.849  22.958  0.00  0.00     0.163 HD
BRANCH  26  28
ATOM     28  CA  S89 d   1      14.719  -2.368  24.427  0.00  0.00     0.066 C 
ATOM     29  H   S89 d   1      15.286  -2.456  25.354  0.00  0.00     0.084 H 
BRANCH  28  30
ATOM     30  C   S89 d   1      14.412  -3.817  24.069  0.00  0.00     0.110 C 
ATOM     31  O   S89 d   1      13.942  -4.545  24.957  0.00  0.00    -0.305 OA
ATOM     32  H   S89 d   1      14.599  -4.201  23.066  0.00  0.00     0.146 H 
ENDBRANCH  28  30
BRANCH  28  33
ATOM     33  CB  S89 d   1      13.417  -1.540  24.543  0.00  0.00    -0.016 C 
ATOM     34  H   S89 d   1      12.759  -2.156  25.156  0.00  0.00     0.043 H 
ATOM     35  H   S89 d   1      13.151  -1.309  23.511  0.00  0.00     0.043 H 
BRANCH  33  36
ATOM     36  CG  S89 d   1      13.426  -0.183  25.244  0.00  0.00    -0.056 A 
ATOM     37  CD1 S89 d   1      12.219   0.550  25.244  0.00  0.00    -0.077 A 
ATOM     38  CE1 S89 d   1      12.139   1.780  25.901  0.00  0.00    -0.082 A 
ATOM     39  H   S89 d   1      11.345   0.153  24.728  0.00  0.00     0.084 H 
ATOM     40  CZ  S89 d   1      13.272   2.294  26.543  0.00  0.00    -0.083 A 
ATOM     41  H   S89 d   1      11.201   2.336  25.914  0.00  0.00     0.083 H 
ATOM     42  CE2 S89 d   1      14.483   1.580  26.544  0.00  0.00    -0.082 A 
ATOM     43  H   S89 d   1      13.214   3.258  27.048  0.00  0.00     0.083 H 
ATOM     44  CD2 S89 d   1      14.549   0.333  25.900  0.00  0.00    -0.077 A 
ATOM     45  H   S89 d   1      15.363   1.990  27.040  0.00  0.00     0.083 H 
ATOM     46  H   S89 d   1      15.479  -0.235  25.912  0.00  0.00     0.084 H 
ENDBRANCH  33  36
ENDBRANCH  28  33
ENDBRANCH  26  28
ENDBRANCH   1  24
BRANCH   1  47
ATOM     47  CAW S89 d   1      18.611  -1.501  21.455  0.00  0.00    -0.014 C 
ATOM     48  H   S89 d   1      18.544  -2.571  21.256  0.00  0.00     0.043 H 
ATOM     49  H   S89 d   1      19.432  -1.369  22.160  0.00  0.00     0.043 H 
BRANCH  47  50
ATOM     50  CBD S89 d   1      18.859  -0.734  20.192  0.00  0.00    -0.056 A 
ATOM     51  CAU S89 d   1      18.181  -1.086  19.022  0.00  0.00    -0.077 A 
ATOM     52  CAO S89 d   1      18.409  -0.367  17.856  0.00  0.00    -0.082 A 
ATOM     53  H   S89 d   1      17.478  -1.919  19.024  0.00  0.00     0.084 H 
ATOM     54  CAI S89 d   1      19.331   0.691  17.872  0.00  0.00    -0.083 A 
ATOM     55  H   S89 d   1      17.878  -0.622  16.939  0.00  0.00     0.083 H 
ATOM     56  CAN S89 d   1      20.015   1.055  19.041  0.00  0.00    -0.082 A 
ATOM     57  H   S89 d   1      19.520   1.244  16.952  0.00  0.00     0.083 H 
ATOM     58  CAT S89 d   1      19.768   0.337  20.206  0.00  0.00    -0.077 A 
ATOM     59  H   S89 d   1      20.724   1.882  19.037  0.00  0.00     0.083 H 
ATOM     60  H   S89 d   1      20.280   0.605  21.130  0.00  0.00     0.084 H 
ENDBRANCH  47  50
ENDBRANCH   1  47
TORSDOF 11
