REMARK  23 active torsions:
REMARK  status: ('A' for Active; 'I' for Inactive)
REMARK    1  A    between atoms: C_1  and  CH3_3 
REMARK       I    between atoms: N_4  and  C_1 
REMARK    2  A    between atoms: CA_5  and  N_4 
REMARK    3  A    between atoms: C_6  and  CA_5 
REMARK    4  A    between atoms: CA_5  and  CB_8 
REMARK       I    between atoms: N_12  and  C_6 
REMARK    5  A    between atoms: CB_8  and  CG_9 
REMARK       I    between atoms: CG_9  and  ND2_11 
REMARK    6  A    between atoms: CA_13  and  N_12 
REMARK    7  A    between atoms: C_14  and  CA_13 
REMARK    8  A    between atoms: CA_13  and  CB_16 
REMARK       I    between atoms: N_18  and  C_14 
REMARK    9  A    between atoms: CB_16  and  OG_17 
REMARK   10  A    between atoms: CA_19  and  N_18 
REMARK   11  A    between atoms: C_20  and  CA_19 
REMARK   12  A    between atoms: CA_19  and  CB_22 
REMARK       I    between atoms: N_29  and  C_20 
REMARK   13  A    between atoms: CB_22  and  CG_23 
REMARK   14  A    between atoms: CA_30  and  N_29 
REMARK   15  A    between atoms: C_31  and  CA_30 
REMARK   16  A    between atoms: CA_30  and  CB_33 
REMARK       I    between atoms: N_36  and  C_31 
REMARK   17  A    between atoms: CB_33  and  OG_34 
REMARK   18  A    between atoms: C_35  and  O_37 
REMARK   19  A    between atoms: CA_38  and  C_35 
REMARK   20  A    between atoms: N_36  and  CA_38 
REMARK   21  A    between atoms: CA_38  and  CB_39 
REMARK   22  A    between atoms: CB_39  and  CG_41 
REMARK   23  A    between atoms: CG_41  and  CD_40 
REMARK       I    between atoms: CD_40  and  NE2_43 
ROOT
ATOM      1  CA  PHE d   1      18.023   2.971  22.829  0.00  0.00     0.093 C 
ATOM      2  H   PHE d   1      18.995   2.886  23.314  0.00  0.00     0.088 H 
ENDROOT
BRANCH   1   3
ATOM      3  N   PHE d   1      18.250   3.913  21.672  0.00  0.00    -0.346 N 
ATOM      4  C   SER d   1      18.832   5.125  21.754  0.00  0.00     0.243 C 
ATOM      5  O   SER d   1      19.189   5.633  22.827  0.00  0.00    -0.271 OA
ATOM      6  H   PHE d   1      17.937   3.606  20.751  0.00  0.00     0.163 HD
BRANCH   4   7
ATOM      7  CA  SER d   1      19.013   5.921  20.427  0.00  0.00     0.109 C 
ATOM      8  H   SER d   1      17.991   6.172  20.142  0.00  0.00     0.090 H 
BRANCH   7   9
ATOM      9  N   SER d   1      19.717   7.223  20.557  0.00  0.00    -0.344 N 
ATOM     10  C   ASN d   1      20.828   7.447  21.280  0.00  0.00     0.241 C 
ATOM     11  O   ASN d   1      21.460   6.564  21.875  0.00  0.00    -0.271 OA
ATOM     12  H   SER d   1      19.322   8.017  20.053  0.00  0.00     0.163 HD
BRANCH  10  13
ATOM     13  CA  ASN d   1      21.318   8.906  21.326  0.00  0.00     0.097 C 
ATOM     14  H   ASN d   1      20.472   9.505  20.989  0.00  0.00     0.088 H 
BRANCH  13  15
ATOM     15  N   ASN d   1      21.638   9.418  22.666  0.00  0.00    -0.348 N 
ATOM     16  C   ACE d   1      21.466  10.707  22.999  0.00  0.00     0.214 C 
ATOM     17  O   ACE d   1      20.505  11.054  23.685  0.00  0.00    -0.274 OA
ATOM     18  H   ASN d   1      22.003   8.772  23.366  0.00  0.00     0.163 HD
BRANCH  16  19
ATOM     19  CH3 ACE d   1      22.505  11.702  22.531  0.00  0.00    -0.003 C 
ATOM     20  H   ACE d   1      22.025  12.466  21.919  0.00  0.00     0.040 H 
ATOM     21  H   ACE d   1      22.974  12.170  23.397  0.00  0.00     0.040 H 
ATOM     22  H   ACE d   1      23.262  11.185  21.942  0.00  0.00     0.040 H 
ENDBRANCH  16  19
ENDBRANCH  13  15
BRANCH  13  23
ATOM     23  CB  ASN d   1      22.517   9.082  20.394  0.00  0.00     0.036 C 
ATOM     24  H   ASN d   1      22.959   8.101  20.219  0.00  0.00     0.051 H 
ATOM     25  H   ASN d   1      23.218   9.769  20.868  0.00  0.00     0.051 H 
BRANCH  23  26
ATOM     26  CG  ASN d   1      22.121   9.658  19.071  0.00  0.00     0.217 C 
ATOM     27  OD1 ASN d   1      21.872  10.861  18.948  0.00  0.00    -0.274 OA
ATOM     28  ND2 ASN d   1      22.036   8.803  18.070  0.00  0.00    -0.370 N 
ATOM     29  H   ASN d   1      21.754   9.127  17.145  0.00  0.00     0.159 HD
ATOM     30  H   ASN d   1      22.252   7.818  18.221  0.00  0.00     0.159 HD
ENDBRANCH  23  26
ENDBRANCH  13  23
ENDBRANCH  10  13
ENDBRANCH   7   9
BRANCH   7  31
ATOM     31  CB  SER d   1      19.641   5.072  19.316  0.00  0.00     0.044 C 
ATOM     32  H   SER d   1      20.639   4.758  19.620  0.00  0.00     0.077 H 
ATOM     33  H   SER d   1      19.707   5.662  18.402  0.00  0.00     0.077 H 
BRANCH  31  34
ATOM     34  OG  SER d   1      18.840   3.932  19.082  0.00  0.00    -0.398 OA
ATOM     35  H   SER d   1      19.235   3.402  18.386  0.00  0.00     0.209 HD
ENDBRANCH  31  34
ENDBRANCH   7  31
ENDBRANCH   4   7
ENDBRANCH   1   3
BRANCH   1  36
ATOM     36  C   PHE d   1      17.540   1.572  22.352  0.00  0.00     0.241 C 
ATOM     37  O   PHE d   1      16.325   1.302  22.312  0.00  0.00    -0.271 OA
ATOM     38  N   SER d   1      18.477   0.687  21.999  0.00  0.00    -0.344 N 
ATOM     39  H   SER d   1      19.461   0.943  22.075  0.00  0.00     0.163 HD
BRANCH  38  40
ATOM     40  CA  SER d   1      18.116  -0.651  21.502  0.00  0.00     0.109 C 
ATOM     41  H   SER d   1      17.278  -0.509  20.820  0.00  0.00     0.090 H 
BRANCH  40  42
ATOM     42  C   SER d   1      17.612  -1.589  22.612  0.00  0.00     0.243 C 
ATOM     43  O   SER d   1      18.393  -2.074  23.437  0.00  0.00    -0.271 OA
ATOM     44  N   ECC d   1      16.453  -1.830  23.076  0.00  0.00    -0.353 N 
ATOM     45  H   ECC d   1      15.911  -1.902  22.215  0.00  0.00     0.163 HD
BRANCH  44  46
ATOM     46  CA  ECC d   1      15.415  -2.068  24.076  0.00  0.00     0.033 C 
ATOM     47  H   ECC d   1      15.805  -1.905  25.081  0.00  0.00     0.075 H 
BRANCH  46  48
ATOM     48  C   ECC d   1      14.944  -3.515  23.957  0.00  0.00     0.035 C 
ATOM     49  H   ECC d   1      14.203  -3.576  23.160  0.00  0.00     0.077 H 
ATOM     50  H   ECC d   1      15.806  -4.146  23.740  0.00  0.00     0.077 H 
BRANCH  48  51
ATOM     51  O   ECC d   1      14.344  -3.963  25.176  0.00  0.00    -0.399 OA
ATOM     52  H   ECC d   1      14.057  -4.873  25.075  0.00  0.00     0.209 HD
ENDBRANCH  48  51
ENDBRANCH  46  48
BRANCH  46  53
ATOM     53  CB  ECC d   1      14.257  -1.092  23.848  0.00  0.00    -0.036 C 
ATOM     54  H   ECC d   1      13.329  -1.664  23.870  0.00  0.00     0.036 H 
ATOM     55  H   ECC d   1      14.424  -0.593  22.893  0.00  0.00     0.036 H 
BRANCH  53  56
ATOM     56  CG  ECC d   1      14.168  -0.016  24.928  0.00  0.00     0.011 C 
ATOM     57  H   ECC d   1      14.902   0.761  24.714  0.00  0.00     0.047 H 
ATOM     58  H   ECC d   1      14.364  -0.473  25.898  0.00  0.00     0.047 H 
BRANCH  56  59
ATOM     59  CD  ECC d   1      12.791   0.605  24.949  0.00  0.00     0.215 C 
ATOM     60  OE1 ECC d   1      12.197   0.816  23.913  0.00  0.00    -0.274 OA
ATOM     61  NE2 ECC d   1      12.273   0.911  26.130  0.00  0.00    -0.370 N 
ATOM     62  H   ECC d   1      11.348   1.337  26.186  0.00  0.00     0.159 HD
ATOM     63  H   ECC d   1      12.799   0.720  26.983  0.00  0.00     0.159 HD
ENDBRANCH  56  59
ENDBRANCH  53  56
ENDBRANCH  46  53
ENDBRANCH  44  46
ENDBRANCH  40  42
BRANCH  40  64
ATOM     64  CB  SER d   1      19.273  -1.286  20.711  0.00  0.00     0.044 C 
ATOM     65  H   SER d   1      19.186  -2.369  20.796  0.00  0.00     0.077 H 
ATOM     66  H   SER d   1      20.210  -0.912  21.124  0.00  0.00     0.077 H 
BRANCH  64  67
ATOM     67  OG  SER d   1      19.233  -0.946  19.327  0.00  0.00    -0.398 OA
ATOM     68  H   SER d   1      19.970  -1.362  18.875  0.00  0.00     0.209 HD
ENDBRANCH  64  67
ENDBRANCH  40  64
ENDBRANCH  38  40
ENDBRANCH   1  36
BRANCH   1  69
ATOM     69  CB  PHE d   1      16.994   3.511  23.859  0.00  0.00    -0.014 C 
ATOM     70  H   PHE d   1      16.497   2.643  24.292  0.00  0.00     0.043 H 
ATOM     71  H   PHE d   1      16.338   4.195  23.320  0.00  0.00     0.043 H 
BRANCH  69  72
ATOM     72  CG  PHE d   1      17.589   4.289  25.004  0.00  0.00    -0.056 A 
ATOM     73  CD1 PHE d   1      17.451   5.682  25.061  0.00  0.00    -0.077 A 
ATOM     74  CE1 PHE d   1      17.994   6.420  26.119  0.00  0.00    -0.082 A 
ATOM     75  H   PHE d   1      16.912   6.200  24.268  0.00  0.00     0.084 H 
ATOM     76  CZ  PHE d   1      18.665   5.759  27.157  0.00  0.00    -0.083 A 
ATOM     77  H   PHE d   1      17.895   7.505  26.136  0.00  0.00     0.083 H 
ATOM     78  CE2 PHE d   1      18.791   4.363  27.121  0.00  0.00    -0.082 A 
ATOM     79  H   PHE d   1      19.086   6.327  27.987  0.00  0.00     0.083 H 
ATOM     80  CD2 PHE d   1      18.245   3.635  26.044  0.00  0.00    -0.077 A 
ATOM     81  H   PHE d   1      19.311   3.841  27.925  0.00  0.00     0.083 H 
ATOM     82  H   PHE d   1      18.337   2.549  26.025  0.00  0.00     0.084 H 
ENDBRANCH  69  72
ENDBRANCH   1  69
TORSDOF 23
