REMARK  22 active torsions:
REMARK  status: ('A' for Active; 'I' for Inactive)
REMARK    1  A    between atoms: C_1  and  CH3_3 
REMARK       I    between atoms: N_4  and  C_1 
REMARK    2  A    between atoms: CA_5  and  N_4 
REMARK    3  A    between atoms: C_6  and  CA_5 
REMARK    4  A    between atoms: CA_5  and  CB_8 
REMARK       I    between atoms: N_12  and  C_6 
REMARK    5  A    between atoms: CB_8  and  CG_9 
REMARK    6  A    between atoms: CA_13  and  N_12 
REMARK    7  A    between atoms: C_14  and  CA_13 
REMARK    8  A    between atoms: CA_13  and  CB_16 
REMARK       I    between atoms: N_18  and  C_14 
REMARK    9  A    between atoms: CB_16  and  OG_17 
REMARK   10  A    between atoms: CA_19  and  N_18 
REMARK   11  A    between atoms: C_20  and  CA_19 
REMARK   12  A    between atoms: CA_19  and  CB_22 
REMARK       I    between atoms: N_29  and  C_20 
REMARK   13  A    between atoms: CB_22  and  CG_23 
REMARK   14  A    between atoms: CA_30  and  N_29 
REMARK   15  A    between atoms: C_31  and  CA_30 
REMARK   16  A    between atoms: CA_30  and  CB_33 
REMARK       I    between atoms: N_38  and  C_31 
REMARK   17  A    between atoms: CB_33  and  CG_34 
REMARK   18  A    between atoms: CA_40  and  C_37 
REMARK   19  A    between atoms: N_38  and  CA_40 
REMARK   20  A    between atoms: CA_40  and  CB_41 
REMARK   21  A    between atoms: CB_41  and  CG_43 
REMARK   22  A    between atoms: CG_43  and  CD_42 
REMARK       I    between atoms: CD_42  and  NE2_45 
ROOT
ATOM      1  CA  PHE d   1      18.290   2.528  22.052  0.00  0.00     0.093 C 
ATOM      2  H   PHE d   1      19.336   2.236  21.961  0.00  0.00     0.088 H 
ENDROOT
BRANCH   1   3
ATOM      3  N   PHE d   1      18.112   3.658  21.125  0.00  0.00    -0.346 N 
ATOM      4  C   SER d   1      19.120   4.490  20.836  0.00  0.00     0.243 C 
ATOM      5  O   SER d   1      20.255   4.340  21.294  0.00  0.00    -0.271 OA
ATOM      6  H   PHE d   1      17.200   3.810  20.694  0.00  0.00     0.163 HD
BRANCH   4   7
ATOM      7  CA  SER d   1      18.815   5.670  19.896  0.00  0.00     0.109 C 
ATOM      8  H   SER d   1      17.977   6.221  20.323  0.00  0.00     0.090 H 
BRANCH   7   9
ATOM      9  N   SER d   1      19.957   6.591  19.790  0.00  0.00    -0.344 N 
ATOM     10  C   ASP d   1      20.127   7.647  20.585  0.00  0.00     0.241 C 
ATOM     11  O   ASP d   1      19.295   8.008  21.424  0.00  0.00    -0.271 OA
ATOM     12  H   SER d   1      20.656   6.412  19.069  0.00  0.00     0.163 HD
BRANCH  10  13
ATOM     13  CA  ASP d   1      21.434   8.415  20.401  0.00  0.00     0.098 C 
ATOM     14  H   ASP d   1      21.689   8.456  19.342  0.00  0.00     0.088 H 
BRANCH  13  15
ATOM     15  N   ASP d   1      21.265   9.583  20.951  0.00  0.00    -0.348 N 
ATOM     16  C   ACE d   1      21.618  10.672  20.259  0.00  0.00     0.214 C 
ATOM     17  O   ACE d   1      20.895  11.167  19.384  0.00  0.00    -0.274 OA
ATOM     18  H   ASP d   1      20.872   9.666  21.889  0.00  0.00     0.163 HD
BRANCH  16  19
ATOM     19  CH3 ACE d   1      22.936  11.310  20.642  0.00  0.00    -0.003 C 
ATOM     20  H   ACE d   1      23.587  11.348  19.769  0.00  0.00     0.040 H 
ATOM     21  H   ACE d   1      22.756  12.321  21.006  0.00  0.00     0.040 H 
ATOM     22  H   ACE d   1      23.410  10.719  21.425  0.00  0.00     0.040 H 
ENDBRANCH  16  19
ENDBRANCH  13  15
BRANCH  13  23
ATOM     23  CB  ASP d   1      22.551   7.745  21.218  0.00  0.00     0.043 C 
ATOM     24  H   ASP d   1      22.317   6.683  21.290  0.00  0.00     0.052 H 
ATOM     25  H   ASP d   1      22.594   8.240  22.188  0.00  0.00     0.052 H 
BRANCH  23  26
ATOM     26  CG  ASP d   1      23.933   7.875  20.567  0.00  0.00     0.175 C 
ATOM     27  OD1 ASP d   1      24.018   8.085  19.334  0.00  0.00    -0.648 OA
ATOM     28  OD2 ASP d   1      24.940   7.750  21.299  0.00  0.00    -0.648 OA
ENDBRANCH  23  26
ENDBRANCH  13  23
ENDBRANCH  10  13
ENDBRANCH   7   9
BRANCH   7  29
ATOM     29  CB  SER d   1      18.435   5.154  18.505  0.00  0.00     0.044 C 
ATOM     30  H   SER d   1      17.930   5.954  17.963  0.00  0.00     0.077 H 
ATOM     31  H   SER d   1      17.786   4.286  18.621  0.00  0.00     0.077 H 
BRANCH  29  32
ATOM     32  OG  SER d   1      19.586   4.765  17.770  0.00  0.00    -0.398 OA
ATOM     33  H   SER d   1      20.170   5.520  17.668  0.00  0.00     0.209 HD
ENDBRANCH  29  32
ENDBRANCH   7  29
ENDBRANCH   4   7
ENDBRANCH   1   3
BRANCH   1  34
ATOM     34  C   PHE d   1      17.453   1.299  21.686  0.00  0.00     0.241 C 
ATOM     35  O   PHE d   1      16.220   1.326  21.761  0.00  0.00    -0.271 OA
ATOM     36  N   ASP d   1      18.147   0.219  21.326  0.00  0.00    -0.345 N 
ATOM     37  H   ASP d   1      19.165   0.276  21.324  0.00  0.00     0.163 HD
BRANCH  36  38
ATOM     38  CA  ASP d   1      17.519  -1.045  20.933  0.00  0.00     0.098 C 
ATOM     39  H   ASP d   1      16.641  -0.799  20.336  0.00  0.00     0.088 H 
BRANCH  38  40
ATOM     40  C   ASP d   1      17.017  -1.852  22.141  0.00  0.00     0.241 C 
ATOM     41  O   ASP d   1      17.209  -3.074  22.218  0.00  0.00    -0.271 OA
ATOM     42  N   ECC d   1      15.910  -1.918  22.881  0.00  0.00    -0.348 N 
ATOM     43  H   ECC d   1      15.300  -1.356  22.287  0.00  0.00     0.163 HD
BRANCH  42  44
ATOM     44  CA  ECC d   1      14.954  -2.224  23.937  0.00  0.00     0.063 C 
ATOM     45  H   ECC d   1      15.441  -2.065  24.899  0.00  0.00     0.083 H 
BRANCH  44  46
ATOM     46  C   ECC d   1      14.492  -3.671  23.833  0.00  0.00     0.109 C 
ATOM     47  O   ECC d   1      15.279  -4.607  23.813  0.00  0.00    -0.305 OA
ATOM     48  H   ECC d   1      13.424  -3.880  23.774  0.00  0.00     0.146 H 
ENDBRANCH  44  46
BRANCH  44  49
ATOM     49  CB  ECC d   1      13.731  -1.314  23.800  0.00  0.00    -0.032 C 
ATOM     50  H   ECC d   1      12.916  -1.798  24.339  0.00  0.00     0.037 H 
ATOM     51  H   ECC d   1      13.558  -1.177  22.733  0.00  0.00     0.037 H 
BRANCH  49  52
ATOM     52  CG  ECC d   1      13.895   0.081  24.405  0.00  0.00     0.011 C 
ATOM     53  H   ECC d   1      14.565   0.691  23.799  0.00  0.00     0.047 H 
ATOM     54  H   ECC d   1      14.337   0.023  25.400  0.00  0.00     0.047 H 
BRANCH  52  55
ATOM     55  CD  ECC d   1      12.508   0.698  24.464  0.00  0.00     0.215 C 
ATOM     56  OE1 ECC d   1      11.835   0.824  23.448  0.00  0.00    -0.274 OA
ATOM     57  NE2 ECC d   1      12.072   1.067  25.667  0.00  0.00    -0.370 N 
ATOM     58  H   ECC d   1      11.142   1.474  25.770  0.00  0.00     0.159 HD
ATOM     59  H   ECC d   1      12.668   0.943  26.486  0.00  0.00     0.159 HD
ENDBRANCH  52  55
ENDBRANCH  49  52
ENDBRANCH  44  49
ENDBRANCH  42  44
ENDBRANCH  38  40
BRANCH  38  60
ATOM     60  CB  ASP d   1      18.488  -1.881  20.075  0.00  0.00     0.043 C 
ATOM     61  H   ASP d   1      18.059  -2.877  19.965  0.00  0.00     0.052 H 
ATOM     62  H   ASP d   1      19.455  -1.887  20.577  0.00  0.00     0.052 H 
BRANCH  60  63
ATOM     63  CG  ASP d   1      18.696  -1.303  18.667  0.00  0.00     0.175 C 
ATOM     64  OD1 ASP d   1      17.710  -1.126  17.914  0.00  0.00    -0.648 OA
ATOM     65  OD2 ASP d   1      19.862  -1.049  18.301  0.00  0.00    -0.648 OA
ENDBRANCH  60  63
ENDBRANCH  38  60
ENDBRANCH  36  38
ENDBRANCH   1  34
BRANCH   1  66
ATOM     66  CB  PHE d   1      17.998   2.950  23.504  0.00  0.00    -0.014 C 
ATOM     67  H   PHE d   1      16.948   2.732  23.698  0.00  0.00     0.043 H 
ATOM     68  H   PHE d   1      18.257   4.005  23.591  0.00  0.00     0.043 H 
BRANCH  66  69
ATOM     69  CG  PHE d   1      18.811   2.201  24.542  0.00  0.00    -0.056 A 
ATOM     70  CD1 PHE d   1      19.730   2.880  25.345  0.00  0.00    -0.077 A 
ATOM     71  CE1 PHE d   1      20.483   2.200  26.314  0.00  0.00    -0.082 A 
ATOM     72  H   PHE d   1      19.864   3.954  25.217  0.00  0.00     0.084 H 
ATOM     73  CZ  PHE d   1      20.327   0.831  26.478  0.00  0.00    -0.083 A 
ATOM     74  H   PHE d   1      21.190   2.747  26.938  0.00  0.00     0.083 H 
ATOM     75  CE2 PHE d   1      19.417   0.140  25.681  0.00  0.00    -0.082 A 
ATOM     76  H   PHE d   1      20.914   0.299  27.227  0.00  0.00     0.083 H 
ATOM     77  CD2 PHE d   1      18.660   0.824  24.723  0.00  0.00    -0.077 A 
ATOM     78  H   PHE d   1      19.294  -0.936  25.804  0.00  0.00     0.083 H 
ATOM     79  H   PHE d   1      17.944   0.276  24.111  0.00  0.00     0.084 H 
ENDBRANCH  66  69
ENDBRANCH   1  66
TORSDOF 22
