REMARK  6 active torsions:
REMARK  status: ('A' for Active; 'I' for Inactive)
REMARK    1  A    between atoms: C2_4  and  C1_1 
REMARK    2  A    between atoms: C14_20  and  O1_3 
REMARK    3  A    between atoms: O1_3  and  C15_21 
REMARK    4  A    between atoms: C7_13  and  C6_12 
REMARK    5  A    between atoms: C8_14  and  C18_24 
REMARK    6  A    between atoms: C16_22  and  C17_23 
ROOT
ATOM      1  N2  546 d   1      20.134 -10.933 -32.318  0.00  0.00    -0.232 NA
ATOM      2  N3  546 d   1      20.783 -11.792 -34.255  0.00  0.00    -0.274 N 
ATOM      3  N4  546 d   1      20.512 -11.246 -36.584  0.00  0.00    -0.204 NA
ATOM      4  N5  546 d   1      22.309 -14.043 -34.914  0.00  0.00    -0.248 NA
ATOM      5  C7  546 d   1      20.089 -10.776 -33.627  0.00  0.00     0.149 A 
ATOM      6  C8  546 d   1      20.881 -12.064 -32.073  0.00  0.00     0.062 A 
ATOM      7  C9  546 d   1      21.297 -12.625 -33.270  0.00  0.00     0.091 A 
ATOM      8  C10 546 d   1      21.014 -12.062 -35.630  0.00  0.00     0.168 A 
ATOM      9  C11 546 d   1      21.783 -13.199 -35.914  0.00  0.00     0.103 A 
ATOM     10  C12 546 d   1      22.029 -13.487 -37.258  0.00  0.00    -0.047 A 
ATOM     11  C13 546 d   1      21.527 -12.662 -38.266  0.00  0.00    -0.030 A 
ATOM     12  C14 546 d   1      20.779 -11.552 -37.880  0.00  0.00     0.166 A 
ATOM     13  C16 546 d   1      22.082 -13.782 -33.657  0.00  0.00     0.060 A 
ATOM     14  H   546 d   1      22.619 -14.365 -37.523  0.00  0.00     0.087 H 
ATOM     15  H   546 d   1      21.714 -12.879 -39.318  0.00  0.00     0.090 H 
ENDROOT
BRANCH   5  16
ATOM     16  C6  546 d   1      19.374  -9.688 -34.283  0.00  0.00     0.034 A 
ATOM     17  C2  546 d   1      18.091  -9.868 -34.850  0.00  0.00    -0.045 A 
ATOM     18  C3  546 d   1      17.449  -8.780 -35.464  0.00  0.00    -0.059 A 
ATOM     19  C4  546 d   1      18.114  -7.562 -35.492  0.00  0.00     0.002 A 
ATOM     20  H   546 d   1      16.458  -8.889 -35.905  0.00  0.00     0.086 H 
ATOM     21  N1  546 d   1      19.342  -7.357 -34.959  0.00  0.00    -0.272 NA
ATOM     22  H   546 d   1      17.617  -6.719 -35.972  0.00  0.00     0.114 H 
ATOM     23  C5  546 d   1      19.946  -8.417 -34.365  0.00  0.00     0.016 A 
ATOM     24  H   546 d   1      20.933  -8.268 -33.927  0.00  0.00     0.116 H 
BRANCH  17  25
ATOM     25  C1  546 d   1      17.374 -11.186 -34.817  0.00  0.00    -0.050 C 
ATOM     26  H   546 d   1      16.433 -11.073 -34.279  0.00  0.00     0.033 H 
ATOM     27  H   546 d   1      17.174 -11.515 -35.837  0.00  0.00     0.033 H 
ATOM     28  H   546 d   1      17.997 -11.924 -34.312  0.00  0.00     0.033 H 
ENDBRANCH  17  25
ENDBRANCH   5  16
BRANCH   6  29
ATOM     29  C18 546 d   1      21.106 -12.481 -30.670  0.00  0.00    -0.033 C 
ATOM     30  H   546 d   1      20.693 -13.478 -30.518  0.00  0.00     0.035 H 
ATOM     31  H   546 d   1      22.176 -12.494 -30.463  0.00  0.00     0.035 H 
ATOM     32  H   546 d   1      20.614 -11.776 -30.000  0.00  0.00     0.035 H 
ENDBRANCH   6  29
BRANCH  13  33
ATOM     33  C17 546 d   1      22.665 -14.720 -32.636  0.00  0.00    -0.033 C 
ATOM     34  H   546 d   1      22.270 -15.723 -32.798  0.00  0.00     0.035 H 
ATOM     35  H   546 d   1      23.750 -14.735 -32.736  0.00  0.00     0.035 H 
ATOM     36  H   546 d   1      22.396 -14.380 -31.636  0.00  0.00     0.035 H 
ENDBRANCH  13  33
BRANCH  12  37
ATOM     37  O1  546 d   1      20.297 -10.766 -38.919  0.00  0.00    -0.339 OA
BRANCH  37  38
ATOM     38  C15 546 d   1      20.009  -9.405 -38.594  0.00  0.00     0.012 C 
ATOM     39  H   546 d   1      19.250  -9.372 -37.812  0.00  0.00     0.067 H 
ATOM     40  H   546 d   1      20.918  -8.917 -38.241  0.00  0.00     0.067 H 
ATOM     41  H   546 d   1      19.640  -8.891 -39.482  0.00  0.00     0.067 H 
ENDBRANCH  37  38
ENDBRANCH  12  37
TORSDOF 6
