REMARK  5 active torsions:
REMARK  status: ('A' for Active; 'I' for Inactive)
REMARK    1  A    between atoms: C2_5  and  C1_1 
REMARK    2  A    between atoms: C7_15  and  C6_14 
REMARK    3  A    between atoms: C8_16  and  C19_27 
REMARK    4  A    between atoms: C12_20  and  C18_26 
REMARK    5  A    between atoms: C16_24  and  C17_25 
ROOT
ATOM      1 CL1  548 d   1      19.079 -35.164 -20.971  0.00  0.00    -0.082 Cl
ATOM      2  N2  548 d   1      13.746 -38.591 -17.410  0.00  0.00    -0.232 NA
ATOM      3  N3  548 d   1      15.122 -37.741 -18.943  0.00  0.00    -0.289 N 
ATOM      4  N4  548 d   1      17.417 -36.167 -18.674  0.00  0.00    -0.247 NA
ATOM      5  C7  548 d   1      13.982 -38.502 -18.707  0.00  0.00     0.146 A 
ATOM      6  C8  548 d   1      14.733 -37.886 -16.776  0.00  0.00     0.062 A 
ATOM      7  C9  548 d   1      15.600 -37.348 -17.705  0.00  0.00     0.090 A 
ATOM      8  C10 548 d   1      15.795 -37.348 -20.130  0.00  0.00     0.072 A 
ATOM      9  C11 548 d   1      15.371 -37.706 -21.416  0.00  0.00    -0.040 A 
ATOM     10  C12 548 d   1      16.084 -37.284 -22.552  0.00  0.00     0.051 A 
ATOM     11  C13 548 d   1      17.229 -36.498 -22.380  0.00  0.00    -0.045 A 
ATOM     12  C14 548 d   1      17.654 -36.139 -21.097  0.00  0.00     0.066 A 
ATOM     13  C15 548 d   1      16.950 -36.554 -19.953  0.00  0.00     0.106 A 
ATOM     14  C16 548 d   1      16.782 -36.540 -17.608  0.00  0.00     0.060 A 
ATOM     15  H7  548 d   1      14.483 -38.316 -21.537  0.00  0.00     0.088 H 
ATOM     16  H8  548 d   1      17.790 -36.166 -23.246  0.00  0.00     0.087 H 
ENDROOT
BRANCH   5  17
ATOM     17  C6  548 d   1      13.121 -39.141 -19.698  0.00  0.00     0.019 A 
ATOM     18  C2  548 d   1      13.544 -40.259 -20.434  0.00  0.00    -0.030 A 
ATOM     19  C3  548 d   1      12.645 -40.790 -21.353  0.00  0.00     0.008 A 
ATOM     20  N1  548 d   1      11.405 -40.300 -21.577  0.00  0.00    -0.273 NA
ATOM     21  H4  548 d   1      12.959 -41.654 -21.928  0.00  0.00     0.115 H 
ATOM     22  C4  548 d   1      11.031 -39.226 -20.853  0.00  0.00     0.003 A 
ATOM     23  C5  548 d   1      11.842 -38.618 -19.913  0.00  0.00    -0.052 A 
ATOM     24  H5  548 d   1      10.041 -38.817 -21.017  0.00  0.00     0.114 H 
ATOM     25  H6  548 d   1      11.495 -37.756 -19.355  0.00  0.00     0.087 H 
BRANCH  18  26
ATOM     26  C1  548 d   1      14.899 -40.876 -20.260  0.00  0.00    -0.049 C 
ATOM     27  H1  548 d   1      15.001 -41.734 -20.940  0.00  0.00     0.033 H 
ATOM     28  H2  548 d   1      15.016 -41.216 -19.221  0.00  0.00     0.033 H 
ATOM     29  H3  548 d   1      15.674 -40.130 -20.492  0.00  0.00     0.033 H 
ENDBRANCH  18  26
ENDBRANCH   5  17
BRANCH   6  30
ATOM     30  C19 548 d   1      14.730 -37.807 -15.297  0.00  0.00    -0.033 C 
ATOM     31  H12 548 d   1      15.588 -37.206 -14.960  0.00  0.00     0.035 H 
ATOM     32  H13 548 d   1      14.804 -38.820 -14.876  0.00  0.00     0.035 H 
ATOM     33  H14 548 d   1      13.796 -37.336 -14.957  0.00  0.00     0.035 H 
ENDBRANCH   6  30
BRANCH  14  34
ATOM     34  C17 548 d   1      17.313 -36.106 -16.270  0.00  0.00    -0.033 C 
ATOM     35  H9  548 d   1      16.666 -36.502 -15.473  0.00  0.00     0.035 H 
ATOM     36  H10 548 d   1      17.326 -35.007 -16.220  0.00  0.00     0.035 H 
ATOM     37  H11 548 d   1      18.335 -36.492 -16.138  0.00  0.00     0.035 H 
ENDBRANCH  14  34
BRANCH  10  38
ATOM     38  C18 548 d   1      15.527 -37.551 -23.931  0.00  0.00     0.417 C 
ATOM     39  F1  548 d   1      14.170 -37.451 -23.971  0.00  0.00    -0.166 F 
ATOM     40  F2  548 d   1      15.992 -36.696 -24.882  0.00  0.00    -0.166 F 
ATOM     41  F3  548 d   1      15.826 -38.803 -24.374  0.00  0.00    -0.166 F 
ENDBRANCH  10  38
TORSDOF 5
