REMARK WARNING: 32 MAX_TORS EXCEEDED!!!
REMARK  59 active torsions:
REMARK  status: ('A' for Active; 'I' for Inactive)
REMARK    1  A    between atoms: N_1  and  CA_2 
REMARK    2  A    between atoms: CA_2  and  C_3 
REMARK    3  A    between atoms: CA_2  and  CB_5 
REMARK       I    between atoms: C_3  and  N_7 
REMARK    4  A    between atoms: CB_5  and  OG_6 
REMARK    5  A    between atoms: N_7  and  CA_8 
REMARK    6  A    between atoms: CA_8  and  C_9 
REMARK    7  A    between atoms: CA_8  and  CB_11 
REMARK       I    between atoms: C_9  and  N_15 
REMARK    8  A    between atoms: CB_11  and  CG1_12 
REMARK    9  A    between atoms: CB_11  and  CG2_13 
REMARK   10  A    between atoms: CG1_12  and  CD1_14 
REMARK   11  A    between atoms: N_15  and  CA_16 
REMARK   12  A    between atoms: CA_16  and  C_17 
REMARK   13  A    between atoms: CA_16  and  CB_19 
REMARK       I    between atoms: C_17  and  N_23 
REMARK   14  A    between atoms: CB_19  and  CG_20 
REMARK       I    between atoms: CG_20  and  ND2_22 
REMARK   15  A    between atoms: N_23  and  CA_24 
REMARK   16  A    between atoms: CA_24  and  C_25 
REMARK   17  A    between atoms: CA_24  and  CB_27 
REMARK       I    between atoms: C_25  and  N_34 
REMARK   18  A    between atoms: CB_27  and  CG_28 
REMARK   19  A    between atoms: N_34  and  CA_35 
REMARK   20  A    between atoms: CA_35  and  C_36 
REMARK   21  A    between atoms: CA_35  and  CB_38 
REMARK       I    between atoms: C_36  and  N_42 
REMARK   22  A    between atoms: CB_38  and  CG_39 
REMARK   23  A    between atoms: N_42  and  CA_43 
REMARK   24  A    between atoms: CA_43  and  C_44 
REMARK   25  A    between atoms: CA_43  and  CB_46 
REMARK       I    between atoms: C_44  and  N_50 
REMARK   26  A    between atoms: CB_46  and  CG_47 
REMARK       I    between atoms: CG_47  and  ND2_49 
REMARK   27  A    between atoms: CA_51  and  C_52 
REMARK       I    between atoms: C_52  and  N_57 
REMARK   28  A    between atoms: N_57  and  CA_58 
REMARK   29  A    between atoms: CA_58  and  C_59 
REMARK   30  A    between atoms: CA_58  and  CB_61 
REMARK       I    between atoms: C_59  and  N_64 
REMARK   31  A    between atoms: CB_61  and  CG1_62 
REMARK   32  A    between atoms: CB_61  and  CG2_63 
REMARK   33  A    between atoms: N_64  and  CA_65 
REMARK   34  A    between atoms: CA_65  and  C_66 
REMARK   35  A    between atoms: CA_65  and  CB_68 
REMARK       I    between atoms: C_66  and  N_76 
REMARK   36  A    between atoms: CB_68  and  CG_69 
REMARK   37  A    between atoms: CZ_74  and  OH_75 
REMARK   38  A    between atoms: N_76  and  CA_77 
REMARK   39  A    between atoms: CA_77  and  C_78 
REMARK   40  A    between atoms: CA_77  and  CB_80 
REMARK       I    between atoms: C_78  and  N_85 
REMARK   41  A    between atoms: CB_80  and  CG_81 
REMARK   42  A    between atoms: CG_81  and  CD_82 
REMARK       I    between atoms: CD_82  and  NE2_84 
REMARK   43  A    between atoms: N_85  and  CA_86 
REMARK   44  A    between atoms: CA_86  and  C_87 
REMARK   45  A    between atoms: CA_86  and  CB_89 
REMARK       I    between atoms: C_87  and  N_94 
REMARK   46  A    between atoms: CB_89  and  CG_90 
REMARK   47  A    between atoms: CG_90  and  CD_91 
REMARK   48  A    between atoms: CD_91  and  CE_92 
REMARK   49  A    between atoms: CE_92  and  NZ_93 
REMARK   50  A    between atoms: N_94  and  CA_95 
REMARK   51  A    between atoms: CA_95  and  C_96 
REMARK   52  A    between atoms: CA_95  and  CB_98 
REMARK       I    between atoms: C_96  and  N_101 
REMARK   53  A    between atoms: CB_98  and  OG1_99 
REMARK   54  A    between atoms: CB_98  and  CG2_100 
REMARK   55  A    between atoms: N_101  and  CA_102 
REMARK   56  A    between atoms: CA_102  and  C_103 
REMARK   57  A    between atoms: CA_102  and  CB_105 
REMARK   58  A    between atoms: CB_105  and  OG1_106 
REMARK   59  A    between atoms: CB_105  and  CG2_107 
ROOT
ATOM      1  C   PRO d   1      15.437  55.949  24.836  0.00  0.00     0.245 C 
ATOM      2  O   PRO d   1      15.318  56.321  26.017  0.00  0.00    -0.271 OA
ATOM      3  N   VAL d   1      16.484  55.240  24.381  0.00  0.00    -0.342 N 
ATOM      4  H   VAL d   1      16.547  55.005  23.390  0.00  0.00     0.163 HD
ENDROOT
BRANCH   1   5
ATOM      5  CA  PRO d   1      14.394  56.368  23.874  0.00  0.00     0.108 C 
ATOM      6  N   PRO d   1      14.745  56.251  22.456  0.00  0.00    -0.330 N 
ATOM      7  C   ASN d   1      15.700  57.061  21.977  0.00  0.00     0.244 C 
ATOM      8  CD  PRO d   1      13.961  55.246  21.748  0.00  0.00     0.014 C 
ATOM      9  O   ASN d   1      16.300  57.830  22.673  0.00  0.00    -0.271 OA
ATOM     10  CG  PRO d   1      13.108  54.636  22.881  0.00  0.00    -0.087 C 
ATOM     11  H   PRO d   1      14.575  54.510  21.230  0.00  0.00     0.070 H 
ATOM     12  H   PRO d   1      13.363  55.662  20.937  0.00  0.00     0.070 H 
ATOM     13  CB  PRO d   1      13.122  55.495  23.986  0.00  0.00    -0.075 C 
ATOM     14  H   PRO d   1      12.578  53.685  22.829  0.00  0.00     0.079 H 
ATOM     15  H   PRO d   1      12.375  55.540  24.779  0.00  0.00     0.080 H 
ATOM     16  H   PRO d   1      14.256  57.413  24.150  0.00  0.00     0.094 H 
BRANCH   7  17
ATOM     17  CA  ASN d   1      16.094  56.891  20.501  0.00  0.00     0.097 C 
ATOM     18  H   ASN d   1      15.542  56.041  20.101  0.00  0.00     0.088 H 
BRANCH  17  19
ATOM     19  N   ASN d   1      15.770  58.091  19.737  0.00  0.00    -0.346 N 
ATOM     20  C   ASP d   1      14.570  58.235  19.153  0.00  0.00     0.241 C 
ATOM     21  O   ASP d   1      13.698  57.379  19.245  0.00  0.00    -0.271 OA
ATOM     22  H   ASN d   1      16.466  58.831  19.645  0.00  0.00     0.163 HD
BRANCH  20  23
ATOM     23  CA  ASP d   1      14.254  59.560  18.418  0.00  0.00     0.098 C 
ATOM     24  H   ASP d   1      15.139  60.109  18.097  0.00  0.00     0.088 H 
BRANCH  23  25
ATOM     25  N   ASP d   1      13.457  59.222  17.245  0.00  0.00    -0.345 N 
ATOM     26  C   PHE d   1      13.998  59.024  16.050  0.00  0.00     0.241 C 
ATOM     27  O   PHE d   1      15.195  59.179  15.810  0.00  0.00    -0.271 OA
ATOM     28  H   ASP d   1      12.446  59.135  17.347  0.00  0.00     0.163 HD
BRANCH  26  29
ATOM     29  CA  PHE d   1      13.092  58.538  15.011  0.00  0.00     0.093 C 
ATOM     30  H   PHE d   1      12.065  58.812  15.251  0.00  0.00     0.088 H 
BRANCH  29  31
ATOM     31  N   PHE d   1      13.356  59.176  13.687  0.00  0.00    -0.346 N 
ATOM     32  C   ASN d   1      12.354  59.477  12.877  0.00  0.00     0.241 C 
ATOM     33  O   ASN d   1      11.159  59.323  13.134  0.00  0.00    -0.271 OA
ATOM     34  H   PHE d   1      14.315  59.381  13.405  0.00  0.00     0.163 HD
BRANCH  32  35
ATOM     35  CA  ASN d   1      12.706  60.074  11.559  0.00  0.00     0.097 C 
ATOM     36  H   ASN d   1      13.672  59.678  11.245  0.00  0.00     0.088 H 
BRANCH  35  37
ATOM     37  N   ASN d   1      11.739  59.748  10.503  0.00  0.00    -0.346 N 
ATOM     38  C   ILE d   1      12.061  59.508   9.244  0.00  0.00     0.241 C 
ATOM     39  O   ILE d   1      13.207  59.438   8.897  0.00  0.00    -0.271 OA
ATOM     40  H   ASN d   1      10.752  59.704  10.758  0.00  0.00     0.163 HD
BRANCH  38  41
ATOM     41  CA  ILE d   1      10.972  59.296   8.218  0.00  0.00     0.092 C 
ATOM     42  H   ILE d   1       9.983  59.423   8.658  0.00  0.00     0.088 H 
BRANCH  41  43
ATOM     43  N   ILE d   1      11.388  60.189   7.197  0.00  0.00    -0.346 N 
ATOM     44  C   SER d   1      10.599  61.121   6.778  0.00  0.00     0.251 C 
ATOM     45  O   SER d   1       9.407  61.203   7.073  0.00  0.00    -0.271 OA
ATOM     46  H   ILE d   1      12.319  60.094   6.790  0.00  0.00     0.163 HD
BRANCH  44  47
ATOM     47  CA  SER d   1      11.264  62.100   5.820  0.00  0.00     0.195 C 
ATOM     48  H   SER d   1      11.977  61.562   5.195  0.00  0.00     0.102 H 
BRANCH  47  49
ATOM     49  N   SER d   1      10.269  62.757   4.829  0.00  0.00    -0.064 N 
ATOM     50  H   SER d   1       9.824  62.033   4.266  0.00  0.00     0.275 HD
ATOM     51  H   SER d   1       9.558  63.268   5.352  0.00  0.00     0.275 HD
ATOM     52  H   SER d   1      10.773  63.401   4.220  0.00  0.00     0.275 HD
ENDBRANCH  47  49
BRANCH  47  53
ATOM     53  CB  SER d   1      11.957  63.176   6.691  0.00  0.00     0.051 C 
ATOM     54  H   SER d   1      12.592  63.826   6.089  0.00  0.00     0.077 H 
ATOM     55  H   SER d   1      12.616  62.723   7.432  0.00  0.00     0.077 H 
BRANCH  53  56
ATOM     56  OG  SER d   1      10.885  63.921   7.322  0.00  0.00    -0.398 OA
ATOM     57  H   SER d   1      11.259  64.608   7.879  0.00  0.00     0.209 HD
ENDBRANCH  53  56
ENDBRANCH  47  53
ENDBRANCH  44  47
ENDBRANCH  41  43
BRANCH  41  58
ATOM     58  CB  ILE d   1      11.023  57.907   7.565  0.00  0.00    -0.030 C 
ATOM     59  H   ILE d   1      11.990  57.786   7.077  0.00  0.00     0.043 H 
BRANCH  58  60
ATOM     60  CG1 ILE d   1       9.926  57.756   6.513  0.00  0.00    -0.063 C 
ATOM     61  H   ILE d   1      10.105  58.517   5.753  0.00  0.00     0.033 H 
ATOM     62  H   ILE d   1       8.972  57.851   7.031  0.00  0.00     0.033 H 
BRANCH  60  63
ATOM     63  CD1 ILE d   1       9.915  56.339   5.765  0.00  0.00    -0.076 C 
ATOM     64  H   ILE d   1      10.867  56.191   5.255  0.00  0.00     0.027 H 
ATOM     65  H   ILE d   1       9.766  55.545   6.496  0.00  0.00     0.027 H 
ATOM     66  H   ILE d   1       9.105  56.321   5.036  0.00  0.00     0.027 H 
ENDBRANCH  60  63
ENDBRANCH  58  60
BRANCH  58  67
ATOM     67  CG2 ILE d   1      10.833  56.859   8.629  0.00  0.00    -0.071 C 
ATOM     68  H   ILE d   1      11.627  56.947   9.370  0.00  0.00     0.028 H 
ATOM     69  H   ILE d   1       9.867  57.004   9.112  0.00  0.00     0.028 H 
ATOM     70  H   ILE d   1      10.868  55.870   8.173  0.00  0.00     0.028 H 
ENDBRANCH  58  67
ENDBRANCH  41  58
ENDBRANCH  38  41
ENDBRANCH  35  37
BRANCH  35  71
ATOM     71  CB  ASN d   1      12.697  61.607  11.755  0.00  0.00     0.036 C 
ATOM     72  H   ASN d   1      13.568  61.884  12.349  0.00  0.00     0.051 H 
ATOM     73  H   ASN d   1      11.768  61.885  12.252  0.00  0.00     0.051 H 
BRANCH  71  74
ATOM     74  CG  ASN d   1      12.768  62.332  10.442  0.00  0.00     0.217 C 
ATOM     75  OD1 ASN d   1      13.654  62.057   9.653  0.00  0.00    -0.274 OA
ATOM     76  ND2 ASN d   1      11.778  63.128  10.157  0.00  0.00    -0.370 N 
ATOM     77  H   ASN d   1      11.718  63.556   9.233  0.00  0.00     0.159 HD
ATOM     78  H   ASN d   1      11.063  63.323  10.857  0.00  0.00     0.159 HD
ENDBRANCH  71  74
ENDBRANCH  35  71
ENDBRANCH  32  35
ENDBRANCH  29  31
BRANCH  29  79
ATOM     79  CB  PHE d   1      13.227  57.020  14.964  0.00  0.00    -0.014 C 
ATOM     80  H   PHE d   1      13.018  56.638  15.963  0.00  0.00     0.043 H 
ATOM     81  H   PHE d   1      14.235  56.787  14.620  0.00  0.00     0.043 H 
BRANCH  79  82
ATOM     82  CG  PHE d   1      12.257  56.371  14.013  0.00  0.00    -0.056 A 
ATOM     83  CD1 PHE d   1      12.579  56.137  12.685  0.00  0.00    -0.077 A 
ATOM     84  CE1 PHE d   1      11.688  55.568  11.818  0.00  0.00    -0.082 A 
ATOM     85  H   PHE d   1      13.569  56.414  12.322  0.00  0.00     0.084 H 
ATOM     86  CZ  PHE d   1      10.411  55.162  12.257  0.00  0.00    -0.083 A 
ATOM     87  H   PHE d   1      11.968  55.426  10.774  0.00  0.00     0.083 H 
ATOM     88  CE2 PHE d   1      10.096  55.316  13.611  0.00  0.00    -0.082 A 
ATOM     89  H   PHE d   1       9.688  54.739  11.559  0.00  0.00     0.083 H 
ATOM     90  CD2 PHE d   1      11.004  55.977  14.485  0.00  0.00    -0.077 A 
ATOM     91  H   PHE d   1       9.153  54.929  13.998  0.00  0.00     0.083 H 
ATOM     92  H   PHE d   1      10.722  56.175  15.519  0.00  0.00     0.084 H 
ENDBRANCH  79  82
ENDBRANCH  29  79
ENDBRANCH  26  29
ENDBRANCH  23  25
BRANCH  23  93
ATOM     93  CB  ASP d   1      13.433  60.396  19.413  0.00  0.00     0.043 C 
ATOM     94  H   ASP d   1      14.038  60.482  20.316  0.00  0.00     0.052 H 
ATOM     95  H   ASP d   1      12.477  59.885  19.530  0.00  0.00     0.052 H 
BRANCH  93  96
ATOM     96  CG  ASP d   1      13.113  61.804  18.978  0.00  0.00     0.175 C 
ATOM     97  OD1 ASP d   1      13.511  62.288  17.916  0.00  0.00    -0.648 OA
ATOM     98  OD2 ASP d   1      12.448  62.471  19.812  0.00  0.00    -0.648 OA
ENDBRANCH  93  96
ENDBRANCH  23  93
ENDBRANCH  20  23
ENDBRANCH  17  19
BRANCH  17  99
ATOM     99  CB  ASN d   1      17.592  56.661  20.397  0.00  0.00     0.036 C 
ATOM    100  H   ASN d   1      18.097  57.500  20.876  0.00  0.00     0.051 H 
ATOM    101  H   ASN d   1      17.848  56.573  19.341  0.00  0.00     0.051 H 
BRANCH  99 102
ATOM    102  CG  ASN d   1      18.025  55.397  21.090  0.00  0.00     0.217 C 
ATOM    103  OD1 ASN d   1      17.196  54.640  21.583  0.00  0.00    -0.274 OA
ATOM    104  ND2 ASN d   1      19.324  55.164  21.191  0.00  0.00    -0.370 N 
ATOM    105  H   ASN d   1      19.657  54.338  21.689  0.00  0.00     0.159 HD
ATOM    106  H   ASN d   1      19.992  55.810  20.771  0.00  0.00     0.159 HD
ENDBRANCH  99 102
ENDBRANCH  17  99
ENDBRANCH   7  17
ENDBRANCH   1   5
BRANCH   3 107
ATOM    107  CA  VAL d   1      17.510  54.814  25.283  0.00  0.00     0.110 C 
ATOM    108  H   VAL d   1      17.122  54.903  26.298  0.00  0.00     0.095 H 
BRANCH 107 109
ATOM    109  C   VAL d   1      18.741  55.741  25.203  0.00  0.00     0.245 C 
ATOM    110  O   VAL d   1      19.732  55.428  25.846  0.00  0.00    -0.271 OA
ATOM    111  N   TYR d   1      18.656  56.851  24.462  0.00  0.00    -0.345 N 
ATOM    112  H   TYR d   1      17.799  57.057  23.949  0.00  0.00     0.163 HD
BRANCH 111 113
ATOM    113  CA  TYR d   1      19.809  57.783  24.386  0.00  0.00     0.093 C 
ATOM    114  H   TYR d   1      20.684  57.280  23.974  0.00  0.00     0.088 H 
BRANCH 113 115
ATOM    115  C   TYR d   1      20.138  58.303  25.793  0.00  0.00     0.241 C 
ATOM    116  O   TYR d   1      19.255  58.766  26.582  0.00  0.00    -0.271 OA
ATOM    117  N   GLN d   1      21.410  58.118  26.096  0.00  0.00    -0.346 N 
ATOM    118  H   GLN d   1      22.016  57.627  25.439  0.00  0.00     0.163 HD
BRANCH 117 119
ATOM    119  CA  GLN d   1      21.969  58.611  27.372  0.00  0.00     0.090 C 
ATOM    120  H   GLN d   1      23.022  58.330  27.343  0.00  0.00     0.087 H 
BRANCH 119 121
ATOM    121  C   GLN d   1      21.320  57.955  28.593  0.00  0.00     0.241 C 
ATOM    122  O   GLN d   1      21.368  58.498  29.734  0.00  0.00    -0.271 OA
ATOM    123  N   LYS d   1      20.778  56.755  28.432  0.00  0.00    -0.346 N 
ATOM    124  H   LYS d   1      20.869  56.244  27.554  0.00  0.00     0.163 HD
BRANCH 123 125
ATOM    125  CA  LYS d   1      20.027  56.182  29.593  0.00  0.00     0.089 C 
ATOM    126  H   LYS d   1      19.743  56.986  30.272  0.00  0.00     0.087 H 
BRANCH 125 127
ATOM    127  C   LYS d   1      20.898  55.252  30.341  0.00  0.00     0.241 C 
ATOM    128  O   LYS d   1      20.404  54.470  31.178  0.00  0.00    -0.271 OA
ATOM    129  N   THR d   1      22.190  55.300  30.060  0.00  0.00    -0.344 N 
ATOM    130  H   THR d   1      22.528  55.758  29.213  0.00  0.00     0.163 HD
BRANCH 129 131
ATOM    131  CA  THR d   1      23.136  54.663  31.022  0.00  0.00     0.113 C 
ATOM    132  H   THR d   1      22.873  53.608  31.095  0.00  0.00     0.091 H 
BRANCH 131 133
ATOM    133  C   THR d   1      23.018  55.407  32.371  0.00  0.00     0.243 C 
ATOM    134  O   THR d   1      22.630  56.572  32.479  0.00  0.00    -0.271 OA
ATOM    135  N   THR d   1      23.212  54.633  33.415  0.00  0.00    -0.342 N 
ATOM    136  H   THR d   1      23.583  53.688  33.312  0.00  0.00     0.163 HD
BRANCH 135 137
ATOM    137  CA  THR d   1      22.878  55.175  34.722  0.00  0.00     0.120 C 
ATOM    138  H   THR d   1      22.323  56.091  34.520  0.00  0.00     0.093 H 
BRANCH 137 139
ATOM    139  C   THR d   1      24.140  55.506  35.508  0.00  0.00     0.199 C 
ATOM    140  O   THR d   1      24.021  55.935  36.687  0.00  0.00    -0.646 OA
ATOM    141  O   THR d   1      25.279  55.354  34.990  0.00  0.00    -0.646 OA
ENDBRANCH 137 139
BRANCH 137 142
ATOM    142  CB  THR d   1      21.942  54.324  35.538  0.00  0.00     0.061 C 
ATOM    143  H   THR d   1      21.906  54.747  36.542  0.00  0.00     0.086 H 
BRANCH 142 144
ATOM    144  OG1 THR d   1      22.414  52.993  35.605  0.00  0.00    -0.393 OA
ATOM    145  H   THR d   1      22.473  52.630  34.718  0.00  0.00     0.210 HD
ENDBRANCH 142 144
BRANCH 142 146
ATOM    146  CG2 THR d   1      20.594  54.334  34.982  0.00  0.00    -0.050 C 
ATOM    147  H   THR d   1      20.214  55.356  34.972  0.00  0.00     0.031 H 
ATOM    148  H   THR d   1      20.619  53.944  33.964  0.00  0.00     0.031 H 
ATOM    149  H   THR d   1      19.945  53.710  35.596  0.00  0.00     0.031 H 
ENDBRANCH 142 146
ENDBRANCH 137 142
ENDBRANCH 135 137
ENDBRANCH 131 133
BRANCH 131 150
ATOM    150  CB  THR d   1      24.623  54.765  30.560  0.00  0.00     0.060 C 
ATOM    151  H   THR d   1      25.287  54.365  31.326  0.00  0.00     0.086 H 
BRANCH 150 152
ATOM    152  OG1 THR d   1      24.979  56.159  30.348  0.00  0.00    -0.393 OA
ATOM    153  H   THR d   1      24.867  56.645  31.168  0.00  0.00     0.210 HD
ENDBRANCH 150 152
BRANCH 150 154
ATOM    154  CG2 THR d   1      24.793  53.958  29.295  0.00  0.00    -0.050 C 
ATOM    155  H   THR d   1      24.536  52.917  29.492  0.00  0.00     0.031 H 
ATOM    156  H   THR d   1      24.136  54.355  28.521  0.00  0.00     0.031 H 
ATOM    157  H   THR d   1      25.829  54.021  28.962  0.00  0.00     0.031 H 
ENDBRANCH 150 154
ENDBRANCH 131 150
ENDBRANCH 129 131
ENDBRANCH 125 127
BRANCH 125 158
ATOM    158  CB  LYS d   1      18.716  55.528  29.134  0.00  0.00    -0.038 C 
ATOM    159  H   LYS d   1      18.317  54.944  29.963  0.00  0.00     0.036 H 
ATOM    160  H   LYS d   1      18.930  54.906  28.265  0.00  0.00     0.036 H 
BRANCH 158 161
ATOM    161  CG  LYS d   1      17.669  56.569  28.733  0.00  0.00    -0.061 C 
ATOM    162  H   LYS d   1      17.176  56.156  27.853  0.00  0.00     0.033 H 
ATOM    163  H   LYS d   1      18.220  57.503  28.625  0.00  0.00     0.033 H 
BRANCH 161 164
ATOM    164  CD  LYS d   1      16.589  56.865  29.676  0.00  0.00    -0.043 C 
ATOM    165  H   LYS d   1      17.024  57.306  30.573  0.00  0.00     0.035 H 
ATOM    166  H   LYS d   1      16.064  55.937  29.903  0.00  0.00     0.035 H 
BRANCH 164 167
ATOM    167  CE  LYS d   1      15.605  57.840  29.095  0.00  0.00     0.080 C 
ATOM    168  H   LYS d   1      14.612  57.519  29.411  0.00  0.00     0.075 H 
ATOM    169  H   LYS d   1      15.756  57.841  28.015  0.00  0.00     0.075 H 
BRANCH 167 170
ATOM    170  NZ  LYS d   1      15.780  59.249  29.564  0.00  0.00    -0.079 N 
ATOM    171  H   LYS d   1      15.076  59.842  29.124  0.00  0.00     0.274 HD
ATOM    172  H   LYS d   1      15.671  59.285  30.578  0.00  0.00     0.274 HD
ATOM    173  H   LYS d   1      16.711  59.578  29.309  0.00  0.00     0.274 HD
ENDBRANCH 167 170
ENDBRANCH 164 167
ENDBRANCH 161 164
ENDBRANCH 158 161
ENDBRANCH 125 158
ENDBRANCH 123 125
ENDBRANCH 119 121
BRANCH 119 174
ATOM    174  CB  GLN d   1      21.870  60.147  27.510  0.00  0.00    -0.030 C 
ATOM    175  H   GLN d   1      22.159  60.401  28.530  0.00  0.00     0.037 H 
ATOM    176  H   GLN d   1      20.848  60.431  27.258  0.00  0.00     0.037 H 
BRANCH 174 177
ATOM    177  CG  GLN d   1      22.777  60.894  26.593  0.00  0.00     0.011 C 
ATOM    178  H   GLN d   1      22.447  60.725  25.568  0.00  0.00     0.047 H 
ATOM    179  H   GLN d   1      23.795  60.538  26.749  0.00  0.00     0.047 H 
BRANCH 177 180
ATOM    180  CD  GLN d   1      22.741  62.436  26.878  0.00  0.00     0.215 C 
ATOM    181  OE1 GLN d   1      21.692  63.008  27.289  0.00  0.00    -0.274 OA
ATOM    182  NE2 GLN d   1      23.834  63.098  26.561  0.00  0.00    -0.370 N 
ATOM    183  H   GLN d   1      23.857  64.114  26.643  0.00  0.00     0.159 HD
ATOM    184  H   GLN d   1      24.658  62.594  26.233  0.00  0.00     0.159 HD
ENDBRANCH 177 180
ENDBRANCH 174 177
ENDBRANCH 119 174
ENDBRANCH 117 119
ENDBRANCH 113 115
BRANCH 113 185
ATOM    185  CB  TYR d   1      19.387  58.957  23.516  0.00  0.00    -0.014 C 
ATOM    186  H   TYR d   1      18.488  59.394  23.950  0.00  0.00     0.043 H 
ATOM    187  H   TYR d   1      19.218  58.586  22.505  0.00  0.00     0.043 H 
BRANCH 185 188
ATOM    188  CG  TYR d   1      20.446  60.030  23.451  0.00  0.00    -0.056 A 
ATOM    189  CD1 TYR d   1      21.753  59.742  22.991  0.00  0.00    -0.074 A 
ATOM    190  CE1 TYR d   1      22.713  60.788  22.898  0.00  0.00    -0.051 A 
ATOM    191  H   TYR d   1      22.023  58.724  22.709  0.00  0.00     0.084 H 
ATOM    192  CZ  TYR d   1      22.376  62.083  23.296  0.00  0.00     0.065 A 
ATOM    193  H   TYR d   1      23.712  60.578  22.516  0.00  0.00     0.087 H 
ATOM    194  CE2 TYR d   1      21.110  62.334  23.792  0.00  0.00    -0.051 A 
ATOM    195  CD2 TYR d   1      20.173  61.299  23.899  0.00  0.00    -0.074 A 
ATOM    196  H   TYR d   1      20.840  63.344  24.102  0.00  0.00     0.087 H 
ATOM    197  H   TYR d   1      19.202  61.506  24.349  0.00  0.00     0.084 H 
BRANCH 192 198
ATOM    198  OH  TYR d   1      23.371  63.012  23.151  0.00  0.00    -0.361 OA
ATOM    199  H   TYR d   1      23.581  63.391  24.008  0.00  0.00     0.217 HD
ENDBRANCH 192 198
ENDBRANCH 185 188
ENDBRANCH 113 185
ENDBRANCH 111 113
ENDBRANCH 107 109
BRANCH 107 200
ATOM    200  CB  VAL d   1      17.860  53.300  25.105  0.00  0.00    -0.062 C 
BRANCH 200 201
ATOM    201  CG1 VAL d   1      18.852  52.993  23.932  0.00  0.00    -0.053 C 
ATOM    202  H   VAL d   1      19.869  53.223  24.249  0.00  0.00     0.033 H 
ATOM    203  H   VAL d   1      18.783  51.938  23.666  0.00  0.00     0.033 H 
ATOM    204  H   VAL d   1      18.592  53.605  23.068  0.00  0.00     0.033 H 
ENDBRANCH 200 201
BRANCH 200 205
ATOM    205  CG2 VAL d   1      18.089  52.567  26.294  0.00  0.00    -0.117 C 
ATOM    206  H   VAL d   1      18.017  53.062  27.262  0.00  0.00     0.067 H 
ATOM    207  H   VAL d   1      18.337  51.507  26.241  0.00  0.00     0.067 H 
ENDBRANCH 200 205
ENDBRANCH 107 200
ENDBRANCH   3 107
TORSDOF 59
