REMARK  16 active torsions:
REMARK  status: ('A' for Active; 'I' for Inactive)
REMARK    1  A    between atoms: C2_2  and  N1_1 
REMARK    2  A    between atoms: S8_8  and  C5_5 
REMARK    3  A    between atoms: N11_11  and  S8_8 
REMARK    4  A    between atoms: N11_11  and  C12_12 
REMARK    5  A    between atoms: C16_16  and  N11_11 
REMARK    6  A    between atoms: C12_12  and  C13_13 
REMARK    7  A    between atoms: C13_13  and  C14_14 
REMARK    8  A    between atoms: C13_13  and  C15_15 
REMARK    9  A    between atoms: C17_17  and  C16_16 
REMARK   10  A    between atoms: C17_17  and  O18_18 
REMARK   11  A    between atoms: C19_19  and  C17_17 
REMARK   12  A    between atoms: C19_19  and  N20_20 
REMARK   13  A    between atoms: C32_32  and  C19_19 
REMARK       I    between atoms: N20_20  and  C21_21 
REMARK   14  A    between atoms: C21_21  and  O23_23 
REMARK   15  A    between atoms: O23_23  and  C24_24 
REMARK   16  A    between atoms: C38_38  and  C32_32 
ROOT
ATOM      1  C19 017 d   1      12.225  -7.981  -8.491  0.00  0.00     0.044 C 
ATOM      2  H   017 d   1      12.556  -8.994  -8.720  0.00  0.00     0.077 H 
ENDROOT
BRANCH   1   3
ATOM      3  C17 017 d   1      13.452  -7.074  -8.577  0.00  0.00     0.071 C 
ATOM      4  H   017 d   1      13.994  -7.224  -7.644  0.00  0.00     0.088 H 
BRANCH   3   5
ATOM      5  C16 017 d   1      14.467  -7.374  -9.699  0.00  0.00     0.031 C 
ATOM      6  H   017 d   1      14.038  -7.050 -10.647  0.00  0.00     0.069 H 
ATOM      7  H   017 d   1      15.393  -6.845  -9.475  0.00  0.00     0.069 H 
BRANCH   5   8
ATOM      8  N11 017 d   1      14.763  -8.806  -9.791  0.00  0.00    -0.304 N 
BRANCH   8   9
ATOM      9  S8  017 d   1      14.253  -9.663 -10.943  0.00  0.00     0.260 S 
ATOM     10  O9  017 d   1      14.652 -11.004 -10.667  0.00  0.00    -0.200 OA
ATOM     11  O10 017 d   1      12.825  -9.602 -10.981  0.00  0.00    -0.200 OA
BRANCH   9  12
ATOM     12  C5  017 d   1      14.786  -9.288 -12.399  0.00  0.00     0.079 A 
ATOM     13  C4  017 d   1      15.659 -10.186 -13.023  0.00  0.00    -0.058 A 
ATOM     14  C3  017 d   1      16.076  -9.962 -14.329  0.00  0.00    -0.056 A 
ATOM     15  H   017 d   1      16.013 -11.064 -12.483  0.00  0.00     0.086 H 
ATOM     16  C2  017 d   1      15.571  -8.872 -15.041  0.00  0.00     0.025 A 
ATOM     17  H   017 d   1      16.795 -10.635 -14.796  0.00  0.00     0.086 H 
ATOM     18  C7  017 d   1      14.650  -7.998 -14.444  0.00  0.00    -0.056 A 
ATOM     19  C6  017 d   1      14.221  -8.234 -13.141  0.00  0.00    -0.058 A 
ATOM     20  H   017 d   1      14.272  -7.138 -14.998  0.00  0.00     0.086 H 
ATOM     21  H   017 d   1      13.450  -7.604 -12.697  0.00  0.00     0.086 H 
BRANCH  16  22
ATOM     22  N1  017 d   1      15.997  -8.655 -16.307  0.00  0.00    -0.399 N 
ATOM     23  H   017 d   1      16.679  -9.284 -16.730  0.00  0.00     0.156 HD
ATOM     24  H   017 d   1      15.636  -7.862 -16.838  0.00  0.00     0.156 HD
ENDBRANCH  16  22
ENDBRANCH   9  12
ENDBRANCH   8   9
BRANCH   8  25
ATOM     25  C12 017 d   1      15.565  -9.475  -8.770  0.00  0.00     0.008 C 
ATOM     26  H   017 d   1      16.262 -10.180  -9.224  0.00  0.00     0.066 H 
ATOM     27  H   017 d   1      14.932 -10.050  -8.095  0.00  0.00     0.066 H 
BRANCH  25  28
ATOM     28  C13 017 d   1      16.314  -8.382  -8.013  0.00  0.00    -0.045 C 
ATOM     29  H   017 d   1      15.765  -7.449  -8.140  0.00  0.00     0.041 H 
BRANCH  28  30
ATOM     30  C14 017 d   1      17.712  -8.140  -8.591  0.00  0.00    -0.072 C 
ATOM     31  H   017 d   1      18.294  -9.059  -8.528  0.00  0.00     0.028 H 
ATOM     32  H   017 d   1      17.625  -7.835  -9.634  0.00  0.00     0.028 H 
ATOM     33  H   017 d   1      18.208  -7.354  -8.021  0.00  0.00     0.028 H 
ENDBRANCH  28  30
BRANCH  28  34
ATOM     34  C15 017 d   1      16.359  -8.699  -6.522  0.00  0.00    -0.072 C 
ATOM     35  H   017 d   1      15.342  -8.765  -6.135  0.00  0.00     0.028 H 
ATOM     36  H   017 d   1      16.870  -9.650  -6.369  0.00  0.00     0.028 H 
ATOM     37  H   017 d   1      16.897  -7.908  -6.000  0.00  0.00     0.028 H 
ENDBRANCH  28  34
ENDBRANCH  25  28
ENDBRANCH   8  25
ENDBRANCH   5   8
ENDBRANCH   3   5
BRANCH   3  38
ATOM     38  O18 017 d   1      12.956  -5.742  -8.822  0.00  0.00    -0.392 OA
ATOM     39  H   017 d   1      12.535  -5.712  -9.684  0.00  0.00     0.210 HD
ENDBRANCH   3  38
ENDBRANCH   1   3
BRANCH   1  40
ATOM     40  N20 017 d   1      11.624  -7.913  -7.162  0.00  0.00    -0.329 N 
ATOM     41  C21 017 d   1      11.957  -8.666  -6.118  0.00  0.00     0.361 C 
ATOM     42  O22 017 d   1      11.842  -9.881  -6.076  0.00  0.00    -0.238 OA
ATOM     43  H   017 d   1      10.883  -7.227  -7.022  0.00  0.00     0.165 HD
BRANCH  41  44
ATOM     44  O23 017 d   1      12.461  -7.931  -4.977  0.00  0.00    -0.296 OA
BRANCH  44  45
ATOM     45  C24 017 d   1      12.094  -8.417  -3.688  0.00  0.00     0.078 C 
ATOM     46  C25 017 d   1      12.438  -7.340  -2.656  0.00  0.00     0.048 C 
ATOM     47  O26 017 d   1      11.287  -7.177  -1.811  0.00  0.00    -0.358 OA
ATOM     48  H   017 d   1      12.687  -6.401  -3.150  0.00  0.00     0.078 H 
ATOM     49  H   017 d   1      13.307  -7.636  -2.068  0.00  0.00     0.078 H 
ATOM     50  C27 017 d   1      10.160  -7.875  -2.319  0.00  0.00     0.137 C 
ATOM     51  O28 017 d   1       9.212  -6.914  -2.769  0.00  0.00    -0.361 OA
ATOM     52  C31 017 d   1      10.610  -8.674  -3.526  0.00  0.00     0.023 C 
ATOM     53  H   017 d   1       9.730  -8.523  -1.555  0.00  0.00     0.129 H 
ATOM     54  C29 017 d   1       8.805  -7.166  -4.120  0.00  0.00     0.023 C 
ATOM     55  C30 017 d   1       9.792  -8.170  -4.696  0.00  0.00    -0.035 C 
ATOM     56  H   017 d   1       8.804  -6.245  -4.703  0.00  0.00     0.074 H 
ATOM     57  H   017 d   1       7.789  -7.559  -4.152  0.00  0.00     0.074 H 
ATOM     58  H   017 d   1      10.428  -7.708  -5.451  0.00  0.00     0.037 H 
ATOM     59  H   017 d   1       9.274  -8.989  -5.196  0.00  0.00     0.037 H 
ATOM     60  H   017 d   1      10.461  -9.750  -3.439  0.00  0.00     0.051 H 
ATOM     61  H   017 d   1      12.629  -9.357  -3.556  0.00  0.00     0.088 H 
ENDBRANCH  44  45
ENDBRANCH  41  44
ENDBRANCH   1  40
BRANCH   1  62
ATOM     62  C32 017 d   1      11.148  -7.501  -9.469  0.00  0.00    -0.020 C 
ATOM     63  H   017 d   1      11.331  -7.933 -10.453  0.00  0.00     0.043 H 
ATOM     64  H   017 d   1      11.179  -6.414  -9.540  0.00  0.00     0.043 H 
BRANCH  62  65
ATOM     65  C38 017 d   1       9.788  -7.936  -8.971  0.00  0.00    -0.056 A 
ATOM     66  C33 017 d   1       8.807  -6.996  -8.678  0.00  0.00    -0.077 A 
ATOM     67  C34 017 d   1       7.557  -7.412  -8.226  0.00  0.00    -0.082 A 
ATOM     68  H   017 d   1       9.016  -5.933  -8.802  0.00  0.00     0.084 H 
ATOM     69  C35 017 d   1       7.283  -8.767  -8.057  0.00  0.00    -0.083 A 
ATOM     70  H   017 d   1       6.788  -6.672  -8.003  0.00  0.00     0.083 H 
ATOM     71  C36 017 d   1       8.264  -9.708  -8.344  0.00  0.00    -0.082 A 
ATOM     72  H   017 d   1       6.304  -9.088  -7.701  0.00  0.00     0.083 H 
ATOM     73  C37 017 d   1       9.511  -9.287  -8.798  0.00  0.00    -0.077 A 
ATOM     74  H   017 d   1       8.058 -10.771  -8.214  0.00  0.00     0.083 H 
ATOM     75  H   017 d   1      10.280 -10.027  -9.021  0.00  0.00     0.084 H 
ENDBRANCH  62  65
ENDBRANCH   1  62
TORSDOF 16
