REMARK WARNING: 32 MAX_TORS EXCEEDED!!!
REMARK  33 active torsions:
REMARK  status: ('A' for Active; 'I' for Inactive)
REMARK    1  A    between atoms: C_1  and  CH3_3 
REMARK       I    between atoms: C_1  and  N_4 
REMARK    2  A    between atoms: N_4  and  CA_5 
REMARK    3  A    between atoms: CA_5  and  C_6 
REMARK    4  A    between atoms: CA_5  and  CB_8 
REMARK       I    between atoms: C_6  and  N_12 
REMARK    5  A    between atoms: CB_8  and  CG_9 
REMARK    6  A    between atoms: N_12  and  CA_13 
REMARK    7  A    between atoms: CA_13  and  C_14 
REMARK    8  A    between atoms: CA_13  and  CB_16 
REMARK       I    between atoms: C_14  and  N_18 
REMARK    9  A    between atoms: CB_16  and  OG_17 
REMARK   10  A    between atoms: N_18  and  CA_19 
REMARK   11  A    between atoms: CA_19  and  C_20 
REMARK   12  A    between atoms: CA_19  and  CB_22 
REMARK       I    between atoms: C_20  and  N_26 
REMARK   13  A    between atoms: CB_22  and  CG_23 
REMARK       I    between atoms: CG_23  and  ND2_25 
REMARK   14  A    between atoms: N_26  and  CA_27 
REMARK   15  A    between atoms: CA_27  and  C_28 
REMARK   16  A    between atoms: CA_27  and  CB_30 
REMARK       I    between atoms: C_28  and  N_31 
REMARK   17  A    between atoms: N_31  and  CA_32 
REMARK   18  A    between atoms: CA_32  and  C_33 
REMARK   19  A    between atoms: CA_32  and  CB_35 
REMARK       I    between atoms: C_33  and  N_39 
REMARK   20  A    between atoms: CB_35  and  CG1_36 
REMARK   21  A    between atoms: CB_35  and  CG2_37 
REMARK   22  A    between atoms: CG1_36  and  CD1_38 
REMARK   23  A    between atoms: N_39  and  CA_40 
REMARK   24  A    between atoms: CA_40  and  C_41 
REMARK   25  A    between atoms: CA_40  and  CB_43 
REMARK       I    between atoms: C_41  and  N_48 
REMARK   26  A    between atoms: CB_43  and  CG_44 
REMARK   27  A    between atoms: CG_44  and  CD_45 
REMARK   28  A    between atoms: CD_45  and  CE_46 
REMARK   29  A    between atoms: CE_46  and  NZ_47 
REMARK   30  A    between atoms: N_48  and  CA_49 
REMARK   31  A    between atoms: CA_49  and  C_50 
REMARK   32  A    between atoms: CA_49  and  CB_52 
REMARK       I    between atoms: C_50  and  N_56 
REMARK   33  A    between atoms: CB_52  and  CG_53 
REMARK       I    between atoms: CG_53  and  ND2_55 
ROOT
ATOM      1  C   ALA d   1     -15.645  10.455  -5.603  0.00  0.00     0.240 C 
ATOM      2  O   ALA d   1     -16.857  10.446  -5.387  0.00  0.00    -0.271 OA
ATOM      3  N   ILE d   1     -14.907   9.350  -5.599  0.00  0.00    -0.346 N 
ATOM      4  H26 ILE d   1     -13.927   9.410  -5.787  0.00  0.00     0.163 HD
ENDROOT
BRANCH   3   5
ATOM      5  CA  ILE d   1     -15.511   8.051  -5.324  0.00  0.00     0.092 C 
ATOM      6  H27 ILE d   1     -16.423   7.978  -5.934  0.00  0.00     0.088 H 
BRANCH   5   7
ATOM      7  C   ILE d   1     -15.914   7.898  -3.856  0.00  0.00     0.241 C 
ATOM      8  O   ILE d   1     -16.949   7.305  -3.550  0.00  0.00    -0.271 OA
ATOM      9  N   LYS d   1     -15.104   8.439  -2.950  0.00  0.00    -0.346 N 
ATOM     10  H37 LYS d   1     -14.323   8.987  -3.249  0.00  0.00     0.163 HD
BRANCH   9  11
ATOM     11  CA  LYS d   1     -15.345   8.240  -1.522  0.00  0.00     0.089 C 
ATOM     12  H38 LYS d   1     -15.691   7.203  -1.405  0.00  0.00     0.087 H 
BRANCH  11  13
ATOM     13  C   LYS d   1     -16.442   9.134  -0.942  0.00  0.00     0.241 C 
ATOM     14  O   LYS d   1     -17.328   8.647  -0.236  0.00  0.00    -0.271 OA
ATOM     15  N   ASN d   1     -16.379  10.429  -1.241  0.00  0.00    -0.346 N 
ATOM     16  H50 ASN d   1     -15.649  10.748  -1.845  0.00  0.00     0.163 HD
BRANCH  15  17
ATOM     17  CA  ASN d   1     -17.340  11.405  -0.718  0.00  0.00     0.097 C 
ATOM     18  H51 ASN d   1     -17.267  12.302  -1.351  0.00  0.00     0.088 H 
BRANCH  17  19
ATOM     19  C   ASN d   1     -17.032  11.833   0.719  0.00  0.00     0.238 C 
ATOM     20  O   ASN d   1     -17.136  11.035   1.653  0.00  0.00    -0.271 OA
ATOM     21  N   NH2 d   1     -16.656  13.097   0.887  0.00  0.00    -0.368 N 
ATOM     22  H56 NH2 d   1     -16.441  13.437   1.802  0.00  0.00     0.159 HD
ATOM     23  H57 NH2 d   1     -16.588  13.708   0.098  0.00  0.00     0.159 HD
ENDBRANCH  17  19
BRANCH  17  24
ATOM     24  CB  ASN d   1     -18.780  10.881  -0.816  0.00  0.00     0.036 C 
ATOM     25  H52 ASN d   1     -19.455  11.620  -0.360  0.00  0.00     0.051 H 
ATOM     26  H53 ASN d   1     -18.848   9.932  -0.263  0.00  0.00     0.051 H 
BRANCH  24  27
ATOM     27  CG  ASN d   1     -19.221  10.640  -2.249  0.00  0.00     0.217 C 
ATOM     28  OD1 ASN d   1     -19.025  11.487  -3.122  0.00  0.00    -0.274 OA
ATOM     29  ND2 ASN d   1     -19.820   9.479  -2.498  0.00  0.00    -0.370 N 
ATOM     30  H54 ASN d   1     -20.132   9.266  -3.424  0.00  0.00     0.159 HD
ATOM     31  H55 ASN d   1     -19.959   8.819  -1.759  0.00  0.00     0.159 HD
ENDBRANCH  24  27
ENDBRANCH  17  24
ENDBRANCH  15  17
ENDBRANCH  11  13
BRANCH  11  32
ATOM     32  CB  LYS d   1     -14.046   8.377  -0.720  0.00  0.00    -0.038 C 
ATOM     33  H39 LYS d   1     -14.298   8.401   0.350  0.00  0.00     0.036 H 
ATOM     34  H40 LYS d   1     -13.559   9.322  -1.003  0.00  0.00     0.036 H 
BRANCH  32  35
ATOM     35  CG  LYS d   1     -13.063   7.236  -0.960  0.00  0.00    -0.061 C 
ATOM     36  H41 LYS d   1     -12.689   7.301  -1.992  0.00  0.00     0.033 H 
ATOM     37  H42 LYS d   1     -13.589   6.280  -0.820  0.00  0.00     0.033 H 
BRANCH  35  38
ATOM     38  CD  LYS d   1     -11.878   7.289  -0.004  0.00  0.00    -0.043 C 
ATOM     39  H43 LYS d   1     -12.248   7.252   1.031  0.00  0.00     0.035 H 
ATOM     40  H44 LYS d   1     -11.328   8.228  -0.164  0.00  0.00     0.035 H 
BRANCH  38  41
ATOM     41  CE  LYS d   1     -10.936   6.112  -0.240  0.00  0.00     0.080 C 
ATOM     42  H45 LYS d   1     -10.582   6.149  -1.281  0.00  0.00     0.075 H 
ATOM     43  H46 LYS d   1     -11.494   5.178  -0.075  0.00  0.00     0.075 H 
BRANCH  41  44
ATOM     44  NZ  LYS d   1      -9.748   6.124   0.668  0.00  0.00    -0.079 N 
ATOM     45  H47 LYS d   1      -9.164   5.327   0.468  0.00  0.00     0.274 HD
ATOM     46  H48 LYS d   1     -10.057   6.081   1.627  0.00  0.00     0.274 HD
ATOM     47  H49 LYS d   1      -9.222   6.971   0.522  0.00  0.00     0.274 HD
ENDBRANCH  41  44
ENDBRANCH  38  41
ENDBRANCH  35  38
ENDBRANCH  32  35
ENDBRANCH  11  32
ENDBRANCH   9  11
ENDBRANCH   5   7
BRANCH   5  48
ATOM     48  CB  ILE d   1     -14.583   6.887  -5.718  0.00  0.00    -0.030 C 
ATOM     49  H28 ILE d   1     -13.565   7.111  -5.366  0.00  0.00     0.043 H 
BRANCH  48  50
ATOM     50  CG1 ILE d   1     -14.559   6.711  -7.234  0.00  0.00    -0.063 C 
ATOM     51  H29 ILE d   1     -14.063   7.586  -7.678  0.00  0.00     0.033 H 
ATOM     52  H30 ILE d   1     -15.597   6.656  -7.595  0.00  0.00     0.033 H 
BRANCH  50  53
ATOM     53  CD1 ILE d   1     -13.826   5.462  -7.686  0.00  0.00    -0.076 C 
ATOM     54  H34 ILE d   1     -13.849   5.401  -8.784  0.00  0.00     0.027 H 
ATOM     55  H35 ILE d   1     -14.316   4.574  -7.259  0.00  0.00     0.027 H 
ATOM     56  H36 ILE d   1     -12.782   5.505  -7.343  0.00  0.00     0.027 H 
ENDBRANCH  50  53
ENDBRANCH  48  50
BRANCH  48  57
ATOM     57  CG2 ILE d   1     -15.058   5.587  -5.078  0.00  0.00    -0.071 C 
ATOM     58  H31 ILE d   1     -15.079   5.703  -3.984  0.00  0.00     0.028 H 
ATOM     59  H32 ILE d   1     -14.369   4.773  -5.347  0.00  0.00     0.028 H 
ATOM     60  H33 ILE d   1     -16.069   5.348  -5.441  0.00  0.00     0.028 H 
ENDBRANCH  48  57
ENDBRANCH   5  48
ENDBRANCH   3   5
BRANCH   1  61
ATOM     61  CA  ALA d   1     -14.912  11.765  -5.888  0.00  0.00     0.086 C 
ATOM     62  H22 ALA d   1     -13.999  11.531  -6.455  0.00  0.00     0.086 H 
BRANCH  61  63
ATOM     63  N   ALA d   1     -15.731  12.664  -6.698  0.00  0.00    -0.346 N 
ATOM     64  C   ASN d   1     -15.903  12.463  -8.003  0.00  0.00     0.241 C 
ATOM     65  O   ASN d   1     -15.394  11.519  -8.610  0.00  0.00    -0.271 OA
ATOM     66  H21 ALA d   1     -16.172  13.448  -6.262  0.00  0.00     0.163 HD
BRANCH  64  67
ATOM     67  CA  ASN d   1     -16.780  13.467  -8.742  0.00  0.00     0.097 C 
ATOM     68  H16 ASN d   1     -17.659  12.919  -9.112  0.00  0.00     0.088 H 
BRANCH  67  69
ATOM     69  N   ASN d   1     -17.279  14.552  -7.902  0.00  0.00    -0.345 N 
ATOM     70  C   SER d   1     -18.513  14.516  -7.413  0.00  0.00     0.243 C 
ATOM     71  O   SER d   1     -19.264  13.550  -7.562  0.00  0.00    -0.271 OA
ATOM     72  H15 ASN d   1     -16.686  15.329  -7.693  0.00  0.00     0.163 HD
BRANCH  70  73
ATOM     73  CA  SER d   1     -18.976  15.738  -6.635  0.00  0.00     0.109 C 
ATOM     74  H11 SER d   1     -18.369  16.609  -6.922  0.00  0.00     0.090 H 
BRANCH  73  75
ATOM     75  N   SER d   1     -20.369  15.990  -6.980  0.00  0.00    -0.344 N 
ATOM     76  C   ASN d   1     -20.725  17.029  -7.729  0.00  0.00     0.241 C 
ATOM     77  O   ASN d   1     -19.967  17.972  -7.967  0.00  0.00    -0.271 OA
ATOM     78  H10 SER d   1     -21.075  15.366  -6.645  0.00  0.00     0.163 HD
BRANCH  76  79
ATOM     79  CA  ASN d   1     -22.155  16.997  -8.289  0.00  0.00     0.096 C 
ATOM     80  H5  ASN d   1     -22.664  16.157  -7.794  0.00  0.00     0.088 H 
BRANCH  79  81
ATOM     81  N   ASN d   1     -22.987  18.180  -8.050  0.00  0.00    -0.348 N 
ATOM     82  C   ACE d   1     -22.876  18.942  -6.965  0.00  0.00     0.214 C 
ATOM     83  O   ACE d   1     -22.044  18.740  -6.082  0.00  0.00    -0.274 OA
ATOM     84  H4  ASN d   1     -23.672  18.426  -8.736  0.00  0.00     0.163 HD
BRANCH  82  85
ATOM     85  CH3 ACE d   1     -23.849  20.115  -6.868  0.00  0.00    -0.003 C 
ATOM     86  H1  ACE d   1     -24.506  20.121  -7.750  0.00  0.00     0.040 H 
ATOM     87  H2  ACE d   1     -23.284  21.058  -6.826  0.00  0.00     0.040 H 
ATOM     88  H3  ACE d   1     -24.459  20.012  -5.958  0.00  0.00     0.040 H 
ENDBRANCH  82  85
ENDBRANCH  79  81
BRANCH  79  89
ATOM     89  CB  ASN d   1     -22.098  16.692  -9.793  0.00  0.00     0.024 C 
ATOM     90  H6  ASN d   1     -21.183  16.119 -10.000  0.00  0.00     0.049 H 
ATOM     91  H7  ASN d   1     -22.067  17.644 -10.343  0.00  0.00     0.049 H 
BRANCH  89  92
ATOM     92  CG  ASN d   1     -23.294  15.889 -10.280  0.00  0.00     0.151 C 
ATOM     93  OD1 ASN d   1     -23.297  15.567 -11.568  0.00  0.00    -0.178 OA
ATOM     94  ND2 ASN d   1     -24.203  15.566  -9.513  0.00  0.00    -0.381 N 
ATOM     95  H8  ASN d   1     -24.981  15.038  -9.854  0.00  0.00     0.158 HD
ATOM     96  H9  ASN d   1     -24.163  15.832  -8.550  0.00  0.00     0.158 HD
ENDBRANCH  89  92
ENDBRANCH  79  89
ENDBRANCH  76  79
ENDBRANCH  73  75
BRANCH  73  97
ATOM     97  CB  SER d   1     -18.807  15.491  -5.139  0.00  0.00     0.044 C 
ATOM     98  H12 SER d   1     -19.515  14.713  -4.819  0.00  0.00     0.077 H 
ATOM     99  H13 SER d   1     -19.015  16.423  -4.593  0.00  0.00     0.077 H 
BRANCH  97 100
ATOM    100  OG  SER d   1     -17.482  15.065  -4.847  0.00  0.00    -0.398 OA
ATOM    101  H14 SER d   1     -16.867  15.736  -5.120  0.00  0.00     0.209 HD
ENDBRANCH  97 100
ENDBRANCH  73  97
ENDBRANCH  70  73
ENDBRANCH  67  69
BRANCH  67 102
ATOM    102  CB  ASN d   1     -16.026  14.012  -9.957  0.00  0.00     0.036 C 
ATOM    103  H17 ASN d   1     -15.006  14.283  -9.647  0.00  0.00     0.051 H 
ATOM    104  H18 ASN d   1     -16.548  14.908 -10.324  0.00  0.00     0.051 H 
BRANCH 102 105
ATOM    105  CG  ASN d   1     -15.940  13.002 -11.085  0.00  0.00     0.217 C 
ATOM    106  OD1 ASN d   1     -16.914  12.307 -11.384  0.00  0.00    -0.274 OA
ATOM    107  ND2 ASN d   1     -14.771  12.905 -11.710  0.00  0.00    -0.370 N 
ATOM    108  H19 ASN d   1     -14.658  12.255 -12.461  0.00  0.00     0.159 HD
ATOM    109  H20 ASN d   1     -14.004  13.482 -11.429  0.00  0.00     0.159 HD
ENDBRANCH 102 105
ENDBRANCH  67 102
ENDBRANCH  64  67
ENDBRANCH  61  63
BRANCH  61 110
ATOM    110  CB  ALA d   1     -14.503  12.439  -4.580  0.00  0.00    -0.049 C 
ATOM    111  H23 ALA d   1     -13.888  11.746  -3.987  0.00  0.00     0.030 H 
ATOM    112  H24 ALA d   1     -15.404  12.710  -4.010  0.00  0.00     0.030 H 
ATOM    113  H25 ALA d   1     -13.922  13.347  -4.801  0.00  0.00     0.030 H 
ENDBRANCH  61 110
ENDBRANCH   1  61
TORSDOF 33
