REMARK WARNING: 32 MAX_TORS EXCEEDED!!!
REMARK  40 active torsions:
REMARK  status: ('A' for Active; 'I' for Inactive)
REMARK    1  A    between atoms: N_1  and  CA_2 
REMARK    2  A    between atoms: CA_2  and  C_3 
REMARK    3  A    between atoms: CA_2  and  CB_5 
REMARK       I    between atoms: C_3  and  N_6 
REMARK    4  A    between atoms: N_6  and  CA_7 
REMARK    5  A    between atoms: CA_7  and  C_8 
REMARK    6  A    between atoms: CA_7  and  CB_10 
REMARK       I    between atoms: C_8  and  N_17 
REMARK    7  A    between atoms: CB_10  and  CG_11 
REMARK    8  A    between atoms: CG_11  and  CD_12 
REMARK    9  A    between atoms: CD_12  and  NE_13 
REMARK       I    between atoms: NE_13  and  CZ_14 
REMARK       I    between atoms: CZ_14  and  NH1_15 
REMARK       I    between atoms: CZ_14  and  NH2_16 
REMARK   10  A    between atoms: N_17  and  CA_18 
REMARK   11  A    between atoms: CA_18  and  C_19 
REMARK   12  A    between atoms: CA_18  and  CB_21 
REMARK       I    between atoms: C_19  and  N_24 
REMARK   13  A    between atoms: CB_21  and  OG1_22 
REMARK   14  A    between atoms: CB_21  and  CG2_23 
REMARK   15  A    between atoms: N_24  and  CA_25 
REMARK   16  A    between atoms: CA_25  and  C_26 
REMARK   17  A    between atoms: CA_25  and  CB_28 
REMARK       I    between atoms: C_26  and  N_33 
REMARK   18  A    between atoms: CB_28  and  CG_29 
REMARK   19  A    between atoms: CG_29  and  CD_30 
REMARK   20  A    between atoms: CD_30  and  CE_31 
REMARK   21  A    between atoms: CE_31  and  NZ_32 
REMARK   22  A    between atoms: N_33  and  CA_34 
REMARK   23  A    between atoms: CA_34  and  C_35 
REMARK   24  A    between atoms: CA_34  and  CB_37 
REMARK       I    between atoms: C_35  and  N_42 
REMARK   25  A    between atoms: CB_37  and  CG_38 
REMARK   26  A    between atoms: CG_38  and  CD_39 
REMARK       I    between atoms: CD_39  and  NE2_41 
REMARK   27  A    between atoms: N_42  and  CA_43 
REMARK   28  A    between atoms: CA_43  and  C_44 
REMARK   29  A    between atoms: CA_43  and  CB_46 
REMARK       I    between atoms: C_44  and  N_49 
REMARK   30  A    between atoms: CB_46  and  OG1_47 
REMARK   31  A    between atoms: CB_46  and  CG2_48 
REMARK   32  A    between atoms: N_49  and  CA_50 
REMARK   33  A    between atoms: CA_50  and  C_51 
REMARK   34  A    between atoms: CA_50  and  CB_53 
REMARK       I    between atoms: C_51  and  N_54 
REMARK   35  A    between atoms: N_54  and  CA_55 
REMARK   36  A    between atoms: CA_55  and  C_56 
REMARK   37  A    between atoms: CA_55  and  CB_58 
REMARK   38  A    between atoms: CB_58  and  CG_59 
REMARK   39  A    between atoms: CG_59  and  CD_60 
REMARK   40  A    between atoms: CD_60  and  NE_61 
REMARK       I    between atoms: NE_61  and  CZ_62 
REMARK       I    between atoms: CZ_62  and  NH1_63 
ROOT
ATOM      1  CA  LYS d   1      25.720  16.225  77.950  0.00  0.00     0.089 C 
ATOM      2  H   LYS d   1      26.544  15.685  77.484  0.00  0.00     0.087 H 
ENDROOT
BRANCH   1   3
ATOM      3  N   LYS d   1      25.566  15.762  79.318  0.00  0.00    -0.346 N 
ATOM      4  C   THR d   1      26.579  15.847  80.164  0.00  0.00     0.243 C 
ATOM      5  O   THR d   1      27.670  16.337  79.849  0.00  0.00    -0.271 OA
ATOM      6  H   LYS d   1      24.676  15.371  79.626  0.00  0.00     0.163 HD
BRANCH   4   7
ATOM      7  CA  THR d   1      26.362  15.274  81.555  0.00  0.00     0.113 C 
ATOM      8  H   THR d   1      25.856  14.310  81.501  0.00  0.00     0.091 H 
BRANCH   7   9
ATOM      9  N   THR d   1      27.674  15.083  82.165  0.00  0.00    -0.344 N 
ATOM     10  C   ARG d   1      28.079  13.873  82.545  0.00  0.00     0.241 C 
ATOM     11  O   ARG d   1      27.338  12.892  82.585  0.00  0.00    -0.271 OA
ATOM     12  H   THR d   1      28.288  15.886  82.302  0.00  0.00     0.163 HD
BRANCH  10  13
ATOM     13  CA  ARG d   1      29.528  13.730  82.944  0.00  0.00     0.089 C 
ATOM     14  H   ARG d   1      29.954  14.699  83.203  0.00  0.00     0.087 H 
BRANCH  13  15
ATOM     15  N   ARG d   1      29.641  12.868  84.112  0.00  0.00    -0.346 N 
ATOM     16  C   ALA d   1      29.328  13.314  85.320  0.00  0.00     0.248 C 
ATOM     17  O   ALA d   1      29.006  14.478  85.538  0.00  0.00    -0.271 OA
ATOM     18  H   ARG d   1      29.965  11.908  83.999  0.00  0.00     0.163 HD
BRANCH  16  19
ATOM     19  CA  ALA d   1      29.401  12.302  86.457  0.00  0.00     0.172 C 
ATOM     20  H   ALA d   1      30.231  11.625  86.256  0.00  0.00     0.098 H 
BRANCH  19  21
ATOM     21  N   ALA d   1      29.650  12.972  87.730  0.00  0.00    -0.067 N 
ATOM     22  H   ALA d   1      30.512  13.513  87.665  0.00  0.00     0.275 HD
ATOM     23  H   ALA d   1      28.871  13.595  87.943  0.00  0.00     0.275 HD
ATOM     24  H   ALA d   1      29.740  12.274  88.468  0.00  0.00     0.275 HD
ENDBRANCH  19  21
BRANCH  19  25
ATOM     25  CB  ALA d   1      28.107  11.480  86.531  0.00  0.00    -0.042 C 
ATOM     26  H   ALA d   1      27.263  12.148  86.705  0.00  0.00     0.030 H 
ATOM     27  H   ALA d   1      27.962  10.947  85.591  0.00  0.00     0.030 H 
ATOM     28  H   ALA d   1      28.180  10.763  87.349  0.00  0.00     0.030 H 
ENDBRANCH  19  25
ENDBRANCH  16  19
ENDBRANCH  13  15
BRANCH  13  29
ATOM     29  CB  ARG d   1      30.271  13.127  81.763  0.00  0.00    -0.036 C 
ATOM     30  H   ARG d   1      30.087  13.777  80.908  0.00  0.00     0.036 H 
ATOM     31  H   ARG d   1      29.907  12.106  81.647  0.00  0.00     0.036 H 
BRANCH  29  32
ATOM     32  CG  ARG d   1      31.757  13.042  81.934  0.00  0.00    -0.048 C 
ATOM     33  H   ARG d   1      32.000  12.318  82.712  0.00  0.00     0.035 H 
ATOM     34  H   ARG d   1      32.153  14.014  82.227  0.00  0.00     0.035 H 
BRANCH  32  35
ATOM     35  CD  ARG d   1      32.374  12.610  80.616  0.00  0.00     0.009 C 
ATOM     36  H   ARG d   1      33.457  12.703  80.698  0.00  0.00     0.064 H 
ATOM     37  H   ARG d   1      31.972  13.243  79.825  0.00  0.00     0.064 H 
BRANCH  35  38
ATOM     38  NE  ARG d   1      32.055  11.220  80.298  0.00  0.00    -0.227 N 
ATOM     39  CZ  ARG d   1      31.632  10.813  79.109  0.00  0.00     0.665 C 
ATOM     40  NH1 ARG d   1      31.466  11.695  78.135  0.00  0.00    -0.235 N 
ATOM     41  NH2 ARG d   1      31.365   9.530  78.900  0.00  0.00    -0.235 N 
ATOM     42  H   ARG d   1      31.663  12.682  78.302  0.00  0.00     0.174 HD
ATOM     43  H   ARG d   1      31.141  11.387  77.218  0.00  0.00     0.174 HD
ATOM     44  H   ARG d   1      31.485   8.854  79.655  0.00  0.00     0.174 HD
ATOM     45  H   ARG d   1      31.040   9.219  77.984  0.00  0.00     0.174 HD
ATOM     46  H   ARG d   1      32.164  10.522  81.034  0.00  0.00     0.177 HD
ENDBRANCH  35  38
ENDBRANCH  32  35
ENDBRANCH  29  32
ENDBRANCH  13  29
ENDBRANCH  10  13
ENDBRANCH   7   9
BRANCH   7  47
ATOM     47  CB  THR d   1      25.418  16.171  82.397  0.00  0.00     0.060 C 
ATOM     48  H   THR d   1      24.542  16.407  81.793  0.00  0.00     0.086 H 
BRANCH  47  49
ATOM     49  OG1 THR d   1      26.090  17.385  82.767  0.00  0.00    -0.393 OA
ATOM     50  H   THR d   1      26.352  17.859  81.974  0.00  0.00     0.210 HD
ENDBRANCH  47  49
BRANCH  47  51
ATOM     51  CG2 THR d   1      24.978  15.438  83.664  0.00  0.00    -0.050 C 
ATOM     52  H   THR d   1      24.450  14.525  83.389  0.00  0.00     0.031 H 
ATOM     53  H   THR d   1      25.855  15.187  84.260  0.00  0.00     0.031 H 
ATOM     54  H   THR d   1      24.316  16.082  84.243  0.00  0.00     0.031 H 
ENDBRANCH  47  51
ENDBRANCH   7  47
ENDBRANCH   4   7
ENDBRANCH   1   3
BRANCH   1  55
ATOM     55  C   LYS d   1      26.063  17.716  77.931  0.00  0.00     0.241 C 
ATOM     56  O   LYS d   1      26.765  18.198  77.038  0.00  0.00    -0.271 OA
ATOM     57  N   GLN d   1      25.581  18.427  78.943  0.00  0.00    -0.346 N 
ATOM     58  H   GLN d   1      24.993  17.957  79.631  0.00  0.00     0.163 HD
BRANCH  57  59
ATOM     59  CA  GLN d   1      25.853  19.849  79.118  0.00  0.00     0.090 C 
ATOM     60  H   GLN d   1      26.788  20.102  78.618  0.00  0.00     0.087 H 
BRANCH  59  61
ATOM     61  C   GLN d   1      25.973  20.161  80.606  0.00  0.00     0.241 C 
ATOM     62  O   GLN d   1      25.345  19.502  81.438  0.00  0.00    -0.271 OA
ATOM     63  N   THR d   1      26.786  21.154  80.958  0.00  0.00    -0.344 N 
ATOM     64  H   THR d   1      27.291  21.676  80.241  0.00  0.00     0.163 HD
BRANCH  63  65
ATOM     65  CA  THR d   1      26.958  21.498  82.361  0.00  0.00     0.113 C 
ATOM     66  H   THR d   1      26.214  20.938  82.928  0.00  0.00     0.091 H 
BRANCH  65  67
ATOM     67  C   THR d   1      26.706  22.987  82.604  0.00  0.00     0.243 C 
ATOM     68  O   THR d   1      26.844  23.806  81.688  0.00  0.00    -0.271 OA
ATOM     69  N   ALA d   1      26.321  23.326  83.834  0.00  0.00    -0.346 N 
ATOM     70  H   ALA d   1      26.203  22.597  84.537  0.00  0.00     0.163 HD
BRANCH  69  71
ATOM     71  CA  ALA d   1      26.064  24.718  84.200  0.00  0.00     0.086 C 
ATOM     72  H   ALA d   1      25.263  25.102  83.568  0.00  0.00     0.086 H 
BRANCH  71  73
ATOM     73  C   ALA d   1      27.314  25.555  83.969  0.00  0.00     0.240 C 
ATOM     74  O   ALA d   1      27.268  26.585  83.286  0.00  0.00    -0.271 OA
ATOM     75  N   ARG d   1      28.435  25.108  84.531  0.00  0.00    -0.345 N 
ATOM     76  H   ARG d   1      28.407  24.280  85.126  0.00  0.00     0.163 HD
BRANCH  75  77
ATOM     77  CA  ARG d   1      29.703  25.792  84.303  0.00  0.00     0.096 C 
ATOM     78  H   ARG d   1      29.585  26.824  84.634  0.00  0.00     0.089 H 
BRANCH  77  79
ATOM     79  C   ARG d   1      30.054  25.780  82.816  0.00  0.00     0.196 C 
ATOM     80  O   ARG d   1      30.754  26.669  82.325  0.00  0.00    -0.646 OA
ATOM     81  O   ARG d   1      29.623  24.851  82.082  0.00  0.00    -0.646 OA
ENDBRANCH  77  79
BRANCH  77  82
ATOM     82  CB  ARG d   1      30.841  25.163  85.122  0.00  0.00    -0.035 C 
ATOM     83  H   ARG d   1      31.095  24.206  84.667  0.00  0.00     0.036 H 
ATOM     84  H   ARG d   1      30.497  25.055  86.151  0.00  0.00     0.036 H 
BRANCH  82  85
ATOM     85  CG  ARG d   1      32.097  26.030  85.132  0.00  0.00    -0.047 C 
ATOM     86  H   ARG d   1      31.873  26.918  85.723  0.00  0.00     0.035 H 
ATOM     87  H   ARG d   1      32.352  26.244  84.094  0.00  0.00     0.035 H 
BRANCH  85  88
ATOM     88  CD  ARG d   1      33.311  25.353  85.769  0.00  0.00     0.009 C 
ATOM     89  H   ARG d   1      34.205  25.857  85.401  0.00  0.00     0.064 H 
ATOM     90  H   ARG d   1      33.281  24.296  85.503  0.00  0.00     0.064 H 
BRANCH  88  91
ATOM     91  NE  ARG d   1      33.314  25.446  87.223  0.00  0.00    -0.227 N 
ATOM     92  CZ  ARG d   1      34.356  25.827  87.956  0.00  0.00     0.665 C 
ATOM     93  NH1 ARG d   1      35.500  26.179  87.381  0.00  0.00    -0.235 N 
ATOM     94  NH2 ARG d   1      34.248  25.866  89.276  0.00  0.00    -0.235 N 
ATOM     95  H   ARG d   1      35.587  26.159  86.365  0.00  0.00     0.174 HD
ATOM     96  H   ARG d   1      36.291  26.469  87.955  0.00  0.00     0.174 HD
ATOM     97  H   ARG d   1      33.370  25.605  89.724  0.00  0.00     0.174 HD
ATOM     98  H   ARG d   1      35.043  26.157  89.844  0.00  0.00     0.174 HD
ATOM     99  H   ARG d   1      32.454  25.201  87.714  0.00  0.00     0.177 HD
ENDBRANCH  88  91
ENDBRANCH  85  88
ENDBRANCH  82  85
ENDBRANCH  77  82
ENDBRANCH  75  77
ENDBRANCH  71  73
BRANCH  71 100
ATOM    100  CB  ALA d   1      25.605  24.822  85.653  0.00  0.00    -0.049 C 
ATOM    101  H   ALA d   1      24.687  24.249  85.785  0.00  0.00     0.030 H 
ATOM    102  H   ALA d   1      26.381  24.424  86.307  0.00  0.00     0.030 H 
ATOM    103  H   ALA d   1      25.421  25.867  85.900  0.00  0.00     0.030 H 
ENDBRANCH  71 100
ENDBRANCH  69  71
ENDBRANCH  65  67
BRANCH  65 104
ATOM    104  CB  THR d   1      28.359  21.080  82.876  0.00  0.00     0.060 C 
ATOM    105  H   THR d   1      28.815  20.422  82.136  0.00  0.00     0.086 H 
BRANCH 104 106
ATOM    106  OG1 THR d   1      28.230  20.377  84.122  0.00  0.00    -0.393 OA
ATOM    107  H   THR d   1      29.101  20.121  84.435  0.00  0.00     0.210 HD
ENDBRANCH 104 106
BRANCH 104 108
ATOM    108  CG2 THR d   1      29.267  22.299  83.050  0.00  0.00    -0.050 C 
ATOM    109  H   THR d   1      29.383  22.804  82.091  0.00  0.00     0.031 H 
ATOM    110  H   THR d   1      28.820  22.984  83.770  0.00  0.00     0.031 H 
ATOM    111  H   THR d   1      30.243  21.975  83.412  0.00  0.00     0.031 H 
ENDBRANCH 104 108
ENDBRANCH  65 104
ENDBRANCH  63  65
ENDBRANCH  59  61
BRANCH  59 112
ATOM    112  CB  GLN d   1      24.725  20.678  78.501  0.00  0.00    -0.030 C 
ATOM    113  H   GLN d   1      23.799  20.128  78.667  0.00  0.00     0.037 H 
ATOM    114  H   GLN d   1      24.980  20.831  77.452  0.00  0.00     0.037 H 
BRANCH 112 115
ATOM    115  CG  GLN d   1      24.541  22.055  79.119  0.00  0.00     0.011 C 
ATOM    116  H   GLN d   1      25.339  22.702  78.755  0.00  0.00     0.047 H 
ATOM    117  H   GLN d   1      24.566  21.949  80.204  0.00  0.00     0.047 H 
BRANCH 115 118
ATOM    118  CD  GLN d   1      23.210  22.677  78.732  0.00  0.00     0.215 C 
ATOM    119  OE1 GLN d   1      22.320  22.862  79.573  0.00  0.00    -0.274 OA
ATOM    120  NE2 GLN d   1      23.059  22.986  77.448  0.00  0.00    -0.370 N 
ATOM    121  H   GLN d   1      22.183  23.393  77.121  0.00  0.00     0.159 HD
ATOM    122  H   GLN d   1      23.819  22.816  76.790  0.00  0.00     0.159 HD
ENDBRANCH 115 118
ENDBRANCH 112 115
ENDBRANCH  59 112
ENDBRANCH  57  59
ENDBRANCH   1  55
BRANCH   1 123
ATOM    123  CB  LYS d   1      24.460  15.934  77.145  0.00  0.00    -0.038 C 
ATOM    124  H   LYS d   1      23.625  16.412  77.658  0.00  0.00     0.036 H 
ATOM    125  H   LYS d   1      24.360  14.851  77.071  0.00  0.00     0.036 H 
BRANCH 123 126
ATOM    126  CG  LYS d   1      24.505  16.483  75.740  0.00  0.00    -0.061 C 
ATOM    127  H   LYS d   1      25.516  16.378  75.345  0.00  0.00     0.033 H 
ATOM    128  H   LYS d   1      24.220  17.535  75.756  0.00  0.00     0.033 H 
BRANCH 126 129
ATOM    129  CD  LYS d   1      23.553  15.727  74.866  0.00  0.00    -0.043 C 
ATOM    130  H   LYS d   1      23.439  16.267  73.926  0.00  0.00     0.035 H 
ATOM    131  H   LYS d   1      22.599  15.637  75.386  0.00  0.00     0.035 H 
BRANCH 129 132
ATOM    132  CE  LYS d   1      24.074  14.334  74.564  0.00  0.00     0.080 C 
ATOM    133  H   LYS d   1      24.189  13.767  75.488  0.00  0.00     0.075 H 
ATOM    134  H   LYS d   1      25.049  14.394  74.081  0.00  0.00     0.075 H 
BRANCH 132 135
ATOM    135  NZ  LYS d   1      23.094  13.659  73.664  0.00  0.00    -0.079 N 
ATOM    136  H   LYS d   1      23.425  12.719  73.447  0.00  0.00     0.274 HD
ATOM    137  H   LYS d   1      22.189  13.603  74.130  0.00  0.00     0.274 HD
ATOM    138  H   LYS d   1      23.001  14.195  72.801  0.00  0.00     0.274 HD
ENDBRANCH 132 135
ENDBRANCH 129 132
ENDBRANCH 126 129
ENDBRANCH 123 126
ENDBRANCH   1 123
TORSDOF 40
