REMARK  28 active torsions:
REMARK  status: ('A' for Active; 'I' for Inactive)
REMARK    1  A    between atoms: N_1  and  CA_2 
REMARK    2  A    between atoms: CA_2  and  C_3 
REMARK    3  A    between atoms: CA_2  and  CB_5 
REMARK       I    between atoms: C_3  and  N_9 
REMARK    4  A    between atoms: CB_5  and  CG_6 
REMARK    5  A    between atoms: CG_6  and  CD1_7 
REMARK    6  A    between atoms: CG_6  and  CD2_8 
REMARK    7  A    between atoms: CA_10  and  C_11 
REMARK       I    between atoms: C_11  and  N_16 
REMARK    8  A    between atoms: N_16  and  CA_17 
REMARK    9  A    between atoms: CA_17  and  C_18 
REMARK   10  A    between atoms: CA_17  and  CB_20 
REMARK       I    between atoms: C_18  and  N_24 
REMARK   11  A    between atoms: CB_20  and  CG_21 
REMARK       I    between atoms: CG_21  and  ND2_23 
REMARK   12  A    between atoms: N_24  and  CA_25 
REMARK   13  A    between atoms: CA_25  and  C_26 
REMARK   14  A    between atoms: CA_25  and  CB_28 
REMARK       I    between atoms: C_26  and  N_29 
REMARK   15  A    between atoms: N_29  and  CA_30 
REMARK   16  A    between atoms: CA_30  and  C_31 
REMARK   17  A    between atoms: CA_30  and  CB_33 
REMARK       I    between atoms: C_31  and  N_37 
REMARK   18  A    between atoms: CB_33  and  CG1_34 
REMARK   19  A    between atoms: CB_33  and  CG2_35 
REMARK   20  A    between atoms: CG1_34  and  CD1_36 
REMARK   21  A    between atoms: N_37  and  CA_38 
REMARK   22  A    between atoms: CA_38  and  C_39 
REMARK       I    between atoms: C_39  and  N_41 
REMARK   23  A    between atoms: N_41  and  CA_42 
REMARK   24  A    between atoms: CA_42  and  C_43 
REMARK   25  A    between atoms: CA_42  and  CB_45 
REMARK   26  A    between atoms: CB_45  and  CG_46 
REMARK   27  A    between atoms: CG_46  and  CD_47 
REMARK   28  A    between atoms: CD_47  and  NE_48 
REMARK       I    between atoms: NE_48  and  CZ_49 
REMARK       I    between atoms: CZ_49  and  NH1_50 
ROOT
ATOM      1  CA  ALA d   1     -14.883  11.030  -6.082  0.00  0.00     0.086 C 
ATOM      2  H28 ALA d   1     -14.007  10.779  -6.698  0.00  0.00     0.086 H 
ENDROOT
BRANCH   1   3
ATOM      3  N   ALA d   1     -15.707  12.000  -6.817  0.00  0.00    -0.346 N 
ATOM      4  C   ASN d   1     -16.029  11.747  -8.085  0.00  0.00     0.241 C 
ATOM      5  O   ASN d   1     -15.542  10.793  -8.686  0.00  0.00    -0.271 OA
ATOM      6  H27 ALA d   1     -16.022  12.838  -6.372  0.00  0.00     0.163 HD
BRANCH   4   7
ATOM      7  CA  ASN d   1     -16.915  12.737  -8.827  0.00  0.00     0.097 C 
ATOM      8  H22 ASN d   1     -17.758  12.173  -9.253  0.00  0.00     0.088 H 
BRANCH   7   9
ATOM      9  N   ASN d   1     -17.516  13.789  -7.949  0.00  0.00    -0.346 N 
ATOM     10  C   PRO d   1     -16.879  14.825  -7.405  0.00  0.00     0.241 C 
ATOM     11  O   PRO d   1     -15.637  15.060  -7.573  0.00  0.00    -0.271 OA
ATOM     12  H21 ASN d   1     -18.493  13.706  -7.751  0.00  0.00     0.163 HD
BRANCH  10  13
ATOM     13  CA  PRO d   1     -17.801  15.715  -6.526  0.00  0.00     0.091 C 
ATOM     14  N   PRO d   1     -17.113  16.016  -5.269  0.00  0.00    -0.337 N 
ATOM     15  C   LEU d   1     -16.710  14.913  -4.596  0.00  0.00     0.251 C 
ATOM     16  CD  PRO d   1     -17.115  17.468  -4.998  0.00  0.00    -0.001 C 
ATOM     17  O   LEU d   1     -17.024  13.793  -4.951  0.00  0.00    -0.271 OA
ATOM     18  CG  PRO d   1     -18.119  18.007  -6.003  0.00  0.00    -0.048 C 
ATOM     19  H19 PRO d   1     -16.118  17.902  -5.165  0.00  0.00     0.064 H 
ATOM     20  H20 PRO d   1     -17.438  17.677  -3.967  0.00  0.00     0.064 H 
ATOM     21  CB  PRO d   1     -17.985  17.098  -7.177  0.00  0.00    -0.036 C 
ATOM     22  H17 PRO d   1     -19.139  17.968  -5.594  0.00  0.00     0.035 H 
ATOM     23  H18 PRO d   1     -17.875  19.043  -6.282  0.00  0.00     0.035 H 
ATOM     24  H15 PRO d   1     -18.890  17.123  -7.802  0.00  0.00     0.036 H 
ATOM     25  H16 PRO d   1     -17.110  17.367  -7.787  0.00  0.00     0.036 H 
ATOM     26  H14 PRO d   1     -18.767  15.217  -6.355  0.00  0.00     0.087 H 
BRANCH  15  27
ATOM     27  CA  LEU d   1     -15.863  15.072  -3.322  0.00  0.00     0.176 C 
ATOM     28  H4  LEU d   1     -15.227  14.178  -3.239  0.00  0.00     0.099 H 
BRANCH  27  29
ATOM     29  N   LEU d   1     -14.976  16.217  -3.387  0.00  0.00    -0.066 N 
ATOM     30  H1  LEU d   1     -14.444  16.279  -2.533  0.00  0.00     0.275 HD
ATOM     31  H2  LEU d   1     -15.520  17.057  -3.506  0.00  0.00     0.275 HD
ATOM     32  H3  LEU d   1     -14.347  16.111  -4.168  0.00  0.00     0.275 HD
ENDBRANCH  27  29
BRANCH  27  33
ATOM     33  CB  LEU d   1     -16.769  15.107  -2.077  0.00  0.00    -0.028 C 
ATOM     34  H5  LEU d   1     -17.654  15.717  -2.308  0.00  0.00     0.037 H 
ATOM     35  H6  LEU d   1     -16.209  15.572  -1.252  0.00  0.00     0.037 H 
BRANCH  33  36
ATOM     36  CG  LEU d   1     -17.244  13.712  -1.619  0.00  0.00    -0.059 C 
ATOM     37  H7  LEU d   1     -17.724  13.225  -2.480  0.00  0.00     0.038 H 
BRANCH  36  38
ATOM     38  CD1 LEU d   1     -16.044  12.853  -1.194  0.00  0.00    -0.073 C 
ATOM     39  H8  LEU d   1     -16.398  11.863  -0.871  0.00  0.00     0.028 H 
ATOM     40  H9  LEU d   1     -15.518  13.344  -0.362  0.00  0.00     0.028 H 
ATOM     41  H10 LEU d   1     -15.357  12.737  -2.045  0.00  0.00     0.028 H 
ENDBRANCH  36  38
BRANCH  36  42
ATOM     42  CD2 LEU d   1     -18.283  13.780  -0.484  0.00  0.00    -0.073 C 
ATOM     43  H11 LEU d   1     -19.135  14.398  -0.803  0.00  0.00     0.028 H 
ATOM     44  H12 LEU d   1     -17.821  14.226   0.409  0.00  0.00     0.028 H 
ATOM     45  H13 LEU d   1     -18.635  12.765  -0.247  0.00  0.00     0.028 H 
ENDBRANCH  36  42
ENDBRANCH  33  36
ENDBRANCH  27  33
ENDBRANCH  15  27
ENDBRANCH  10  13
ENDBRANCH   7   9
BRANCH   7  46
ATOM     46  CB  ASN d   1     -16.092  13.301 -10.003  0.00  0.00     0.036 C 
ATOM     47  H23 ASN d   1     -15.078  13.538  -9.649  0.00  0.00     0.051 H 
ATOM     48  H24 ASN d   1     -16.576  14.218 -10.371  0.00  0.00     0.051 H 
BRANCH  46  49
ATOM     49  CG  ASN d   1     -15.996  12.309 -11.136  0.00  0.00     0.217 C 
ATOM     50  OD1 ASN d   1     -16.971  11.635 -11.473  0.00  0.00    -0.274 OA
ATOM     51  ND2 ASN d   1     -14.834  12.217 -11.765  0.00  0.00    -0.370 N 
ATOM     52  H25 ASN d   1     -14.725  11.573 -12.522  0.00  0.00     0.159 HD
ATOM     53  H26 ASN d   1     -14.066  12.792 -11.483  0.00  0.00     0.159 HD
ENDBRANCH  46  49
ENDBRANCH   7  46
ENDBRANCH   4   7
ENDBRANCH   1   3
BRANCH   1  54
ATOM     54  C   ALA d   1     -15.692   9.748  -5.838  0.00  0.00     0.240 C 
ATOM     55  O   ALA d   1     -16.917   9.792  -5.666  0.00  0.00    -0.271 OA
ATOM     56  N   ILE d   1     -14.994   8.622  -5.769  0.00  0.00    -0.346 N 
ATOM     57  H32 ILE d   1     -14.011   8.630  -5.954  0.00  0.00     0.163 HD
BRANCH  56  58
ATOM     58  CA  ILE d   1     -15.665   7.366  -5.422  0.00  0.00     0.092 C 
ATOM     59  H33 ILE d   1     -16.635   7.324  -5.938  0.00  0.00     0.088 H 
BRANCH  58  60
ATOM     60  C   ILE d   1     -15.906   7.416  -3.906  0.00  0.00     0.241 C 
ATOM     61  O   ILE d   1     -14.945   7.549  -3.143  0.00  0.00    -0.271 OA
ATOM     62  N   GLY d   1     -17.181   7.372  -3.505  0.00  0.00    -0.351 N 
ATOM     63  H43 GLY d   1     -17.902   7.210  -4.178  0.00  0.00     0.163 HD
BRANCH  62  64
ATOM     64  CA  GLY d   1     -17.536   7.555  -2.113  0.00  0.00     0.069 C 
ATOM     65  H44 GLY d   1     -18.613   7.768  -2.051  0.00  0.00     0.078 H 
ATOM     66  H45 GLY d   1     -16.969   8.410  -1.716  0.00  0.00     0.078 H 
BRANCH  64  67
ATOM     67  C   GLY d   1     -17.237   6.348  -1.267  0.00  0.00     0.236 C 
ATOM     68  O   GLY d   1     -17.062   5.229  -1.775  0.00  0.00    -0.272 OA
ATOM     69  N   ARG d   1     -17.143   6.623   0.034  0.00  0.00    -0.345 N 
ATOM     70  H46 ARG d   1     -17.138   7.585   0.306  0.00  0.00     0.163 HD
BRANCH  69  71
ATOM     71  CA  ARG d   1     -17.047   5.625   1.083  0.00  0.00     0.096 C 
ATOM     72  H47 ARG d   1     -16.391   6.026   1.870  0.00  0.00     0.089 H 
BRANCH  71  73
ATOM     73  C   ARG d   1     -16.421   4.308   0.605  0.00  0.00     0.196 C 
ATOM     74  O   ARG d   1     -15.203   4.061   0.811  0.00  0.00    -0.646 OA
ATOM     75  O   ARG d   1     -17.134   3.464  -0.001  0.00  0.00    -0.646 OA
ENDBRANCH  71  73
BRANCH  71  76
ATOM     76  CB  ARG d   1     -18.443   5.428   1.688  0.00  0.00    -0.035 C 
ATOM     77  H48 ARG d   1     -19.172   5.930   1.035  0.00  0.00     0.036 H 
ATOM     78  H49 ARG d   1     -18.454   5.900   2.681  0.00  0.00     0.036 H 
BRANCH  76  79
ATOM     79  CG  ARG d   1     -18.867   4.000   1.847  0.00  0.00    -0.047 C 
ATOM     80  H50 ARG d   1     -18.564   3.437   0.952  0.00  0.00     0.035 H 
ATOM     81  H51 ARG d   1     -19.962   3.963   1.950  0.00  0.00     0.035 H 
BRANCH  79  82
ATOM     82  CD  ARG d   1     -18.234   3.355   3.074  0.00  0.00     0.009 C 
ATOM     83  H52 ARG d   1     -18.674   3.794   3.982  0.00  0.00     0.064 H 
ATOM     84  H53 ARG d   1     -17.150   3.542   3.064  0.00  0.00     0.064 H 
BRANCH  82  85
ATOM     85  NE  ARG d   1     -18.474   1.912   3.071  0.00  0.00    -0.227 N 
ATOM     86  CZ  ARG d   1     -19.679   1.345   3.106  0.00  0.00     0.665 C 
ATOM     87  NH1 ARG d   1     -20.781   2.087   3.179  0.00  0.00    -0.235 N 
ATOM     88  NH2 ARG d   1     -19.782   0.027   3.077  0.00  0.00    -0.235 N 
ATOM     89  H55 ARG d   1     -21.706   1.634   3.205  0.00  0.00     0.174 HD
ATOM     90  H56 ARG d   1     -20.709   3.114   3.209  0.00  0.00     0.174 HD
ATOM     91  H57 ARG d   1     -18.934  -0.555   3.021  0.00  0.00     0.174 HD
ATOM     92  H58 ARG d   1     -20.710  -0.418   3.111  0.00  0.00     0.174 HD
ATOM     93  H54 ARG d   1     -17.653   1.290   3.040  0.00  0.00     0.177 HD
ENDBRANCH  82  85
ENDBRANCH  79  82
ENDBRANCH  76  79
ENDBRANCH  71  76
ENDBRANCH  69  71
ENDBRANCH  64  67
ENDBRANCH  62  64
ENDBRANCH  58  60
BRANCH  58  94
ATOM     94  CB  ILE d   1     -14.876   6.158  -5.833  0.00  0.00    -0.030 C 
ATOM     95  H34 ILE d   1     -13.831   6.279  -5.512  0.00  0.00     0.043 H 
BRANCH  94  96
ATOM     96  CG1 ILE d   1     -14.944   6.031  -7.369  0.00  0.00    -0.063 C 
ATOM     97  H35 ILE d   1     -14.691   7.006  -7.812  0.00  0.00     0.033 H 
ATOM     98  H36 ILE d   1     -15.970   5.755  -7.652  0.00  0.00     0.033 H 
BRANCH  96  99
ATOM     99  CD1 ILE d   1     -14.009   5.005  -7.916  0.00  0.00    -0.076 C 
ATOM    100  H40 ILE d   1     -14.108   4.966  -9.011  0.00  0.00     0.027 H 
ATOM    101  H41 ILE d   1     -14.255   4.021  -7.490  0.00  0.00     0.027 H 
ATOM    102  H42 ILE d   1     -12.976   5.272  -7.650  0.00  0.00     0.027 H 
ENDBRANCH  96  99
ENDBRANCH  94  96
BRANCH  94 103
ATOM    103  CG2 ILE d   1     -15.455   4.872  -5.214  0.00  0.00    -0.071 C 
ATOM    104  H37 ILE d   1     -15.415   4.943  -4.117  0.00  0.00     0.028 H 
ATOM    105  H38 ILE d   1     -14.864   4.006  -5.547  0.00  0.00     0.028 H 
ATOM    106  H39 ILE d   1     -16.500   4.748  -5.536  0.00  0.00     0.028 H 
ENDBRANCH  94 103
ENDBRANCH  58  94
ENDBRANCH  56  58
ENDBRANCH   1  54
BRANCH   1 107
ATOM    107  CB  ALA d   1     -14.382  11.624  -4.749  0.00  0.00    -0.049 C 
ATOM    108  H29 ALA d   1     -13.770  10.877  -4.222  0.00  0.00     0.030 H 
ATOM    109  H30 ALA d   1     -15.244  11.899  -4.123  0.00  0.00     0.030 H 
ATOM    110  H31 ALA d   1     -13.775  12.519  -4.951  0.00  0.00     0.030 H 
ENDBRANCH   1 107
TORSDOF 28
