REMARK WARNING: 32 MAX_TORS EXCEEDED!!!
REMARK  34 active torsions:
REMARK  status: ('A' for Active; 'I' for Inactive)
REMARK    1  A    between atoms: N_1  and  CA_2 
REMARK    2  A    between atoms: CA_2  and  C_3 
REMARK    3  A    between atoms: CA_2  and  CB_5 
REMARK       I    between atoms: C_3  and  N_6 
REMARK    4  A    between atoms: N_6  and  CA_7 
REMARK    5  A    between atoms: CA_7  and  C_8 
REMARK    6  A    between atoms: CA_7  and  CB_10 
REMARK       I    between atoms: C_8  and  N_17 
REMARK    7  A    between atoms: CB_10  and  CG_11 
REMARK    8  A    between atoms: CG_11  and  CD_12 
REMARK    9  A    between atoms: CD_12  and  NE_13 
REMARK       I    between atoms: NE_13  and  CZ_14 
REMARK       I    between atoms: CZ_14  and  NH1_15 
REMARK   10  A    between atoms: N_17  and  CA_18 
REMARK   11  A    between atoms: CA_18  and  C_19 
REMARK   12  A    between atoms: CA_18  and  CB_21 
REMARK       I    between atoms: C_19  and  N_24 
REMARK   13  A    between atoms: CB_21  and  OG1_22 
REMARK   14  A    between atoms: CB_21  and  CG2_23 
REMARK   15  A    between atoms: N_24  and  CA_25 
REMARK   16  A    between atoms: CA_25  and  CB_26 
REMARK   17  A    between atoms: CA_25  and  C_31 
REMARK   18  A    between atoms: CB_26  and  CG_27 
REMARK   19  A    between atoms: CG_27  and  CD_28 
REMARK   20  A    between atoms: CD_28  and  CE_29 
REMARK   21  A    between atoms: CE_29  and  NZ_30 
REMARK   22  A    between atoms: NZ_30  and  CM1_33 
REMARK   23  A    between atoms: NZ_30  and  CM2_34 
REMARK   24  A    between atoms: NZ_30  and  CM3_35 
REMARK       I    between atoms: C_31  and  N_36 
REMARK   25  A    between atoms: N_36  and  CA_37 
REMARK   26  A    between atoms: CA_37  and  C_38 
REMARK   27  A    between atoms: CA_37  and  CB_40 
REMARK       I    between atoms: C_38  and  N_45 
REMARK   28  A    between atoms: CB_40  and  CG_41 
REMARK   29  A    between atoms: CG_41  and  CD_42 
REMARK       I    between atoms: CD_42  and  NE2_44 
REMARK   30  A    between atoms: N_45  and  CA_46 
REMARK   31  A    between atoms: CA_46  and  C_47 
REMARK   32  A    between atoms: CA_46  and  CB_49 
REMARK   33  A    between atoms: CB_49  and  OG1_50 
REMARK   34  A    between atoms: CB_49  and  CG2_51 
ROOT
ATOM      1  CA  M3L d   1     -16.063  16.965  14.411  0.00  0.00     0.089 C 
ATOM      2  H   M3L d   1     -15.433  16.212  14.884  0.00  0.00     0.087 H 
ENDROOT
BRANCH   1   3
ATOM      3  N   M3L d   1     -15.665  16.977  13.015  0.00  0.00    -0.346 N 
ATOM      4  C   THR d   1     -15.759  15.891  12.255  0.00  0.00     0.243 C 
ATOM      5  O   THR d   1     -16.105  14.791  12.696  0.00  0.00    -0.271 OA
ATOM      6  H   M3L d   1     -15.305  17.840  12.608  0.00  0.00     0.163 HD
BRANCH   4   7
ATOM      7  CA  THR d   1     -15.387  16.071  10.779  0.00  0.00     0.113 C 
ATOM      8  H   THR d   1     -14.423  16.574  10.711  0.00  0.00     0.091 H 
BRANCH   7   9
ATOM      9  N   THR d   1     -15.235  14.788  10.109  0.00  0.00    -0.344 N 
ATOM     10  C   ARG d   1     -14.036  14.318   9.792  0.00  0.00     0.241 C 
ATOM     11  O   ARG d   1     -13.003  14.981   9.925  0.00  0.00    -0.271 OA
ATOM     12  H   THR d   1     -16.065  14.241   9.879  0.00  0.00     0.163 HD
BRANCH  10  13
ATOM     13  CA  ARG d   1     -13.995  12.900   9.218  0.00  0.00     0.089 C 
ATOM     14  H   ARG d   1     -15.020  12.592   9.012  0.00  0.00     0.087 H 
BRANCH  13  15
ATOM     15  N   ARG d   1     -13.212  12.877   7.988  0.00  0.00    -0.346 N 
ATOM     16  C   ALA d   1     -13.704  13.260   6.818  0.00  0.00     0.248 C 
ATOM     17  O   ALA d   1     -14.839  13.719   6.679  0.00  0.00    -0.271 OA
ATOM     18  H   ARG d   1     -12.246  12.553   8.030  0.00  0.00     0.163 HD
BRANCH  16  19
ATOM     19  CA  ALA d   1     -12.757  13.104   5.634  0.00  0.00     0.172 C 
ATOM     20  H   ALA d   1     -12.249  12.148   5.758  0.00  0.00     0.098 H 
BRANCH  19  21
ATOM     21  N   ALA d   1     -13.456  13.036   4.348  0.00  0.00    -0.067 N 
ATOM     22  H   ALA d   1     -14.141  12.280   4.374  0.00  0.00     0.275 HD
ATOM     23  H   ALA d   1     -13.931  13.921   4.174  0.00  0.00     0.275 HD
ATOM     24  H   ALA d   1     -12.781  12.859   3.604  0.00  0.00     0.275 HD
ENDBRANCH  19  21
BRANCH  19  25
ATOM     25  CB  ALA d   1     -11.725  14.223   5.632  0.00  0.00    -0.042 C 
ATOM     26  H   ALA d   1     -12.233  15.184   5.558  0.00  0.00     0.030 H 
ATOM     27  H   ALA d   1     -11.149  14.186   6.557  0.00  0.00     0.030 H 
ATOM     28  H   ALA d   1     -11.056  14.097   4.780  0.00  0.00     0.030 H 
ENDBRANCH  19  25
ENDBRANCH  16  19
ENDBRANCH  13  15
BRANCH  13  29
ATOM     29  CB  ARG d   1     -13.364  11.931  10.218  0.00  0.00    -0.036 C 
ATOM     30  H   ARG d   1     -12.468  12.426  10.592  0.00  0.00     0.036 H 
ATOM     31  H   ARG d   1     -13.216  10.996   9.678  0.00  0.00     0.036 H 
BRANCH  29  32
ATOM     32  CG  ARG d   1     -14.192  11.581  11.444  0.00  0.00    -0.048 C 
ATOM     33  H   ARG d   1     -15.165  11.194  11.142  0.00  0.00     0.035 H 
ATOM     34  H   ARG d   1     -14.355  12.470  12.053  0.00  0.00     0.035 H 
BRANCH  32  35
ATOM     35  CD  ARG d   1     -13.433  10.529  12.242  0.00  0.00     0.009 C 
ATOM     36  H   ARG d   1     -13.766   9.534  11.946  0.00  0.00     0.064 H 
ATOM     37  H   ARG d   1     -13.624  10.669  13.306  0.00  0.00     0.064 H 
BRANCH  35  38
ATOM     38  NE  ARG d   1     -11.999  10.666  11.978  0.00  0.00    -0.227 N 
ATOM     39  CZ  ARG d   1     -11.073  10.851  12.914  0.00  0.00     0.665 C 
ATOM     40  NH1 ARG d   1     -11.421  10.899  14.195  0.00  0.00    -0.235 N 
ATOM     41  NH2 ARG d   1      -9.795  10.976  12.565  0.00  0.00    -0.235 N 
ATOM     42  H   ARG d   1     -12.400  10.794  14.462  0.00  0.00     0.174 HD
ATOM     43  H   ARG d   1     -10.709  11.041  14.912  0.00  0.00     0.174 HD
ATOM     44  H   ARG d   1      -9.528  10.930  11.582  0.00  0.00     0.174 HD
ATOM     45  H   ARG d   1      -9.082  11.118  13.281  0.00  0.00     0.174 HD
ATOM     46  H   ARG d   1     -11.689  10.616  11.008  0.00  0.00     0.177 HD
ENDBRANCH  35  38
ENDBRANCH  32  35
ENDBRANCH  29  32
ENDBRANCH  13  29
ENDBRANCH  10  13
ENDBRANCH   7   9
BRANCH   7  47
ATOM     47  CB  THR d   1     -16.451  16.929  10.103  0.00  0.00     0.060 C 
ATOM     48  H   THR d   1     -16.462  17.913  10.571  0.00  0.00     0.086 H 
BRANCH  47  49
ATOM     49  OG1 THR d   1     -17.727  16.300  10.254  0.00  0.00    -0.393 OA
ATOM     50  H   THR d   1     -18.400  16.837   9.829  0.00  0.00     0.210 HD
ENDBRANCH  47  49
BRANCH  47  51
ATOM     51  CG2 THR d   1     -16.137  17.101   8.606  0.00  0.00    -0.050 C 
ATOM     52  H   THR d   1     -15.167  17.585   8.493  0.00  0.00     0.031 H 
ATOM     53  H   THR d   1     -16.114  16.123   8.126  0.00  0.00     0.031 H 
ATOM     54  H   THR d   1     -16.908  17.716   8.143  0.00  0.00     0.031 H 
ENDBRANCH  47  51
ENDBRANCH   7  47
ENDBRANCH   4   7
ENDBRANCH   1   3
BRANCH   1  55
ATOM     55  CB  M3L d   1     -15.755  18.270  15.152  0.00  0.00    -0.038 C 
ATOM     56  H   M3L d   1     -16.387  19.030  14.693  0.00  0.00     0.036 H 
ATOM     57  H   M3L d   1     -14.677  18.411  15.072  0.00  0.00     0.036 H 
BRANCH  55  58
ATOM     58  CG  M3L d   1     -16.069  18.309  16.631  0.00  0.00    -0.061 C 
ATOM     59  H   M3L d   1     -17.125  18.052  16.713  0.00  0.00     0.033 H 
ATOM     60  H   M3L d   1     -15.764  19.299  16.970  0.00  0.00     0.033 H 
BRANCH  58  61
ATOM     61  CD  M3L d   1     -15.336  17.324  17.532  0.00  0.00    -0.042 C 
ATOM     62  H   M3L d   1     -14.294  17.331  17.211  0.00  0.00     0.035 H 
ATOM     63  H   M3L d   1     -15.859  16.372  17.435  0.00  0.00     0.035 H 
BRANCH  61  64
ATOM     64  CE  M3L d   1     -15.328  17.659  19.021  0.00  0.00     0.084 C 
ATOM     65  H   M3L d   1     -16.370  17.858  19.270  0.00  0.00     0.076 H 
ATOM     66  H   M3L d   1     -14.598  18.462  19.125  0.00  0.00     0.076 H 
BRANCH  64  67
ATOM     67  NZ  M3L d   1     -14.899  16.631  19.979  0.00  0.00    -0.079 N 
BRANCH  67  68
ATOM     68  CM1 M3L d   1     -13.540  16.224  19.654  0.00  0.00     0.067 C 
ATOM     69  H   M3L d   1     -13.515  15.820  18.642  0.00  0.00     0.068 H 
ATOM     70  H   M3L d   1     -12.878  17.088  19.718  0.00  0.00     0.068 H 
ATOM     71  H   M3L d   1     -13.212  15.461  20.360  0.00  0.00     0.068 H 
ENDBRANCH  67  68
BRANCH  67  72
ATOM     72  CM2 M3L d   1     -16.020  15.758  20.212  0.00  0.00     0.067 C 
ATOM     73  H   M3L d   1     -16.850  16.335  20.620  0.00  0.00     0.068 H 
ATOM     74  H   M3L d   1     -16.323  15.299  19.271  0.00  0.00     0.068 H 
ATOM     75  H   M3L d   1     -15.733  14.982  20.921  0.00  0.00     0.068 H 
ENDBRANCH  67  72
BRANCH  67  76
ATOM     76  CM3 M3L d   1     -14.705  17.202  21.314  0.00  0.00     0.067 C 
ATOM     77  H   M3L d   1     -13.941  17.978  21.268  0.00  0.00     0.068 H 
ATOM     78  H   M3L d   1     -15.643  17.634  21.663  0.00  0.00     0.068 H 
ATOM     79  H   M3L d   1     -14.388  16.417  22.001  0.00  0.00     0.068 H 
ENDBRANCH  67  76
ENDBRANCH  64  67
ENDBRANCH  61  64
ENDBRANCH  58  61
ENDBRANCH  55  58
ENDBRANCH   1  55
BRANCH   1  80
ATOM     80  C   M3L d   1     -17.488  16.520  14.597  0.00  0.00     0.241 C 
ATOM     81  O   M3L d   1     -17.801  15.777  15.519  0.00  0.00    -0.271 OA
ATOM     82  N   GLN d   1     -18.357  16.978  13.702  0.00  0.00    -0.346 N 
ATOM     83  H   GLN d   1     -18.026  17.587  12.954  0.00  0.00     0.163 HD
BRANCH  82  84
ATOM     84  CA  GLN d   1     -19.771  16.632  13.762  0.00  0.00     0.090 C 
ATOM     85  H   GLN d   1     -20.138  16.886  14.756  0.00  0.00     0.087 H 
BRANCH  84  86
ATOM     86  C   GLN d   1     -19.990  15.127  13.561  0.00  0.00     0.241 C 
ATOM     87  O   GLN d   1     -21.021  14.584  13.960  0.00  0.00    -0.271 OA
ATOM     88  N   THR d   1     -19.020  14.460  12.938  0.00  0.00    -0.343 N 
ATOM     89  H   THR d   1     -18.240  14.980  12.537  0.00  0.00     0.163 HD
BRANCH  88  90
ATOM     90  CA  THR d   1     -19.042  13.001  12.813  0.00  0.00     0.120 C 
ATOM     91  H   THR d   1     -19.959  12.663  13.295  0.00  0.00     0.093 H 
BRANCH  90  92
ATOM     92  C   THR d   1     -17.836  12.374  13.507  0.00  0.00     0.199 C 
ATOM     93  O   THR d   1     -17.841  12.165  14.718  0.00  0.00    -0.646 OA
ATOM     94  O   THR d   1     -16.820  12.066  12.828  0.00  0.00    -0.646 OA
ENDBRANCH  90  92
BRANCH  90  95
ATOM     95  CB  THR d   1     -19.065  12.547  11.337  0.00  0.00     0.061 C 
ATOM     96  H   THR d   1     -20.061  12.729  10.933  0.00  0.00     0.086 H 
BRANCH  95  97
ATOM     97  OG1 THR d   1     -18.741  11.151  11.263  0.00  0.00    -0.393 OA
ATOM     98  H   THR d   1     -17.866  11.007  11.630  0.00  0.00     0.210 HD
ENDBRANCH  95  97
BRANCH  95  99
ATOM     99  CG2 THR d   1     -18.047  13.320  10.532  0.00  0.00    -0.050 C 
ATOM    100  H   THR d   1     -18.279  14.384  10.580  0.00  0.00     0.031 H 
ATOM    101  H   THR d   1     -17.052  13.145  10.942  0.00  0.00     0.031 H 
ATOM    102  H   THR d   1     -18.077  12.987   9.495  0.00  0.00     0.031 H 
ENDBRANCH  95  99
ENDBRANCH  90  95
ENDBRANCH  88  90
ENDBRANCH  84  86
BRANCH  84 103
ATOM    103  CB  GLN d   1     -20.557  17.436  12.728  0.00  0.00    -0.030 C 
ATOM    104  H   GLN d   1     -20.290  17.058  11.741  0.00  0.00     0.037 H 
ATOM    105  H   GLN d   1     -20.305  18.488  12.864  0.00  0.00     0.037 H 
BRANCH 103 106
ATOM    106  CG  GLN d   1     -22.053  17.297  12.884  0.00  0.00     0.011 C 
ATOM    107  H   GLN d   1     -22.287  17.342  13.948  0.00  0.00     0.047 H 
ATOM    108  H   GLN d   1     -22.353  16.351  12.433  0.00  0.00     0.047 H 
BRANCH 106 109
ATOM    109  CD  GLN d   1     -22.807  18.404  12.192  0.00  0.00     0.215 C 
ATOM    110  OE1 GLN d   1     -23.174  18.285  11.021  0.00  0.00    -0.274 OA
ATOM    111  NE2 GLN d   1     -23.039  19.501  12.913  0.00  0.00    -0.370 N 
ATOM    112  H   GLN d   1     -23.540  20.287  12.499  0.00  0.00     0.159 HD
ATOM    113  H   GLN d   1     -22.716  19.554  13.879  0.00  0.00     0.159 HD
ENDBRANCH 106 109
ENDBRANCH 103 106
ENDBRANCH  84 103
ENDBRANCH  82  84
ENDBRANCH   1  80
TORSDOF 34
