REMARK  14 active torsions:
REMARK  status: ('A' for Active; 'I' for Inactive)
REMARK    1  A    between atoms: C3_3  and  C20_20 
REMARK    2  A    between atoms: C6_6  and  C9_9 
REMARK    3  A    between atoms: C6_6  and  C12_12 
REMARK    4  A    between atoms: C9_9  and  C10_10 
REMARK    5  A    between atoms: C10_10  and  C11_11 
REMARK    6  A    between atoms: C12_12  and  C13_13 
REMARK    7  A    between atoms: C13_13  and  C14_14 
REMARK    8  A    between atoms: C20_20  and  C21_21 
REMARK    9  A    between atoms: C20_20  and  C23_23 
REMARK   10  A    between atoms: C21_21  and  C22_22 
REMARK   11  A    between atoms: C27_27  and  N28_28 
REMARK   12  A    between atoms: N28_28  and  S30_30 
REMARK   13  A    between atoms: S30_30  and  C33_33 
REMARK   14  A    between atoms: C36_36  and  C39_39 
ROOT
ATOM      1  O1  TPV d   1      -7.745  16.040  -0.795  0.00  0.00    -0.310 OA
ATOM      2  C2  TPV d   1      -8.584  15.398   0.192  0.00  0.00     0.267 C 
ATOM      3  C3  TPV d   1      -9.625  16.194   0.824  0.00  0.00     0.074 C 
ATOM      4  C4  TPV d   1      -9.832  17.451   0.396  0.00  0.00     0.147 C 
ATOM      5  C5  TPV d   1      -8.855  18.148  -0.518  0.00  0.00     0.000 C 
ATOM      6  C6  TPV d   1      -8.215  17.183  -1.500  0.00  0.00     0.074 C 
ATOM      7  O7  TPV d   1      -8.401  14.218   0.483  0.00  0.00    -0.265 OA
ATOM      8  O8  TPV d   1     -10.852  18.166   0.821  0.00  0.00    -0.224 OA
ATOM      9  H1  TPV d   1      -8.908  16.571   1.568  0.00  0.00     0.061 H 
ATOM     10  H2  TPV d   1      -8.065  18.611   0.092  0.00  0.00     0.042 H 
ATOM     11  H3  TPV d   1      -9.389  18.928  -1.081  0.00  0.00     0.042 H 
ENDROOT
BRANCH   3  12
ATOM     12  C20 TPV d   1     -10.427  15.551   1.924  0.00  0.00    -0.014 C 
ATOM     13  H20 TPV d   1     -10.257  14.469   1.820  0.00  0.00     0.049 H 
BRANCH  12  14
ATOM     14  C21 TPV d   1     -11.931  15.758   1.769  0.00  0.00    -0.060 C 
ATOM     15  H21 TPV d   1     -12.146  16.836   1.795  0.00  0.00     0.033 H 
ATOM     16  H22 TPV d   1     -12.446  15.261   2.604  0.00  0.00     0.033 H 
BRANCH  14  17
ATOM     17  C22 TPV d   1     -12.450  15.186   0.462  0.00  0.00    -0.076 C 
ATOM     18  H23 TPV d   1     -13.534  15.357   0.392  0.00  0.00     0.027 H 
ATOM     19  H24 TPV d   1     -12.246  14.106   0.428  0.00  0.00     0.027 H 
ATOM     20  H25 TPV d   1     -11.946  15.681  -0.381  0.00  0.00     0.027 H 
ENDBRANCH  14  17
ENDBRANCH  12  14
BRANCH  12  21
ATOM     21  C23 TPV d   1      -9.965  15.906   3.294  0.00  0.00    -0.051 A 
ATOM     22  C24 TPV d   1      -9.146  17.003   3.517  0.00  0.00    -0.076 A 
ATOM     23  C25 TPV d   1      -8.686  17.270   4.802  0.00  0.00    -0.080 A 
ATOM     24  H26 TPV d   1      -8.866  17.649   2.693  0.00  0.00     0.084 H 
ATOM     25  C26 TPV d   1      -9.021  16.441   5.871  0.00  0.00    -0.057 A 
ATOM     26  H27 TPV d   1      -8.057  18.136   4.975  0.00  0.00     0.083 H 
ATOM     27  C27 TPV d   1      -9.860  15.346   5.674  0.00  0.00     0.043 A 
ATOM     28  H28 TPV d   1      -8.627  16.649   6.859  0.00  0.00     0.086 H 
ATOM     29  C29 TPV d   1     -10.251  15.055   4.366  0.00  0.00    -0.050 A 
ATOM     30  H30 TPV d   1     -10.795  14.137   4.175  0.00  0.00     0.087 H 
BRANCH  27  31
ATOM     31  N28 TPV d   1     -10.148  14.497   6.717  0.00  0.00    -0.279 N 
ATOM     32  H29 TPV d   1      -9.547  13.721   6.911  0.00  0.00     0.179 HD
BRANCH  31  33
ATOM     33  S30 TPV d   1     -11.457  14.753   7.629  0.00  0.00     0.280 S 
ATOM     34  O31 TPV d   1     -11.447  13.801   8.712  0.00  0.00    -0.199 OA
ATOM     35  O32 TPV d   1     -11.413  16.127   8.107  0.00  0.00    -0.199 OA
BRANCH  33  36
ATOM     36  C33 TPV d   1     -12.730  14.565   6.660  0.00  0.00     0.171 A 
ATOM     37  N34 TPV d   1     -13.394  15.657   6.190  0.00  0.00    -0.247 NA
ATOM     38  C35 TPV d   1     -14.340  15.515   5.235  0.00  0.00     0.018 A 
ATOM     39  C36 TPV d   1     -14.743  14.259   4.771  0.00  0.00     0.065 A 
ATOM     40  H31 TPV d   1     -14.800  16.402   4.816  0.00  0.00     0.116 H 
ATOM     41  C37 TPV d   1     -14.102  13.137   5.282  0.00  0.00    -0.064 A 
ATOM     42  C38 TPV d   1     -13.130  13.287   6.264  0.00  0.00    -0.041 A 
ATOM     43  H32 TPV d   1     -14.359  12.149   4.916  0.00  0.00     0.085 H 
ATOM     44  H33 TPV d   1     -12.683  12.412   6.722  0.00  0.00     0.088 H 
BRANCH  39  45
ATOM     45  C39 TPV d   1     -15.756  14.160   3.642  0.00  0.00     0.418 C 
ATOM     46  F40 TPV d   1     -16.667  15.108   3.730  0.00  0.00    -0.166 F 
ATOM     47  F41 TPV d   1     -16.357  12.980   3.633  0.00  0.00    -0.166 F 
ATOM     48  F42 TPV d   1     -15.160  14.295   2.467  0.00  0.00    -0.166 F 
ENDBRANCH  39  45
ENDBRANCH  33  36
ENDBRANCH  31  33
ENDBRANCH  27  31
ENDBRANCH  12  21
ENDBRANCH   3  12
BRANCH   6  49
ATOM     49  C9  TPV d   1      -9.252  16.747  -2.530  0.00  0.00    -0.036 C 
ATOM     50  H4  TPV d   1      -9.801  17.632  -2.883  0.00  0.00     0.037 H 
ATOM     51  H5  TPV d   1      -9.954  16.045  -2.057  0.00  0.00     0.037 H 
BRANCH  49  52
ATOM     52  C10 TPV d   1      -8.595  16.065  -3.718  0.00  0.00    -0.066 C 
ATOM     53  H6  TPV d   1      -8.926  15.017  -3.766  0.00  0.00     0.032 H 
ATOM     54  H7  TPV d   1      -7.502  16.099  -3.599  0.00  0.00     0.032 H 
BRANCH  52  55
ATOM     55  C11 TPV d   1      -8.982  16.772  -5.000  0.00  0.00    -0.076 C 
ATOM     56  H8  TPV d   1      -8.502  16.272  -5.854  0.00  0.00     0.027 H 
ATOM     57  H9  TPV d   1      -8.650  17.820  -4.955  0.00  0.00     0.027 H 
ATOM     58  H10 TPV d   1     -10.075  16.738  -5.122  0.00  0.00     0.027 H 
ENDBRANCH  52  55
ENDBRANCH  49  52
ENDBRANCH   6  49
BRANCH   6  59
ATOM     59  C12 TPV d   1      -7.016  17.868  -2.141  0.00  0.00    -0.032 C 
ATOM     60  H11 TPV d   1      -7.335  18.833  -2.562  0.00  0.00     0.037 H 
ATOM     61  H12 TPV d   1      -6.623  17.229  -2.945  0.00  0.00     0.037 H 
BRANCH  59  62
ATOM     62  C13 TPV d   1      -5.915  18.111  -1.113  0.00  0.00    -0.038 C 
ATOM     63  H13 TPV d   1      -5.551  17.146  -0.731  0.00  0.00     0.040 H 
ATOM     64  H14 TPV d   1      -6.316  18.707  -0.280  0.00  0.00     0.040 H 
BRANCH  62  65
ATOM     65  C14 TPV d   1      -4.767  18.862  -1.766  0.00  0.00    -0.058 A 
ATOM     66  C15 TPV d   1      -3.582  18.203  -2.086  0.00  0.00    -0.077 A 
ATOM     67  C16 TPV d   1      -2.547  18.877  -2.733  0.00  0.00    -0.082 A 
ATOM     68  H15 TPV d   1      -3.463  17.156  -1.830  0.00  0.00     0.084 H 
ATOM     69  C17 TPV d   1      -2.686  20.226  -3.035  0.00  0.00    -0.083 A 
ATOM     70  H16 TPV d   1      -1.638  18.351  -2.999  0.00  0.00     0.083 H 
ATOM     71  C18 TPV d   1      -3.868  20.890  -2.715  0.00  0.00    -0.082 A 
ATOM     72  H17 TPV d   1      -1.876  20.761  -3.519  0.00  0.00     0.083 H 
ATOM     73  C19 TPV d   1      -4.911  20.207  -2.100  0.00  0.00    -0.077 A 
ATOM     74  H18 TPV d   1      -3.975  21.944  -2.946  0.00  0.00     0.083 H 
ATOM     75  H19 TPV d   1      -5.839  20.722  -1.880  0.00  0.00     0.084 H 
ENDBRANCH  62  65
ENDBRANCH  59  62
ENDBRANCH   6  59
TORSDOF 14
