REMARK  8 active torsions:
REMARK  status: ('A' for Active; 'I' for Inactive)
REMARK    1  A    between atoms: N02_2  and  C07_7 
REMARK    2  A    between atoms: C08_8  and  N02_2 
REMARK    3  A    between atoms: C06_6  and  N03_3 
REMARK    4  A    between atoms: S26_26  and  N04_4 
REMARK    5  A    between atoms: C05_5  and  C09_9 
REMARK    6  A    between atoms: C09_9  and  C10_10 
REMARK    7  A    between atoms: C11_11  and  C21_21 
REMARK    8  A    between atoms: C18_18  and  S26_26 
ROOT
ATOM      1  N01 99Z d   1     -95.703  10.611 -50.395  0.00  0.00    -0.205 NA
ATOM      2  C05 99Z d   1     -94.141   8.976 -49.702  0.00  0.00     0.104 A 
ATOM      3  C06 99Z d   1     -94.599   9.757 -50.801  0.00  0.00     0.145 A 
ATOM      4  C07 99Z d   1     -95.980  10.420 -49.061  0.00  0.00     0.174 A 
ATOM      5  S25 99Z d   1     -94.984   9.305 -48.336  0.00  0.00    -0.044 SA
ENDROOT
BRANCH   4   6
ATOM      6  N02 99Z d   1     -97.026  11.169 -48.535  0.00  0.00    -0.335 N 
ATOM      7  H1  99Z d   1     -97.232  12.062 -49.006  0.00  0.00     0.168 HD
BRANCH   6   8
ATOM      8  C08 99Z d   1     -97.834  10.844 -47.432  0.00  0.00     0.034 A 
ATOM      9  C16 99Z d   1     -97.670   9.653 -46.690  0.00  0.00    -0.056 A 
ATOM     10  C17 99Z d   1     -98.540   9.433 -45.622  0.00  0.00    -0.058 A 
ATOM     11  H10 99Z d   1     -96.897   8.936 -46.941  0.00  0.00     0.087 H 
ATOM     12  C18 99Z d   1     -99.523  10.394 -45.344  0.00  0.00     0.079 A 
ATOM     13  H11 99Z d   1     -98.458   8.536 -45.018  0.00  0.00     0.086 H 
ATOM     14  C19 99Z d   1     -99.673  11.576 -46.082  0.00  0.00    -0.058 A 
ATOM     15  C20 99Z d   1     -98.816  11.810 -47.142  0.00  0.00    -0.056 A 
ATOM     16  H12 99Z d   1    -100.445  12.293 -45.827  0.00  0.00     0.086 H 
ATOM     17  H13 99Z d   1     -98.898  12.714 -47.734  0.00  0.00     0.087 H 
BRANCH  12  18
ATOM     18  S26 99Z d   1    -100.637  10.124 -44.038  0.00  0.00     0.256 S 
ATOM     19  O23 99Z d   1    -100.973  11.331 -43.296  0.00  0.00    -0.201 OA
ATOM     20  O24 99Z d   1    -101.458   9.006 -44.485  0.00  0.00    -0.201 OA
BRANCH  18  21
ATOM     21  N04 99Z d   1     -99.965   9.332 -42.829  0.00  0.00    -0.324 N 
ATOM     22  H4  99Z d   1    -100.502   9.113 -42.014  0.00  0.00     0.169 HD
ATOM     23  H5  99Z d   1     -99.006   9.054 -42.885  0.00  0.00     0.169 HD
ENDBRANCH  18  21
ENDBRANCH  12  18
ENDBRANCH   6   8
ENDBRANCH   4   6
BRANCH   3  24
ATOM     24  N03 99Z d   1     -94.087   9.707 -52.097  0.00  0.00    -0.383 N 
ATOM     25  H2  99Z d   1     -93.302   9.078 -52.316  0.00  0.00     0.157 HD
ATOM     26  H3  99Z d   1     -94.494  10.299 -52.835  0.00  0.00     0.157 HD
ENDBRANCH   3  24
BRANCH   2  27
ATOM     27  C09 99Z d   1     -93.020   7.993 -49.904  0.00  0.00     0.203 C 
ATOM     28  O22 99Z d   1     -92.492   7.880 -51.025  0.00  0.00    -0.286 OA
BRANCH  27  29
ATOM     29  C10 99Z d   1     -92.605   7.152 -48.739  0.00  0.00     0.021 A 
ATOM     30  C11 99Z d   1     -91.276   7.174 -48.225  0.00  0.00    -0.048 A 
ATOM     31  C12 99Z d   1     -90.994   6.347 -47.115  0.00  0.00    -0.076 A 
ATOM     32  C13 99Z d   1     -91.984   5.530 -46.536  0.00  0.00    -0.082 A 
ATOM     33  H6  99Z d   1     -89.993   6.341 -46.700  0.00  0.00     0.084 H 
ATOM     34  C14 99Z d   1     -93.301   5.500 -47.046  0.00  0.00    -0.082 A 
ATOM     35  H7  99Z d   1     -91.731   4.912 -45.682  0.00  0.00     0.083 H 
ATOM     36  C15 99Z d   1     -93.616   6.323 -48.163  0.00  0.00    -0.069 A 
ATOM     37  H8  99Z d   1     -94.055   4.864 -46.596  0.00  0.00     0.083 H 
ATOM     38  H9  99Z d   1     -94.619   6.321 -48.575  0.00  0.00     0.085 H 
BRANCH  30  39
ATOM     39  C21 99Z d   1     -90.175   8.056 -48.828  0.00  0.00    -0.050 C 
ATOM     40  H14 99Z d   1     -90.583   8.623 -49.678  0.00  0.00     0.033 H 
ATOM     41  H15 99Z d   1     -89.346   7.422 -49.175  0.00  0.00     0.033 H 
ATOM     42  H16 99Z d   1     -89.806   8.756 -48.064  0.00  0.00     0.033 H 
ENDBRANCH  30  39
ENDBRANCH  27  29
ENDBRANCH   2  27
TORSDOF 8
