REMARK  3 active torsions:
REMARK  status: ('A' for Active; 'I' for Inactive)
REMARK    1  A    between atoms: C7_11  and  N3_7 
REMARK    2  A    between atoms: N3_7  and  C9_13 
REMARK    3  A    between atoms: C9_13  and  C10_14 
ROOT
ATOM      1  C1  28S d   1      34.961  46.487  60.107  0.00  0.00     0.012 A 
ATOM      2  N1  28S d   1      37.060  48.321  56.193  0.00  0.00    -0.224 NA
ATOM      3 BR1  28S d   1      34.040  46.735  61.751  0.00  0.00    -0.051 Br
ATOM      4  C2  28S d   1      35.366  45.209  59.705  0.00  0.00    -0.064 A 
ATOM      5  N2  28S d   1      37.134  46.015  56.593  0.00  0.00    -0.241 NA
ATOM      6  C3  28S d   1      36.086  45.047  58.512  0.00  0.00    -0.053 A 
ATOM      7  C4  28S d   1      36.408  46.163  57.732  0.00  0.00     0.072 A 
ATOM      8  C5  28S d   1      36.004  47.440  58.130  0.00  0.00     0.040 A 
ATOM      9  C6  28S d   1      35.276  47.595  59.315  0.00  0.00    -0.050 A 
ATOM     10  C7  28S d   1      36.331  48.536  57.318  0.00  0.00     0.137 A 
ATOM     11  C8  28S d   1      37.434  47.080  55.833  0.00  0.00     0.089 A 
ATOM     12  H1  28S d   1      35.124  44.346  60.314  0.00  0.00     0.085 H 
ATOM     13  H2  28S d   1      36.393  44.057  58.194  0.00  0.00     0.087 H 
ATOM     14  H4  28S d   1      34.953  48.583  59.622  0.00  0.00     0.087 H 
ATOM     15  H5  28S d   1      37.988  46.937  54.912  0.00  0.00     0.146 H 
ENDROOT
BRANCH  10  16
ATOM     16  N3  28S d   1      35.942  49.795  57.643  0.00  0.00    -0.371 N 
ATOM     17  H3  28S d   1      35.542  49.975  58.575  0.00  0.00     0.161 HD
BRANCH  16  18
ATOM     18  C9  28S d   1      36.079  50.898  56.697  0.00  0.00     0.008 C 
ATOM     19  H6  28S d   1      35.756  50.555  55.703  0.00  0.00     0.070 H 
ATOM     20  H7  28S d   1      37.136  51.200  56.655  0.00  0.00     0.070 H 
BRANCH  18  21
ATOM     21  C10 28S d   1      35.244  52.095  57.096  0.00  0.00    -0.095 C 
ATOM     22  C11 28S d   1      34.696  52.866  56.177  0.00  0.00    -0.123 C 
ATOM     23  H9  28S d   1      34.097  53.725  56.474  0.00  0.00     0.066 H 
ATOM     24  H10 28S d   1      34.843  52.643  55.121  0.00  0.00     0.066 H 
ATOM     25  H8  28S d   1      35.094  52.322  58.151  0.00  0.00     0.078 H 
ENDBRANCH  18  21
ENDBRANCH  16  18
ENDBRANCH  10  16
TORSDOF 3
