REMARK  0 active torsions:
REMARK  status: ('A' for Active; 'I' for Inactive)
ROOT
ATOM      1  C4  28N d   1     -23.266 -34.299   9.095  0.00  0.00    -0.047 A 
ATOM      2  C5  28N d   1     -23.558 -35.239  10.077  0.00  0.00     0.096 A 
ATOM      3  C7  28N d   1     -23.581 -37.609  10.398  0.00  0.00     0.081 C 
ATOM      4  C8  28N d   1     -24.366 -37.276  11.640  0.00  0.00     0.138 A 
ATOM      5  C15 28N d   1     -25.324 -33.899  10.874  0.00  0.00    -0.037 A 
ATOM      6  O12 28N d   1     -25.969 -34.929  13.596  0.00  0.00    -0.235 OA
ATOM      7  C11 28N d   1     -25.426 -35.964  13.069  0.00  0.00     0.395 A 
ATOM      8  O10 28N d   1     -25.416 -37.208  13.612  0.00  0.00    -0.179 OA
ATOM      9  N9  28N d   1     -24.716 -38.077  12.691  0.00  0.00    -0.241 N 
ATOM     10  N13 28N d   1     -24.799 -36.037  11.904  0.00  0.00    -0.239 N 
ATOM     11  O6  28N d   1     -22.834 -36.405  10.155  0.00  0.00    -0.341 OA
ATOM     12  C14 28N d   1     -24.578 -35.069  11.008  0.00  0.00     0.080 A 
ATOM     13  C2  28N d   1     -25.049 -32.947   9.899  0.00  0.00     0.013 A 
ATOM     14 BR1  28N d   1     -26.109 -31.395   9.790  0.00  0.00    -0.051 Br
ATOM     15  C3  28N d   1     -24.018 -33.140   8.996  0.00  0.00    -0.063 A 
ATOM     16  H1  28N d   1     -22.448 -34.474   8.405  0.00  0.00     0.087 H 
ATOM     17  H2  28N d   1     -24.251 -37.835   9.556  0.00  0.00     0.087 H 
ATOM     18  H3  28N d   1     -22.909 -38.463  10.572  0.00  0.00     0.087 H 
ATOM     19  H4  28N d   1     -26.149 -33.725  11.555  0.00  0.00     0.089 H 
ATOM     20  H5  28N d   1     -24.523 -39.083  12.803  0.00  0.00     0.196 HD
ATOM     21  H6  28N d   1     -23.804 -32.403   8.231  0.00  0.00     0.085 H 
ENDROOT
TORSDOF 0
