REMARK  0 active torsions:
REMARK  status: ('A' for Active; 'I' for Inactive)
ROOT
ATOM      1  O1  OCH d   1      -5.294 -23.487  29.326  0.00  0.00    -0.172 OA
ATOM      2  N2  OCH d   1      -6.867 -21.958  28.720  0.00  0.00    -0.334 N 
ATOM      3  C3  OCH d   1      -7.710 -20.932  28.972  0.00  0.00     0.044 A 
ATOM      4  C4  OCH d   1      -8.490 -20.399  27.950  0.00  0.00    -0.056 A 
ATOM      5  C5  OCH d   1      -9.366 -19.328  28.206  0.00  0.00    -0.081 A 
ATOM      6  C6  OCH d   1      -9.495 -18.822  29.509  0.00  0.00    -0.082 A 
ATOM      7  C7  OCH d   1      -8.725 -19.373  30.543  0.00  0.00    -0.071 A 
ATOM      8  C8  OCH d   1      -7.819 -20.419  30.288  0.00  0.00    -0.009 A 
ATOM      9  C9  OCH d   1      -7.017 -20.989  31.315  0.00  0.00    -0.067 A 
ATOM     10  C10 OCH d   1      -6.165 -22.072  31.004  0.00  0.00    -0.030 A 
ATOM     11  C1  OCH d   1      -6.118 -22.518  29.684  0.00  0.00     0.179 A 
ATOM     12  H1  OCH d   1      -6.799 -22.311  27.787  0.00  0.00     0.168 HD
ATOM     13  H2  OCH d   1      -8.422 -20.812  26.950  0.00  0.00     0.086 H 
ATOM     14  H3  OCH d   1      -9.941 -18.893  27.397  0.00  0.00     0.083 H 
ATOM     15  H4  OCH d   1     -10.185 -18.011  29.714  0.00  0.00     0.083 H 
ATOM     16  H5  OCH d   1      -8.829 -18.988  31.551  0.00  0.00     0.084 H 
ATOM     17  H6  OCH d   1      -7.059 -20.595  32.329  0.00  0.00     0.085 H 
ATOM     18  H7  OCH d   1      -5.560 -22.546  31.776  0.00  0.00     0.090 H 
ENDROOT
TORSDOF 0
