REMARK  7 active torsions:
REMARK  status: ('A' for Active; 'I' for Inactive)
REMARK    1  A    between atoms: C1_1  and  C2_2 
REMARK    2  A    between atoms: C5_5  and  N6_6 
REMARK    3  A    between atoms: N6_6  and  C7_7 
REMARK    4  A    between atoms: C9_9  and  N10_10 
REMARK    5  A    between atoms: N10_10  and  C11_11 
REMARK    6  A    between atoms: C16_16  and  N17_17 
REMARK    7  A    between atoms: C20_20  and  C21_21 
REMARK       I    between atoms: C21_21  and  N22_22 
ROOT
ATOM      1  C7  S19 d   1      -1.443  -0.524 -28.342  0.00  0.00     0.164 A 
ATOM      2  N8  S19 d   1      -0.925  -1.509 -27.599  0.00  0.00    -0.044 NA
ATOM      3  C9  S19 d   1      -1.698  -2.141 -26.712  0.00  0.00     0.724 A 
ATOM      4  N18 S19 d   1      -2.985  -1.856 -26.512  0.00  0.00    -0.074 NA
ATOM      5  C19 S19 d   1      -3.510  -0.876 -27.263  0.00  0.00     0.040 A 
ATOM      6  C20 S19 d   1      -2.813  -0.158 -28.211  0.00  0.00     0.096 A 
ATOM      7  H19 S19 d   1      -4.556  -0.632 -27.114  0.00  0.00     0.117 H 
ENDROOT
BRANCH   3   8
ATOM      8  N10 S19 d   1      -1.096  -3.131 -26.001  0.00  0.00    -0.216 N 
ATOM      9  H7  S19 d   1      -1.702  -3.721 -25.413  0.00  0.00     0.178 HD
BRANCH   8  10
ATOM     10  C11 S19 d   1       0.315  -3.429 -25.996  0.00  0.00     0.057 C 
ATOM     11  C12 S19 d   1       0.538  -4.896 -25.664  0.00  0.00    -0.024 C 
ATOM     12  C13 S19 d   1       2.016  -5.128 -25.740  0.00  0.00     0.021 C 
ATOM     13  H9  S19 d   1       0.015  -5.534 -26.391  0.00  0.00     0.039 H 
ATOM     14  H10 S19 d   1       0.170  -5.117 -24.651  0.00  0.00     0.039 H 
ATOM     15  O14 S19 d   1       2.661  -4.396 -24.727  0.00  0.00    -0.389 OA
ATOM     16  H11 S19 d   1       2.388  -4.800 -26.722  0.00  0.00     0.074 H 
ATOM     17  H12 S19 d   1       2.226  -6.200 -25.607  0.00  0.00     0.074 H 
ATOM     18  C15 S19 d   1       2.569  -2.976 -24.973  0.00  0.00     0.048 C 
ATOM     19  C16 S19 d   1       1.117  -2.531 -25.057  0.00  0.00     0.140 C 
ATOM     20  H13 S19 d   1       3.073  -2.742 -25.922  0.00  0.00     0.077 H 
ATOM     21  H14 S19 d   1       3.064  -2.436 -24.152  0.00  0.00     0.077 H 
ATOM     22  H15 S19 d   1       1.076  -1.501 -25.440  0.00  0.00     0.090 H 
ATOM     23  H8  S19 d   1       0.691  -3.253 -27.015  0.00  0.00     0.076 H 
BRANCH  19  24
ATOM     24  N17 S19 d   1       0.573  -2.564 -23.716  0.00  0.00    -0.071 N 
ATOM     25  H16 S19 d   1      -0.392  -2.273 -23.738  0.00  0.00     0.274 HD
ATOM     26  H17 S19 d   1       1.099  -1.940 -23.125  0.00  0.00     0.274 HD
ATOM     27  H18 S19 d   1       0.633  -3.502 -23.352  0.00  0.00     0.274 HD
ENDBRANCH  19  24
ENDBRANCH   8  10
ENDBRANCH   3   8
BRANCH   1  28
ATOM     28  N6  S19 d   1      -0.696   0.185 -29.290  0.00  0.00    -0.340 N 
ATOM     29  H6  S19 d   1      -1.226   0.857 -29.864  0.00  0.00     0.167 HD
BRANCH  28  30
ATOM     30  C5  S19 d   1       0.693   0.102 -29.566  0.00  0.00     0.033 A 
ATOM     31  C4  S19 d   1       1.201   1.052 -30.428  0.00  0.00    -0.057 A 
ATOM     32  C3  S19 d   1       2.531   1.088 -30.794  0.00  0.00    -0.075 A 
ATOM     33  H5  S19 d   1       0.529   1.800 -30.834  0.00  0.00     0.086 H 
ATOM     34  C2  S19 d   1       3.397   0.154 -30.279  0.00  0.00    -0.062 A 
ATOM     35  H4  S19 d   1       2.889   1.846 -31.481  0.00  0.00     0.084 H 
ATOM     36  C25 S19 d   1       2.917  -0.804 -29.413  0.00  0.00    -0.075 A 
ATOM     37  C24 S19 d   1       1.570  -0.838 -29.060  0.00  0.00    -0.057 A 
ATOM     38  H23 S19 d   1       3.597  -1.541 -29.001  0.00  0.00     0.084 H 
ATOM     39  H22 S19 d   1       1.208  -1.605 -28.385  0.00  0.00     0.086 H 
BRANCH  34  40
ATOM     40  C1  S19 d   1       4.843   0.207 -30.688  0.00  0.00    -0.051 C 
ATOM     41  H1  S19 d   1       4.998   1.048 -31.380  0.00  0.00     0.033 H 
ATOM     42  H2  S19 d   1       5.118  -0.734 -31.187  0.00  0.00     0.033 H 
ATOM     43  H3  S19 d   1       5.471   0.346 -29.796  0.00  0.00     0.033 H 
ENDBRANCH  34  40
ENDBRANCH  28  30
ENDBRANCH   1  28
BRANCH   6  44
ATOM     44  C21 S19 d   1      -3.404   0.927 -29.016  0.00  0.00     0.254 C 
ATOM     45  N22 S19 d   1      -4.760   1.048 -28.952  0.00  0.00    -0.366 N 
ATOM     46  H20 S19 d   1      -5.223   1.764 -29.474  0.00  0.00     0.159 HD
ATOM     47  H21 S19 d   1      -5.292   0.421 -28.383  0.00  0.00     0.159 HD
ATOM     48  O23 S19 d   1      -2.697   1.667 -29.688  0.00  0.00    -0.268 OA
ENDBRANCH   6  44
TORSDOF 7
