REMARK  4 active torsions:
REMARK  status: ('A' for Active; 'I' for Inactive)
REMARK    1  A    between atoms: O3_10  and  C7_13 
REMARK    2  A    between atoms: C3_14  and  O3_10 
REMARK    3  A    between atoms: C7_13  and  C'_11 
REMARK    4  A    between atoms: C1_16  and  C_12 
ROOT
ATOM      1  O2  RVE d   1       1.439 -39.250  15.857  0.00  0.00    -0.289 OA
ATOM      2  C5  RVE d   1       2.542 -35.545  14.723  0.00  0.00    -0.083 A 
ATOM      3  C4  RVE d   1       2.605 -35.921  16.050  0.00  0.00    -0.068 A 
ATOM      4  C6  RVE d   1       2.108 -36.416  13.767  0.00  0.00    -0.063 A 
ATOM      5  C3  RVE d   1       2.202 -37.172  16.446  0.00  0.00     0.124 A 
ATOM      6  C2  RVE d   1       1.805 -38.059  15.488  0.00  0.00     0.199 A 
ATOM      7  C1  RVE d   1       1.731 -37.678  14.125  0.00  0.00     0.089 A 
ATOM      8  H   RVE d   1       2.843 -34.538  14.435  0.00  0.00     0.083 H 
ATOM      9  H   RVE d   1       2.979 -35.216  16.792  0.00  0.00     0.081 H 
ATOM     10  H   RVE d   1       2.062 -36.106  12.723  0.00  0.00     0.085 H 
ATOM     11  H   RVE d   1       1.155 -37.286  16.729  0.00  0.00     0.103 H 
ENDROOT
BRANCH   5  12
ATOM     12  O3  RVE d   1       2.334 -37.506  17.731  0.00  0.00    -0.328 OA
BRANCH  12  13
ATOM     13  C7  RVE d   1       1.422 -37.962  18.586  0.00  0.00     0.137 C 
ATOM     14  C8  RVE d   1       0.088 -37.925  18.276  0.00  0.00    -0.084 C 
ATOM     15  H   RVE d   1      -0.238 -37.518  17.319  0.00  0.00     0.071 H 
ATOM     16  H   RVE d   1      -0.647 -38.302  18.987  0.00  0.00     0.071 H 
BRANCH  13  17
ATOM     17  C'  RVE d   1       1.896 -38.036  20.091  0.00  0.00     0.233 C 
ATOM     18  OA' RVE d   1       1.161 -38.435  20.955  0.00  0.00    -0.642 OA
ATOM     19  OB' RVE d   1       2.970 -37.533  20.295  0.00  0.00    -0.642 OA
ENDBRANCH  13  17
ENDBRANCH  12  13
ENDBRANCH   5  12
BRANCH   7  20
ATOM     20  C   RVE d   1       1.252 -38.641  13.036  0.00  0.00     0.213 C 
ATOM     21  OB  RVE d   1       1.279 -38.234  11.882  0.00  0.00    -0.644 OA
ATOM     22  OA  RVE d   1       1.000 -39.789  13.352  0.00  0.00    -0.644 OA
ENDBRANCH   7  20
TORSDOF 4
