REMARK  15 active torsions:
REMARK  status: ('A' for Active; 'I' for Inactive)
REMARK    1  A    between atoms: N_1  and  CA_2 
REMARK    2  A    between atoms: CA_2  and  C_3 
REMARK    3  A    between atoms: CA_2  and  CB_5 
REMARK       I    between atoms: C_3  and  N_6 
REMARK    4  A    between atoms: N_6  and  CA_7 
REMARK    5  A    between atoms: CA_7  and  C_8 
REMARK    6  A    between atoms: CA_7  and  CB_10 
REMARK       I    between atoms: C_8  and  N_11 
REMARK    7  A    between atoms: N_11  and  CA_12 
REMARK    8  A    between atoms: CA_12  and  C_13 
REMARK    9  A    between atoms: CA_12  and  CB_15 
REMARK       I    between atoms: C_13  and  N_16 
REMARK   10  A    between atoms: N_16  and  CA_17 
REMARK   11  A    between atoms: CA_17  and  C_18 
REMARK   12  A    between atoms: CA_17  and  CB_20 
REMARK       I    between atoms: C_18  and  N_21 
REMARK   13  A    between atoms: N_21  and  CA_22 
REMARK   14  A    between atoms: CA_22  and  C_23 
REMARK   15  A    between atoms: CA_22  and  CB_25 
ROOT
ATOM      1  CA  UNK d   1     -40.689  88.214 -21.175  0.00  0.00     0.086 C 
ATOM      2  H   UNK d   1     -41.255  88.786 -20.439  0.00  0.00     0.086 H 
ENDROOT
BRANCH   1   3
ATOM      3  N   UNK d   1     -41.075  88.643 -22.513  0.00  0.00    -0.346 N 
ATOM      4  C   UNK d   1     -41.682  89.811 -22.742  0.00  0.00     0.240 C 
ATOM      5  O   UNK d   1     -41.991  90.604 -21.845  0.00  0.00    -0.271 OA
ATOM      6  H   UNK d   1     -40.875  88.030 -23.303  0.00  0.00     0.163 HD
BRANCH   4   7
ATOM      7  CA  UNK d   1     -41.973  90.140 -24.201  0.00  0.00     0.086 C 
ATOM      8  H   UNK d   1     -41.697  89.277 -24.807  0.00  0.00     0.086 H 
BRANCH   7   9
ATOM      9  N   UNK d   1     -43.399  90.389 -24.426  0.00  0.00    -0.346 N 
ATOM     10  C   UNK d   1     -44.349  89.421 -24.505  0.00  0.00     0.248 C 
ATOM     11  O   UNK d   1     -44.095  88.214 -24.386  0.00  0.00    -0.271 OA
ATOM     12  H   UNK d   1     -43.700  91.358 -24.531  0.00  0.00     0.163 HD
BRANCH  10  13
ATOM     13  CA  UNK d   1     -45.813  89.895 -24.744  0.00  0.00     0.172 C 
ATOM     14  H   UNK d   1     -45.775  90.703 -25.474  0.00  0.00     0.098 H 
BRANCH  13  15
ATOM     15  N   UNK d   1     -46.658  88.842 -25.308  0.00  0.00    -0.067 N 
ATOM     16  H   UNK d   1     -46.247  88.508 -26.180  0.00  0.00     0.275 HD
ATOM     17  H   UNK d   1     -46.725  88.070 -24.645  0.00  0.00     0.275 HD
ATOM     18  H   UNK d   1     -47.589  89.216 -25.491  0.00  0.00     0.275 HD
ENDBRANCH  13  15
BRANCH  13  19
ATOM     19  CB  UNK d   1     -46.415  90.404 -23.439  0.00  0.00    -0.042 C 
ATOM     20  H   UNK d   1     -46.413  89.601 -22.702  0.00  0.00     0.030 H 
ATOM     21  H   UNK d   1     -45.822  91.240 -23.069  0.00  0.00     0.030 H 
ATOM     22  H   UNK d   1     -47.439  90.733 -23.617  0.00  0.00     0.030 H 
ENDBRANCH  13  19
ENDBRANCH  10  13
ENDBRANCH   7   9
BRANCH   7  23
ATOM     23  CB  UNK d   1     -41.144  91.346 -24.628  0.00  0.00    -0.049 C 
ATOM     24  H   UNK d   1     -41.402  92.202 -24.004  0.00  0.00     0.030 H 
ATOM     25  H   UNK d   1     -40.085  91.117 -24.512  0.00  0.00     0.030 H 
ATOM     26  H   UNK d   1     -41.354  91.579 -25.672  0.00  0.00     0.030 H 
ENDBRANCH   7  23
ENDBRANCH   4   7
ENDBRANCH   1   3
BRANCH   1  27
ATOM     27  C   UNK d   1     -39.201  88.473 -20.960  0.00  0.00     0.240 C 
ATOM     28  O   UNK d   1     -38.430  88.445 -21.921  0.00  0.00    -0.271 OA
ATOM     29  N   UNK d   1     -38.803  88.740 -19.707  0.00  0.00    -0.346 N 
ATOM     30  H   UNK d   1     -39.503  88.790 -18.967  0.00  0.00     0.163 HD
BRANCH  29  31
ATOM     31  CA  UNK d   1     -37.404  88.961 -19.368  0.00  0.00     0.086 C 
ATOM     32  H   UNK d   1     -36.950  89.557 -20.160  0.00  0.00     0.086 H 
BRANCH  31  33
ATOM     33  C   UNK d   1     -36.648  87.620 -19.277  0.00  0.00     0.240 C 
ATOM     34  O   UNK d   1     -37.181  86.633 -18.765  0.00  0.00    -0.271 OA
ATOM     35  N   UNK d   1     -35.423  87.590 -19.814  0.00  0.00    -0.345 N 
ATOM     36  H   UNK d   1     -35.092  88.442 -20.266  0.00  0.00     0.163 HD
BRANCH  35  37
ATOM     37  CA  UNK d   1     -34.517  86.441 -19.809  0.00  0.00     0.093 C 
ATOM     38  H   UNK d   1     -34.837  85.745 -19.034  0.00  0.00     0.089 H 
BRANCH  37  39
ATOM     39  C   UNK d   1     -33.104  86.918 -19.514  0.00  0.00     0.196 C 
ATOM     40  O   UNK d   1     -32.312  86.114 -18.954  0.00  0.00    -0.646 OA
ATOM     41  O   UNK d   1     -32.736  88.083 -19.821  0.00  0.00    -0.646 OA
ENDBRANCH  37  39
BRANCH  37  42
ATOM     42  CB  UNK d   1     -34.560  85.699 -21.143  0.00  0.00    -0.048 C 
ATOM     43  H   UNK d   1     -35.574  85.343 -21.327  0.00  0.00     0.030 H 
ATOM     44  H   UNK d   1     -34.261  86.376 -21.943  0.00  0.00     0.030 H 
ATOM     45  H   UNK d   1     -33.876  84.851 -21.108  0.00  0.00     0.030 H 
ENDBRANCH  37  42
ENDBRANCH  35  37
ENDBRANCH  31  33
BRANCH  31  46
ATOM     46  CB  UNK d   1     -37.287  89.728 -18.060  0.00  0.00    -0.049 C 
ATOM     47  H   UNK d   1     -37.784  90.693 -18.160  0.00  0.00     0.030 H 
ATOM     48  H   UNK d   1     -37.759  89.156 -17.261  0.00  0.00     0.030 H 
ATOM     49  H   UNK d   1     -36.234  89.883 -17.824  0.00  0.00     0.030 H 
ENDBRANCH  31  46
ENDBRANCH  29  31
ENDBRANCH   1  27
BRANCH   1  50
ATOM     50  CB  UNK d   1     -41.011  86.736 -20.980  0.00  0.00    -0.049 C 
ATOM     51  H   UNK d   1     -42.082  86.579 -21.110  0.00  0.00     0.030 H 
ATOM     52  H   UNK d   1     -40.464  86.146 -21.715  0.00  0.00     0.030 H 
ATOM     53  H   UNK d   1     -40.717  86.431 -19.976  0.00  0.00     0.030 H 
ENDBRANCH   1  50
TORSDOF 15
