REMARK  13 active torsions:
REMARK  status: ('A' for Active; 'I' for Inactive)
REMARK    1  A    between atoms: CA_4  and  CB_5 
REMARK    2  A    between atoms: CB_5  and  CAR_20 
REMARK    3  A    between atoms: CB_5  and  CG1_53 
REMARK    4  A    between atoms: CB_5  and  CG2_54 
REMARK    5  A    between atoms: NAV_24  and  SAN_16 
REMARK    6  A    between atoms: SAN_16  and  CBL_40 
REMARK    7  A    between atoms: CAO_17  and  CBO_43 
REMARK    8  A    between atoms: NBP_44  and  CAO_17 
REMARK       I    between atoms: CAQ_19  and  NBP_44 
REMARK    9  A    between atoms: CBY_49  and  CAQ_19 
REMARK   10  A    between atoms: CAW_25  and  CAS_21 
REMARK   11  A    between atoms: CAS_21  and  CBQ_45 
REMARK       I    between atoms: CBO_43  and  NAV_24 
REMARK   12  A    between atoms: OBB_30  and  CBA_29 
REMARK   13  A    between atoms: CBJ_38  and  OBB_30 
ROOT
ATOM      1  C   SUE d   1      15.998  -9.111  16.300  0.00  0.00     0.244 C 
ATOM      2  N   SUE d   1      14.813 -11.117  16.661  0.00  0.00    -0.323 N 
ATOM      3  O   SUE d   1      15.442  -8.901  15.237  0.00  0.00    -0.271 OA
ATOM      4  CA  SUE d   1      16.090 -10.439  16.855  0.00  0.00     0.098 C 
ATOM      5  CAB SUE d   1      13.827 -11.210  17.617  0.00  0.00     0.361 C 
ATOM      6  NAC SUE d   1      16.142  -4.708  20.655  0.00  0.00    -0.221 NA
ATOM      7  CAD SUE d   1      14.054  -2.079  21.854  0.00  0.00    -0.050 A 
ATOM      8  CAE SUE d   1      16.693  -2.882  21.988  0.00  0.00    -0.021 A 
ATOM      9  CAF SUE d   1      10.239 -11.895  17.805  0.00  0.00    -0.034 A 
ATOM     10  CAG SUE d   1      10.832 -10.556  18.083  0.00  0.00    -0.026 A 
ATOM     11  CAH SUE d   1      11.649 -11.776  18.257  0.00  0.00     0.053 A 
ATOM     12  CAT SUE d   1      14.437  -3.232  21.192  0.00  0.00     0.086 A 
ATOM     13  CAU SUE d   1      10.576  -9.820  19.349  0.00  0.00    -0.059 C 
ATOM     14  CAX SUE d   1      12.412  -8.170  19.563  0.00  0.00    -0.065 C 
ATOM     15  CAY SUE d   1      14.968  -1.352  22.594  0.00  0.00    -0.048 A 
ATOM     16  OAZ SUE d   1      15.631  -6.548  19.331  0.00  0.00    -0.326 OA
ATOM     17  CBC SUE d   1      11.014  -8.397  19.097  0.00  0.00    -0.065 C 
ATOM     18  CBD SUE d   1      12.500  -6.816  20.139  0.00  0.00    -0.060 C 
ATOM     19  CBE SUE d   1      15.269  -5.437  19.971  0.00  0.00     0.190 A 
ATOM     20  CBF SUE d   1      13.928  -5.047  19.899  0.00  0.00     0.088 A 
ATOM     21  CBG SUE d   1      15.771  -3.632  21.275  0.00  0.00     0.091 A 
ATOM     22  NBH SUE d   1      13.559  -3.962  20.526  0.00  0.00    -0.247 NA
ATOM     23  CBI SUE d   1      12.990  -5.778  19.205  0.00  0.00    -0.021 C 
ATOM     24  CBJ SUE d   1      16.301  -1.720  22.665  0.00  0.00     0.070 A 
ATOM     25  OBR SUE d   1      14.102 -10.747  18.687  0.00  0.00    -0.238 OA
ATOM     26  OBT SUE d   1      12.682 -11.871  17.316  0.00  0.00    -0.298 OA
ATOM     27  CBX SUE d   1      17.199  -5.808  17.503  0.00  0.00    -0.011 C 
ATOM     28  CBY SUE d   1      16.520  -6.655  16.408  0.00  0.00     0.094 C 
ATOM     29  NBZ SUE d   1      16.548  -8.068  16.909  0.00  0.00    -0.334 N 
ATOM     30  CCA SUE d   1      17.224  -8.075  18.178  0.00  0.00     0.023 C 
ATOM     31  CCB SUE d   1      16.988  -6.683  18.758  0.00  0.00     0.064 C 
ATOM     32  H   SUE d   1      14.639 -11.552  15.755  0.00  0.00     0.165 HD
ATOM     33  H   SUE d   1      16.327 -10.341  17.914  0.00  0.00     0.088 H 
ATOM     34  H   SUE d   1      13.020  -1.740  21.791  0.00  0.00     0.087 H 
ATOM     35  H   SUE d   1      17.735  -3.200  22.022  0.00  0.00     0.091 H 
ATOM     36  H   SUE d   1       9.667 -12.393  17.022  0.00  0.00     0.037 H 
ATOM     37  H   SUE d   1       9.343 -12.463  18.053  0.00  0.00     0.037 H 
ATOM     38  H   SUE d   1      10.845  -9.637  17.497  0.00  0.00     0.044 H 
ATOM     39  H   SUE d   1      12.206 -12.269  19.054  0.00  0.00     0.084 H 
ATOM     40  H   SUE d   1      11.125 -10.261  20.181  0.00  0.00     0.033 H 
ATOM     41  H   SUE d   1       9.523  -9.866  19.627  0.00  0.00     0.033 H 
ATOM     42  H   SUE d   1      13.103  -8.263  18.725  0.00  0.00     0.033 H 
ATOM     43  H   SUE d   1      12.678  -8.912  20.316  0.00  0.00     0.033 H 
ATOM     44  H   SUE d   1      14.631  -0.468  23.135  0.00  0.00     0.087 H 
ATOM     45  H   SUE d   1      10.352  -7.728  19.646  0.00  0.00     0.033 H 
ATOM     46  H   SUE d   1      10.970  -8.205  18.025  0.00  0.00     0.033 H 
ATOM     47  H   SUE d   1      13.214  -6.866  20.961  0.00  0.00     0.033 H 
ATOM     48  H   SUE d   1      11.490  -6.529  20.431  0.00  0.00     0.033 H 
ATOM     49  H   SUE d   1      12.174  -5.143  18.861  0.00  0.00     0.042 H 
ATOM     50  H   SUE d   1      13.425  -6.227  18.312  0.00  0.00     0.042 H 
ATOM     51  H   SUE d   1      16.779  -4.806  17.598  0.00  0.00     0.040 H 
ATOM     52  H   SUE d   1      18.247  -5.593  17.296  0.00  0.00     0.040 H 
ATOM     53  H   SUE d   1      15.515  -6.264  16.247  0.00  0.00     0.088 H 
ATOM     54  H   SUE d   1      18.287  -8.293  18.069  0.00  0.00     0.068 H 
ATOM     55  H   SUE d   1      16.843  -8.857  18.835  0.00  0.00     0.068 H 
ATOM     56  H   SUE d   1      17.637  -6.420  19.593  0.00  0.00     0.086 H 
ENDROOT
BRANCH  28  57
ATOM     57  CAQ SUE d   1      17.116  -6.589  15.153  0.00  0.00     0.241 C 
ATOM     58  OAP SUE d   1      18.165  -7.129  14.951  0.00  0.00    -0.271 OA
ATOM     59  NBP SUE d   1      16.469  -5.948  14.262  0.00  0.00    -0.341 N 
ATOM     60  H   SUE d   1      15.645  -5.425  14.559  0.00  0.00     0.163 HD
BRANCH  59  61
ATOM     61  CAO SUE d   1      16.820  -5.909  12.858  0.00  0.00     0.119 A 
ATOM     62  CAW SUE d   1      16.381  -7.133  12.101  0.00  0.00    -0.018 A 
ATOM     63  CBN SUE d   1      15.731  -5.781  11.889  0.00  0.00    -0.027 A 
ATOM     64  H   SUE d   1      16.150  -8.142  12.442  0.00  0.00     0.044 H 
ATOM     65  H   SUE d   1      15.457  -5.133  11.056  0.00  0.00     0.038 H 
ATOM     66  H   SUE d   1      14.726  -5.361  11.848  0.00  0.00     0.038 H 
BRANCH  62  67
ATOM     67  CAS SUE d   1      17.066  -7.628  10.845  0.00  0.00    -0.062 C 
ATOM     68  H   SUE d   1      18.122  -7.380  10.955  0.00  0.00     0.033 H 
ATOM     69  H   SUE d   1      16.548  -7.158  10.009  0.00  0.00     0.033 H 
BRANCH  67  70
ATOM     70  CBQ SUE d   1      17.005  -9.094  10.601  0.00  0.00    -0.076 C 
ATOM     71  H   SUE d   1      17.478  -9.619  11.431  0.00  0.00     0.027 H 
ATOM     72  H   SUE d   1      15.963  -9.405  10.520  0.00  0.00     0.027 H 
ATOM     73  H   SUE d   1      17.529  -9.329   9.674  0.00  0.00     0.027 H 
ENDBRANCH  67  70
ENDBRANCH  62  67
BRANCH  61  74
ATOM     74  CBO SUE d   1      18.066  -5.164  12.338  0.00  0.00     0.259 C 
ATOM     75  NAV SUE d   1      18.787  -4.422  13.183  0.00  0.00    -0.251 N 
ATOM     76  H   SUE d   1      18.539  -4.344  14.169  0.00  0.00     0.181 HD
ATOM     77  OBM SUE d   1      18.272  -5.229  11.150  0.00  0.00    -0.270 OA
BRANCH  75  78
ATOM     78  SAN SUE d   1      20.060  -3.660  12.577  0.00  0.00     0.243 S 
ATOM     79  OAM SUE d   1      19.683  -2.756  11.523  0.00  0.00    -0.205 OA
ATOM     80  OBK SUE d   1      20.913  -4.675  12.104  0.00  0.00    -0.205 OA
BRANCH  78  81
ATOM     81  CBL SUE d   1      20.976  -2.625  13.951  0.00  0.00     0.095 A 
ATOM     82  CAK SUE d   1      21.615  -1.405  13.430  0.00  0.00    -0.082 A 
ATOM     83  CAL SUE d   1      20.358  -1.320  14.124  0.00  0.00    -0.082 A 
ATOM     84  H   SUE d   1      22.438  -0.921  12.904  0.00  0.00     0.079 H 
ATOM     85  H   SUE d   1      19.536  -0.714  14.505  0.00  0.00     0.079 H 
ATOM     86  H   SUE d   1      21.292  -3.445  14.596  0.00  0.00     0.079 H 
ENDBRANCH  78  81
ENDBRANCH  75  78
ENDBRANCH  61  74
ENDBRANCH  59  61
ENDBRANCH  28  57
BRANCH   4  87
ATOM     87  CB  SUE d   1      17.230 -11.285  16.209  0.00  0.00    -0.022 C 
BRANCH  87  88
ATOM     88  CAR SUE d   1      17.230 -12.717  16.650  0.00  0.00    -0.067 C 
ATOM     89  H   SUE d   1      18.050 -13.246  16.163  0.00  0.00     0.028 H 
ATOM     90  H   SUE d   1      17.358 -12.763  17.732  0.00  0.00     0.028 H 
ATOM     91  H   SUE d   1      16.283 -13.181  16.375  0.00  0.00     0.028 H 
ENDBRANCH  87  88
BRANCH  87  92
ATOM     92  CG1 SUE d   1      18.550 -10.719  16.617  0.00  0.00    -0.067 C 
ATOM     93  H   SUE d   1      18.658 -10.795  17.699  0.00  0.00     0.028 H 
ATOM     94  H   SUE d   1      19.349 -11.278  16.131  0.00  0.00     0.028 H 
ATOM     95  H   SUE d   1      18.603  -9.672  16.318  0.00  0.00     0.028 H 
ENDBRANCH  87  92
BRANCH  87  96
ATOM     96  CG2 SUE d   1      17.058 -11.295  14.683  0.00  0.00    -0.067 C 
ATOM     97  H   SUE d   1      17.884 -11.842  14.229  0.00  0.00     0.028 H 
ATOM     98  H   SUE d   1      16.116 -11.780  14.428  0.00  0.00     0.028 H 
ATOM     99  H   SUE d   1      17.052 -10.270  14.313  0.00  0.00     0.028 H 
ENDBRANCH  87  96
ENDBRANCH   4  87
BRANCH  24 100
ATOM    100  OBB SUE d   1      17.148  -0.946  23.366  0.00  0.00    -0.356 OA
BRANCH 100 101
ATOM    101  CBA SUE d   1      18.483  -0.905  23.004  0.00  0.00     0.010 C 
ATOM    102  H   SUE d   1      18.908  -1.906  23.075  0.00  0.00     0.066 H 
ATOM    103  H   SUE d   1      18.569  -0.543  21.979  0.00  0.00     0.066 H 
ATOM    104  H   SUE d   1      19.019  -0.233  23.674  0.00  0.00     0.066 H 
ENDBRANCH 100 101
ENDBRANCH  24 100
TORSDOF 13
