REMARK  19 active torsions:
REMARK  status: ('A' for Active; 'I' for Inactive)
REMARK    1  A    between atoms: CBB_4  and  CBN_1 
REMARK       I    between atoms: NAD_9  and  CBB_4 
REMARK    2  A    between atoms: CAY_10  and  NAD_9 
REMARK    3  A    between atoms: CAX_11  and  CAY_10 
REMARK    4  A    between atoms: CAY_10  and  CBH_13 
REMARK       I    between atoms: NAC_19  and  CAX_11 
REMARK    5  A    between atoms: CAW_20  and  NAC_19 
REMARK    6  A    between atoms: CAW_20  and  CAZ_21 
REMARK    7  A    between atoms: CAV_25  and  CAW_20 
REMARK    8  A    between atoms: CAZ_21  and  CBC_22 
REMARK    9  A    between atoms: CAZ_21  and  CBD_23 
REMARK   10  A    between atoms: CAZ_21  and  CBA_24 
REMARK       I    between atoms: N_28  and  CAV_25 
REMARK   11  A    between atoms: C_27  and  CA_30 
REMARK       I    between atoms: NAE_38  and  C_27 
REMARK       I    between atoms: CAM_44  and  NAA_37 
REMARK   12  A    between atoms: NAA_37  and  CAN_45 
REMARK   13  A    between atoms: CAH_39  and  NAE_38 
REMARK   14  A    between atoms: CAI_40  and  CAH_39 
REMARK   15  A    between atoms: CAH_39  and  CAJ_41 
REMARK   16  A    between atoms: CAI_40  and  CAM_44 
REMARK   17  A    between atoms: CAI_40  and  OBR_48 
REMARK   18  A    between atoms: CAJ_41  and  CAK_42 
REMARK   19  A    between atoms: CAK_42  and  CAL_43 
ROOT
ATOM      1  CAV SV6 d   1     -16.201  -8.933  14.117  0.00  0.00     0.244 C 
ATOM      2  OBT SV6 d   1     -15.957  -8.199  15.093  0.00  0.00    -0.271 OA
ATOM      3  N   SV6 d   1     -15.317  -9.856  13.746  0.00  0.00    -0.336 N 
ATOM      4  CA  SV6 d   1     -14.021 -10.027  14.437  0.00  0.00     0.095 C 
ATOM      5  CB  SV6 d   1     -13.457 -11.366  13.971  0.00  0.00    -0.021 C 
ATOM      6  CG  SV6 d   1     -14.143 -11.661  12.629  0.00  0.00    -0.033 C 
ATOM      7  CBE SV6 d   1     -13.815 -12.508  14.902  0.00  0.00    -0.059 C 
ATOM      8  CBF SV6 d   1     -13.861 -13.725  13.980  0.00  0.00    -0.064 C 
ATOM      9  CD1 SV6 d   1     -15.440 -10.818  12.611  0.00  0.00     0.002 C 
ATOM     10  CD2 SV6 d   1     -14.425 -13.168  12.665  0.00  0.00    -0.060 C 
ATOM     11  H   SV6 d   1     -14.117 -10.019  15.523  0.00  0.00     0.088 H 
ATOM     12  H   SV6 d   1     -12.370 -11.296  13.924  0.00  0.00     0.044 H 
ATOM     13  H   SV6 d   1     -13.565 -11.414  11.739  0.00  0.00     0.043 H 
ATOM     14  H   SV6 d   1     -14.760 -12.342  15.420  0.00  0.00     0.033 H 
ATOM     15  H   SV6 d   1     -13.095 -12.626  15.711  0.00  0.00     0.033 H 
ATOM     16  H   SV6 d   1     -14.473 -14.530  14.386  0.00  0.00     0.033 H 
ATOM     17  H   SV6 d   1     -12.881 -14.184  13.850  0.00  0.00     0.033 H 
ATOM     18  H   SV6 d   1     -15.560 -10.297  11.661  0.00  0.00     0.065 H 
ATOM     19  H   SV6 d   1     -16.323 -11.448  12.719  0.00  0.00     0.065 H 
ATOM     20  H   SV6 d   1     -13.953 -13.660  11.815  0.00  0.00     0.033 H 
ATOM     21  H   SV6 d   1     -15.498 -13.352  12.608  0.00  0.00     0.033 H 
ENDROOT
BRANCH   1  22
ATOM     22  CAW SV6 d   1     -17.530  -8.803  13.343  0.00  0.00     0.096 C 
ATOM     23  H   SV6 d   1     -17.529  -9.537  12.537  0.00  0.00     0.088 H 
BRANCH  22  24
ATOM     24  NAC SV6 d   1     -18.643  -9.074  14.263  0.00  0.00    -0.345 N 
ATOM     25  CAX SV6 d   1     -19.394 -10.161  14.147  0.00  0.00     0.241 C 
ATOM     26  OBU SV6 d   1     -19.280 -11.013  13.262  0.00  0.00    -0.271 OA
ATOM     27  H   SV6 d   1     -18.843  -8.409  15.010  0.00  0.00     0.163 HD
BRANCH  25  28
ATOM     28  CAY SV6 d   1     -20.502 -10.262  15.186  0.00  0.00     0.093 C 
ATOM     29  H   SV6 d   1     -20.471  -9.376  15.820  0.00  0.00     0.088 H 
BRANCH  28  30
ATOM     30  NAD SV6 d   1     -21.799 -10.352  14.496  0.00  0.00    -0.342 N 
ATOM     31  CBB SV6 d   1     -22.483  -9.269  14.180  0.00  0.00     0.272 C 
ATOM     32  OBW SV6 d   1     -22.121  -8.124  14.428  0.00  0.00    -0.266 OA
ATOM     33  H   SV6 d   1     -22.176 -11.269  14.258  0.00  0.00     0.163 HD
BRANCH  31  34
ATOM     34  CBN SV6 d   1     -23.817  -9.539  13.465  0.00  0.00     0.141 A 
ATOM     35  CBQ SV6 d   1     -24.207 -10.841  13.141  0.00  0.00     0.035 A 
ATOM     36  NAG SV6 d   1     -25.363 -11.060  12.525  0.00  0.00    -0.269 NA
ATOM     37  H   SV6 d   1     -23.560 -11.681  13.395  0.00  0.00     0.118 H 
ATOM     38  CBP SV6 d   1     -26.147 -10.036  12.219  0.00  0.00     0.019 A 
ATOM     39  CBO SV6 d   1     -25.768  -8.730  12.537  0.00  0.00     0.020 A 
ATOM     40  H   SV6 d   1     -27.096 -10.215  11.714  0.00  0.00     0.117 H 
ATOM     41  NAF SV6 d   1     -24.615  -8.505  13.155  0.00  0.00    -0.253 NA
ATOM     42  H   SV6 d   1     -26.419  -7.895  12.278  0.00  0.00     0.117 H 
ENDBRANCH  31  34
ENDBRANCH  28  30
BRANCH  28  43
ATOM     43  CBH SV6 d   1     -20.311 -11.490  16.067  0.00  0.00    -0.026 C 
ATOM     44  CBI SV6 d   1     -21.424 -11.561  17.125  0.00  0.00    -0.059 C 
ATOM     45  CBJ SV6 d   1     -21.223 -12.757  18.053  0.00  0.00    -0.065 C 
ATOM     46  H   SV6 d   1     -22.382 -11.670  16.617  0.00  0.00     0.033 H 
ATOM     47  H   SV6 d   1     -21.398 -10.649  17.721  0.00  0.00     0.033 H 
ATOM     48  CBK SV6 d   1     -19.835 -12.723  18.712  0.00  0.00    -0.065 C 
ATOM     49  H   SV6 d   1     -21.306 -13.671  17.465  0.00  0.00     0.033 H 
ATOM     50  H   SV6 d   1     -21.980 -12.721  18.836  0.00  0.00     0.033 H 
ATOM     51  CBL SV6 d   1     -18.728 -12.644  17.656  0.00  0.00    -0.065 C 
ATOM     52  H   SV6 d   1     -19.701 -13.636  19.292  0.00  0.00     0.033 H 
ATOM     53  H   SV6 d   1     -19.773 -11.842  19.351  0.00  0.00     0.033 H 
ATOM     54  CBM SV6 d   1     -18.935 -11.434  16.740  0.00  0.00    -0.059 C 
ATOM     55  H   SV6 d   1     -18.754 -13.551  17.052  0.00  0.00     0.033 H 
ATOM     56  H   SV6 d   1     -17.767 -12.542  18.161  0.00  0.00     0.033 H 
ATOM     57  H   SV6 d   1     -18.873 -10.525  17.339  0.00  0.00     0.033 H 
ATOM     58  H   SV6 d   1     -18.166 -11.442  15.968  0.00  0.00     0.033 H 
ATOM     59  H   SV6 d   1     -20.365 -12.386  15.449  0.00  0.00     0.043 H 
ENDBRANCH  28  43
ENDBRANCH  25  28
ENDBRANCH  22  24
BRANCH  22  60
ATOM     60  CAZ SV6 d   1     -17.691  -7.434  12.656  0.00  0.00    -0.022 C 
BRANCH  60  61
ATOM     61  CBC SV6 d   1     -17.812  -6.256  13.620  0.00  0.00    -0.067 C 
ATOM     62  H   SV6 d   1     -18.685  -6.398  14.257  0.00  0.00     0.028 H 
ATOM     63  H   SV6 d   1     -16.915  -6.200  14.237  0.00  0.00     0.028 H 
ATOM     64  H   SV6 d   1     -17.922  -5.333  13.051  0.00  0.00     0.028 H 
ENDBRANCH  60  61
BRANCH  60  65
ATOM     65  CBD SV6 d   1     -18.945  -7.456  11.766  0.00  0.00    -0.067 C 
ATOM     66  H   SV6 d   1     -18.839  -8.234  11.010  0.00  0.00     0.028 H 
ATOM     67  H   SV6 d   1     -19.822  -7.662  12.380  0.00  0.00     0.028 H 
ATOM     68  H   SV6 d   1     -19.060  -6.488  11.279  0.00  0.00     0.028 H 
ENDBRANCH  60  65
BRANCH  60  69
ATOM     69  CBA SV6 d   1     -16.473  -7.182  11.743  0.00  0.00    -0.067 C 
ATOM     70  H   SV6 d   1     -15.563  -7.187  12.343  0.00  0.00     0.028 H 
ATOM     71  H   SV6 d   1     -16.417  -7.967  10.989  0.00  0.00     0.028 H 
ATOM     72  H   SV6 d   1     -16.581  -6.214  11.254  0.00  0.00     0.028 H 
ENDBRANCH  60  69
ENDBRANCH  22  60
ENDBRANCH   1  22
BRANCH   4  73
ATOM     73  C   SV6 d   1     -13.112  -8.882  14.031  0.00  0.00     0.241 C 
ATOM     74  O   SV6 d   1     -13.089  -8.531  12.850  0.00  0.00    -0.271 OA
ATOM     75  NAE SV6 d   1     -12.438  -8.272  15.009  0.00  0.00    -0.352 N 
ATOM     76  H   SV6 d   1     -12.461  -8.643  15.959  0.00  0.00     0.163 HD
BRANCH  75  77
ATOM     77  CAH SV6 d   1     -11.659  -7.055  14.701  0.00  0.00     0.045 C 
ATOM     78  H   SV6 d   1     -11.708  -6.892  13.624  0.00  0.00     0.077 H 
BRANCH  77  79
ATOM     79  CAI SV6 d   1     -10.164  -7.184  14.997  0.00  0.00     0.131 C 
ATOM     80  H   SV6 d   1     -10.055  -7.195  16.081  0.00  0.00     0.101 H 
BRANCH  79  81
ATOM     81  CAM SV6 d   1      -9.398  -6.015  14.398  0.00  0.00     0.248 C 
ATOM     82  NAA SV6 d   1      -9.164  -6.143  13.099  0.00  0.00    -0.354 N 
ATOM     83  H   SV6 d   1      -9.464  -6.990  12.617  0.00  0.00     0.162 HD
ATOM     84  OBS SV6 d   1      -9.087  -5.046  15.081  0.00  0.00    -0.271 OA
BRANCH  82  85
ATOM     85  CAN SV6 d   1      -8.484  -5.093  12.345  0.00  0.00     0.012 A 
ATOM     86  CAO SV6 d   1      -7.037  -5.401  12.027  0.00  0.00    -0.044 A 
ATOM     87  CAP SV6 d   1      -8.100  -5.489  10.926  0.00  0.00    -0.044 A 
ATOM     88  H   SV6 d   1      -6.222  -6.005  12.427  0.00  0.00     0.036 H 
ATOM     89  H   SV6 d   1      -6.053  -4.957  12.181  0.00  0.00     0.036 H 
ATOM     90  H   SV6 d   1      -8.257  -5.143   9.904  0.00  0.00     0.036 H 
ATOM     91  H   SV6 d   1      -8.424  -6.181  10.149  0.00  0.00     0.036 H 
ATOM     92  H   SV6 d   1      -9.013  -4.251  12.791  0.00  0.00     0.072 H 
ENDBRANCH  82  85
ENDBRANCH  79  81
BRANCH  79  93
ATOM     93  OBR SV6 d   1      -9.632  -8.378  14.454  0.00  0.00    -0.384 OA
ATOM     94  H   SV6 d   1     -10.102  -9.131  14.819  0.00  0.00     0.210 HD
ENDBRANCH  79  93
ENDBRANCH  77  79
BRANCH  77  95
ATOM     95  CAJ SV6 d   1     -12.291  -5.861  15.443  0.00  0.00    -0.044 C 
ATOM     96  H   SV6 d   1     -11.581  -5.035  15.490  0.00  0.00     0.036 H 
ATOM     97  H   SV6 d   1     -12.553  -6.152  16.460  0.00  0.00     0.036 H 
BRANCH  95  98
ATOM     98  CAK SV6 d   1     -13.562  -5.422  14.676  0.00  0.00    -0.067 C 
ATOM     99  H   SV6 d   1     -14.261  -6.258  14.667  0.00  0.00     0.032 H 
ATOM    100  H   SV6 d   1     -13.268  -5.126  13.669  0.00  0.00     0.032 H 
BRANCH  98 101
ATOM    101  CAL SV6 d   1     -14.246  -4.237  15.340  0.00  0.00    -0.076 C 
ATOM    102  H   SV6 d   1     -14.536  -4.509  16.355  0.00  0.00     0.027 H 
ATOM    103  H   SV6 d   1     -13.557  -3.393  15.371  0.00  0.00     0.027 H 
ATOM    104  H   SV6 d   1     -15.133  -3.963  14.768  0.00  0.00     0.027 H 
ENDBRANCH  98 101
ENDBRANCH  95  98
ENDBRANCH  77  95
ENDBRANCH  75  77
ENDBRANCH   4  73
TORSDOF 19
