REMARK  19 active torsions:
REMARK  status: ('A' for Active; 'I' for Inactive)
REMARK    1  A    between atoms: CBB_4  and  CBN_1 
REMARK       I    between atoms: NAD_9  and  CBB_4 
REMARK    2  A    between atoms: CAY_10  and  NAD_9 
REMARK    3  A    between atoms: CAX_11  and  CAY_10 
REMARK    4  A    between atoms: CAY_10  and  CBH_13 
REMARK       I    between atoms: NAC_19  and  CAX_11 
REMARK    5  A    between atoms: CAW_20  and  NAC_19 
REMARK    6  A    between atoms: CAW_20  and  CAZ_21 
REMARK    7  A    between atoms: CAV_25  and  CAW_20 
REMARK    8  A    between atoms: CAZ_21  and  CBC_22 
REMARK    9  A    between atoms: CAZ_21  and  CBD_23 
REMARK   10  A    between atoms: CAZ_21  and  CBA_24 
REMARK       I    between atoms: N_28  and  CAV_25 
REMARK   11  A    between atoms: C_27  and  CA_30 
REMARK       I    between atoms: NAE_38  and  C_27 
REMARK       I    between atoms: CAM_44  and  NAA_37 
REMARK   12  A    between atoms: NAA_37  and  CAN_45 
REMARK   13  A    between atoms: CAH_39  and  NAE_38 
REMARK   14  A    between atoms: CAI_40  and  CAH_39 
REMARK   15  A    between atoms: CAH_39  and  CAJ_41 
REMARK   16  A    between atoms: CAI_40  and  CAM_44 
REMARK   17  A    between atoms: CAI_40  and  OBR_48 
REMARK   18  A    between atoms: CAJ_41  and  CAK_42 
REMARK   19  A    between atoms: CAK_42  and  CAL_43 
ROOT
ATOM      1  CAV SV6 d   1     -16.304  -8.940  14.207  0.00  0.00     0.244 C 
ATOM      2  OBT SV6 d   1     -16.118  -8.183  15.167  0.00  0.00    -0.271 OA
ATOM      3  N   SV6 d   1     -15.374  -9.829  13.846  0.00  0.00    -0.336 N 
ATOM      4  CA  SV6 d   1     -14.076  -9.980  14.538  0.00  0.00     0.095 C 
ATOM      5  CB  SV6 d   1     -13.474 -11.288  14.036  0.00  0.00    -0.021 C 
ATOM      6  CG  SV6 d   1     -14.147 -11.537  12.682  0.00  0.00    -0.033 C 
ATOM      7  CBE SV6 d   1     -13.881 -12.475  14.904  0.00  0.00    -0.059 C 
ATOM      8  CBF SV6 d   1     -13.854 -13.643  13.920  0.00  0.00    -0.064 C 
ATOM      9  CD1 SV6 d   1     -15.490 -10.786  12.723  0.00  0.00     0.002 C 
ATOM     10  CD2 SV6 d   1     -14.390 -13.043  12.614  0.00  0.00    -0.060 C 
ATOM     11  H   SV6 d   1     -14.163 -10.002  15.624  0.00  0.00     0.088 H 
ATOM     12  H   SV6 d   1     -12.387 -11.206  14.022  0.00  0.00     0.044 H 
ATOM     13  H   SV6 d   1     -13.561 -11.205  11.825  0.00  0.00     0.043 H 
ATOM     14  H   SV6 d   1     -14.855 -12.341  15.375  0.00  0.00     0.033 H 
ATOM     15  H   SV6 d   1     -13.217 -12.624  15.756  0.00  0.00     0.033 H 
ATOM     16  H   SV6 d   1     -14.454 -14.486  14.264  0.00  0.00     0.033 H 
ATOM     17  H   SV6 d   1     -12.854 -14.060  13.802  0.00  0.00     0.033 H 
ATOM     18  H   SV6 d   1     -15.690 -10.274  11.782  0.00  0.00     0.065 H 
ATOM     19  H   SV6 d   1     -16.326 -11.470  12.866  0.00  0.00     0.065 H 
ATOM     20  H   SV6 d   1     -13.882 -13.477  11.753  0.00  0.00     0.033 H 
ATOM     21  H   SV6 d   1     -15.452 -13.258  12.498  0.00  0.00     0.033 H 
ENDROOT
BRANCH   1  22
ATOM     22  CAW SV6 d   1     -17.598  -8.834  13.401  0.00  0.00     0.096 C 
ATOM     23  H   SV6 d   1     -17.578  -9.599  12.624  0.00  0.00     0.088 H 
BRANCH  22  24
ATOM     24  NAC SV6 d   1     -18.750  -9.058  14.292  0.00  0.00    -0.345 N 
ATOM     25  CAX SV6 d   1     -19.546 -10.109  14.164  0.00  0.00     0.241 C 
ATOM     26  OBU SV6 d   1     -19.439 -10.970  13.292  0.00  0.00    -0.271 OA
ATOM     27  H   SV6 d   1     -18.941  -8.382  15.031  0.00  0.00     0.163 HD
BRANCH  25  28
ATOM     28  CAY SV6 d   1     -20.689 -10.158  15.174  0.00  0.00     0.093 C 
ATOM     29  H   SV6 d   1     -20.647  -9.299  15.843  0.00  0.00     0.088 H 
BRANCH  28  30
ATOM     30  NAD SV6 d   1     -21.958 -10.136  14.408  0.00  0.00    -0.342 N 
ATOM     31  CBB SV6 d   1     -22.608  -9.010  14.129  0.00  0.00     0.272 C 
ATOM     32  OBW SV6 d   1     -22.264  -7.886  14.503  0.00  0.00    -0.266 OA
ATOM     33  H   SV6 d   1     -22.348 -11.020  14.082  0.00  0.00     0.163 HD
BRANCH  31  34
ATOM     34  CBN SV6 d   1     -23.873  -9.204  13.275  0.00  0.00     0.141 A 
ATOM     35  CBQ SV6 d   1     -24.514  -8.100  12.711  0.00  0.00     0.035 A 
ATOM     36  NAG SV6 d   1     -25.604  -8.267  11.970  0.00  0.00    -0.269 NA
ATOM     37  H   SV6 d   1     -24.119  -7.098  12.879  0.00  0.00     0.118 H 
ATOM     38  CBP SV6 d   1     -26.085  -9.486  11.758  0.00  0.00     0.019 A 
ATOM     39  CBO SV6 d   1     -25.450 -10.599  12.317  0.00  0.00     0.020 A 
ATOM     40  H   SV6 d   1     -26.977  -9.620  11.146  0.00  0.00     0.117 H 
ATOM     41  NAF SV6 d   1     -24.360 -10.440  13.057  0.00  0.00    -0.253 NA
ATOM     42  H   SV6 d   1     -25.851 -11.598  12.145  0.00  0.00     0.117 H 
ENDBRANCH  31  34
ENDBRANCH  28  30
BRANCH  28  43
ATOM     43  CBH SV6 d   1     -20.581 -11.400  16.077  0.00  0.00    -0.026 C 
ATOM     44  CBI SV6 d   1     -21.724 -11.424  17.107  0.00  0.00    -0.059 C 
ATOM     45  CBJ SV6 d   1     -21.623 -12.665  17.999  0.00  0.00    -0.065 C 
ATOM     46  H   SV6 d   1     -22.676 -11.448  16.576  0.00  0.00     0.033 H 
ATOM     47  H   SV6 d   1     -21.654 -10.534  17.732  0.00  0.00     0.033 H 
ATOM     48  CBK SV6 d   1     -20.264 -12.718  18.710  0.00  0.00    -0.065 C 
ATOM     49  H   SV6 d   1     -21.728 -13.554  17.377  0.00  0.00     0.033 H 
ATOM     50  H   SV6 d   1     -22.411 -12.622  18.751  0.00  0.00     0.033 H 
ATOM     51  CBL SV6 d   1     -19.107 -12.677  17.706  0.00  0.00    -0.065 C 
ATOM     52  H   SV6 d   1     -20.203 -13.650  19.271  0.00  0.00     0.033 H 
ATOM     53  H   SV6 d   1     -20.183 -11.852  19.368  0.00  0.00     0.033 H 
ATOM     54  CBM SV6 d   1     -19.222 -11.451  16.800  0.00  0.00    -0.059 C 
ATOM     55  H   SV6 d   1     -19.143 -13.575  17.090  0.00  0.00     0.033 H 
ATOM     56  H   SV6 d   1     -18.166 -12.623  18.254  0.00  0.00     0.033 H 
ATOM     57  H   SV6 d   1     -19.129 -10.558  17.418  0.00  0.00     0.033 H 
ATOM     58  H   SV6 d   1     -18.435 -11.506  16.047  0.00  0.00     0.033 H 
ATOM     59  H   SV6 d   1     -20.661 -12.279  15.437  0.00  0.00     0.043 H 
ENDBRANCH  28  43
ENDBRANCH  25  28
ENDBRANCH  22  24
BRANCH  22  60
ATOM     60  CAZ SV6 d   1     -17.725  -7.465  12.692  0.00  0.00    -0.022 C 
BRANCH  60  61
ATOM     61  CBC SV6 d   1     -17.769  -6.250  13.648  0.00  0.00    -0.067 C 
ATOM     62  H   SV6 d   1     -18.627  -6.344  14.314  0.00  0.00     0.028 H 
ATOM     63  H   SV6 d   1     -16.852  -6.219  14.237  0.00  0.00     0.028 H 
ATOM     64  H   SV6 d   1     -17.859  -5.333  13.065  0.00  0.00     0.028 H 
ENDBRANCH  60  61
BRANCH  60  65
ATOM     65  CBD SV6 d   1     -19.019  -7.481  11.839  0.00  0.00    -0.067 C 
ATOM     66  H   SV6 d   1     -18.957  -8.281  11.102  0.00  0.00     0.028 H 
ATOM     67  H   SV6 d   1     -19.878  -7.649  12.488  0.00  0.00     0.028 H 
ATOM     68  H   SV6 d   1     -19.129  -6.524  11.329  0.00  0.00     0.028 H 
ENDBRANCH  60  65
BRANCH  60  69
ATOM     69  CBA SV6 d   1     -16.509  -7.297  11.763  0.00  0.00    -0.067 C 
ATOM     70  H   SV6 d   1     -15.594  -7.332  12.354  0.00  0.00     0.028 H 
ATOM     71  H   SV6 d   1     -16.500  -8.103  11.029  0.00  0.00     0.028 H 
ATOM     72  H   SV6 d   1     -16.575  -6.337  11.250  0.00  0.00     0.028 H 
ENDBRANCH  60  69
ENDBRANCH  22  60
ENDBRANCH   1  22
BRANCH   4  73
ATOM     73  C   SV6 d   1     -13.211  -8.797  14.128  0.00  0.00     0.241 C 
ATOM     74  O   SV6 d   1     -13.173  -8.415  12.954  0.00  0.00    -0.271 OA
ATOM     75  NAE SV6 d   1     -12.520  -8.199  15.095  0.00  0.00    -0.352 N 
ATOM     76  H   SV6 d   1     -12.502  -8.584  16.039  0.00  0.00     0.163 HD
BRANCH  75  77
ATOM     77  CAH SV6 d   1     -11.787  -6.977  14.771  0.00  0.00     0.045 C 
ATOM     78  H   SV6 d   1     -11.881  -6.773  13.704  0.00  0.00     0.077 H 
BRANCH  77  79
ATOM     79  CAI SV6 d   1     -10.294  -7.116  15.036  0.00  0.00     0.131 C 
ATOM     80  H   SV6 d   1     -10.156  -7.099  16.117  0.00  0.00     0.101 H 
BRANCH  79  81
ATOM     81  CAM SV6 d   1      -9.510  -5.964  14.424  0.00  0.00     0.248 C 
ATOM     82  NAA SV6 d   1      -9.321  -6.073  13.123  0.00  0.00    -0.354 N 
ATOM     83  H   SV6 d   1      -9.674  -6.897  12.637  0.00  0.00     0.162 HD
ATOM     84  OBS SV6 d   1      -9.063  -5.052  15.117  0.00  0.00    -0.271 OA
BRANCH  82  85
ATOM     85  CAN SV6 d   1      -8.618  -5.041  12.359  0.00  0.00     0.012 A 
ATOM     86  CAO SV6 d   1      -7.138  -5.325  12.139  0.00  0.00    -0.044 A 
ATOM     87  CAP SV6 d   1      -8.133  -5.491  10.983  0.00  0.00    -0.044 A 
ATOM     88  H   SV6 d   1      -6.333  -5.887  12.613  0.00  0.00     0.036 H 
ATOM     89  H   SV6 d   1      -6.176  -4.848  12.329  0.00  0.00     0.036 H 
ATOM     90  H   SV6 d   1      -8.235  -5.193   9.940  0.00  0.00     0.036 H 
ATOM     91  H   SV6 d   1      -8.392  -6.228  10.223  0.00  0.00     0.036 H 
ATOM     92  H   SV6 d   1      -9.195  -4.195  12.732  0.00  0.00     0.072 H 
ENDBRANCH  82  85
ENDBRANCH  79  81
BRANCH  79  93
ATOM     93  OBR SV6 d   1      -9.802  -8.347  14.509  0.00  0.00    -0.384 OA
ATOM     94  H   SV6 d   1     -10.294  -9.077  14.892  0.00  0.00     0.210 HD
ENDBRANCH  79  93
ENDBRANCH  77  79
BRANCH  77  95
ATOM     95  CAJ SV6 d   1     -12.397  -5.825  15.578  0.00  0.00    -0.044 C 
ATOM     96  H   SV6 d   1     -11.794  -4.928  15.436  0.00  0.00     0.036 H 
ATOM     97  H   SV6 d   1     -12.416  -6.096  16.634  0.00  0.00     0.036 H 
BRANCH  95  98
ATOM     98  CAK SV6 d   1     -13.832  -5.553  15.099  0.00  0.00    -0.067 C 
ATOM     99  H   SV6 d   1     -14.511  -6.243  15.600  0.00  0.00     0.032 H 
ATOM    100  H   SV6 d   1     -13.880  -5.693  14.019  0.00  0.00     0.032 H 
BRANCH  98 101
ATOM    101  CAL SV6 d   1     -14.238  -4.125  15.433  0.00  0.00    -0.076 C 
ATOM    102  H   SV6 d   1     -14.188  -3.977  16.512  0.00  0.00     0.027 H 
ATOM    103  H   SV6 d   1     -13.559  -3.430  14.938  0.00  0.00     0.027 H 
ATOM    104  H   SV6 d   1     -15.257  -3.948  15.088  0.00  0.00     0.027 H 
ENDBRANCH  98 101
ENDBRANCH  95  98
ENDBRANCH  77  95
ENDBRANCH  75  77
ENDBRANCH   4  73
TORSDOF 19
