REMARK  19 active torsions:
REMARK  status: ('A' for Active; 'I' for Inactive)
REMARK    1  A    between atoms: CBB_4  and  CBN_1 
REMARK       I    between atoms: NAD_9  and  CBB_4 
REMARK    2  A    between atoms: CAY_10  and  NAD_9 
REMARK    3  A    between atoms: CAX_11  and  CAY_10 
REMARK    4  A    between atoms: CAY_10  and  CBH_13 
REMARK       I    between atoms: NAC_19  and  CAX_11 
REMARK    5  A    between atoms: CAW_20  and  NAC_19 
REMARK    6  A    between atoms: CAW_20  and  CAZ_21 
REMARK    7  A    between atoms: CAV_25  and  CAW_20 
REMARK    8  A    between atoms: CAZ_21  and  CBC_22 
REMARK    9  A    between atoms: CAZ_21  and  CBD_23 
REMARK   10  A    between atoms: CAZ_21  and  CBA_24 
REMARK       I    between atoms: N_28  and  CAV_25 
REMARK   11  A    between atoms: C_27  and  CA_30 
REMARK       I    between atoms: NAE_38  and  C_27 
REMARK       I    between atoms: CAM_44  and  NAA_37 
REMARK   12  A    between atoms: NAA_37  and  CAN_45 
REMARK   13  A    between atoms: CAH_39  and  NAE_38 
REMARK   14  A    between atoms: CAI_40  and  CAH_39 
REMARK   15  A    between atoms: CAH_39  and  CAJ_41 
REMARK   16  A    between atoms: CAI_40  and  CAM_44 
REMARK   17  A    between atoms: CAI_40  and  OBR_48 
REMARK   18  A    between atoms: CAJ_41  and  CAK_42 
REMARK   19  A    between atoms: CAK_42  and  CAL_43 
ROOT
ATOM      1  CAV SV6 d   1      -5.620  16.590  11.049  0.00  0.00     0.244 C 
ATOM      2  OBT SV6 d   1      -5.987  17.498  10.318  0.00  0.00    -0.271 OA
ATOM      3  N   SV6 d   1      -5.602  15.302  10.645  0.00  0.00    -0.336 N 
ATOM      4  CA  SV6 d   1      -6.072  14.899   9.312  0.00  0.00     0.095 C 
ATOM      5  CB  SV6 d   1      -5.498  13.501   9.119  0.00  0.00    -0.021 C 
ATOM      6  CG  SV6 d   1      -4.785  13.108  10.403  0.00  0.00    -0.033 C 
ATOM      7  CBE SV6 d   1      -4.453  13.412   8.007  0.00  0.00    -0.059 C 
ATOM      8  CBF SV6 d   1      -3.098  13.575   8.701  0.00  0.00    -0.064 C 
ATOM      9  CD1 SV6 d   1      -5.166  14.150  11.436  0.00  0.00     0.002 C 
ATOM     10  CD2 SV6 d   1      -3.280  13.096  10.139  0.00  0.00    -0.060 C 
ATOM     11  H   SV6 d   1      -5.744  15.565   8.514  0.00  0.00     0.088 H 
ATOM     12  H   SV6 d   1      -6.334  12.853   8.856  0.00  0.00     0.044 H 
ATOM     13  H   SV6 d   1      -5.065  12.116  10.758  0.00  0.00     0.043 H 
ATOM     14  H   SV6 d   1      -4.609  14.182   7.251  0.00  0.00     0.033 H 
ATOM     15  H   SV6 d   1      -4.517  12.463   7.476  0.00  0.00     0.033 H 
ATOM     16  H   SV6 d   1      -2.772  14.615   8.677  0.00  0.00     0.033 H 
ATOM     17  H   SV6 d   1      -2.329  12.993   8.193  0.00  0.00     0.033 H 
ATOM     18  H   SV6 d   1      -5.947  13.795  12.108  0.00  0.00     0.065 H 
ATOM     19  H   SV6 d   1      -4.334  14.397  12.096  0.00  0.00     0.065 H 
ATOM     20  H   SV6 d   1      -2.864  12.098  10.277  0.00  0.00     0.033 H 
ATOM     21  H   SV6 d   1      -2.752  13.743  10.839  0.00  0.00     0.033 H 
ENDROOT
BRANCH   1  22
ATOM     22  CAW SV6 d   1      -5.123  16.903  12.446  0.00  0.00     0.096 C 
ATOM     23  H   SV6 d   1      -4.924  15.963  12.961  0.00  0.00     0.088 H 
BRANCH  22  24
ATOM     24  NAC SV6 d   1      -3.892  17.663  12.333  0.00  0.00    -0.345 N 
ATOM     25  CAX SV6 d   1      -2.713  17.229  12.796  0.00  0.00     0.241 C 
ATOM     26  OBU SV6 d   1      -2.498  16.170  13.375  0.00  0.00    -0.271 OA
ATOM     27  H   SV6 d   1      -3.927  18.575  11.877  0.00  0.00     0.163 HD
BRANCH  25  28
ATOM     28  CAY SV6 d   1      -1.580  18.168  12.523  0.00  0.00     0.093 C 
ATOM     29  H   SV6 d   1      -1.982  19.099  12.122  0.00  0.00     0.088 H 
BRANCH  28  30
ATOM     30  NAD SV6 d   1      -0.844  18.465  13.739  0.00  0.00    -0.342 N 
ATOM     31  CBB SV6 d   1      -1.076  19.571  14.446  0.00  0.00     0.272 C 
ATOM     32  OBW SV6 d   1      -1.908  20.397  14.103  0.00  0.00    -0.266 OA
ATOM     33  H   SV6 d   1      -0.131  17.810  14.060  0.00  0.00     0.163 HD
BRANCH  31  34
ATOM     34  CBN SV6 d   1      -0.279  19.796  15.700  0.00  0.00     0.141 A 
ATOM     35  CBQ SV6 d   1       0.596  18.816  16.177  0.00  0.00     0.035 A 
ATOM     36  NAG SV6 d   1       1.300  19.043  17.296  0.00  0.00    -0.269 NA
ATOM     37  H   SV6 d   1       0.706  17.872  15.643  0.00  0.00     0.118 H 
ATOM     38  CBP SV6 d   1       1.154  20.201  17.960  0.00  0.00     0.019 A 
ATOM     39  CBO SV6 d   1       0.280  21.179  17.499  0.00  0.00     0.020 A 
ATOM     40  H   SV6 d   1       1.727  20.376  18.870  0.00  0.00     0.117 H 
ATOM     41  NAF SV6 d   1      -0.415  20.958  16.380  0.00  0.00    -0.253 NA
ATOM     42  H   SV6 d   1       0.163  22.115  18.044  0.00  0.00     0.117 H 
ENDBRANCH  31  34
ENDBRANCH  28  30
BRANCH  28  43
ATOM     43  CBH SV6 d   1      -0.629  17.498  11.531  0.00  0.00    -0.026 C 
ATOM     44  CBI SV6 d   1       0.639  18.333  11.308  0.00  0.00    -0.059 C 
ATOM     45  CBJ SV6 d   1       1.530  17.810  10.183  0.00  0.00    -0.065 C 
ATOM     46  H   SV6 d   1       1.221  18.294  12.229  0.00  0.00     0.033 H 
ATOM     47  H   SV6 d   1       0.322  19.339  11.031  0.00  0.00     0.033 H 
ATOM     48  CBK SV6 d   1       0.737  17.457   8.927  0.00  0.00    -0.065 C 
ATOM     49  H   SV6 d   1       2.022  16.904  10.537  0.00  0.00     0.033 H 
ATOM     50  H   SV6 d   1       2.240  18.595   9.923  0.00  0.00     0.033 H 
ATOM     51  CBL SV6 d   1      -0.447  16.540   9.233  0.00  0.00    -0.065 C 
ATOM     52  H   SV6 d   1       1.403  16.934   8.240  0.00  0.00     0.033 H 
ATOM     53  H   SV6 d   1       0.349  18.381   8.499  0.00  0.00     0.033 H 
ATOM     54  CBM SV6 d   1      -1.365  17.232  10.219  0.00  0.00    -0.059 C 
ATOM     55  H   SV6 d   1      -0.086  15.605   9.661  0.00  0.00     0.033 H 
ATOM     56  H   SV6 d   1      -0.991  16.323   8.314  0.00  0.00     0.033 H 
ATOM     57  H   SV6 d   1      -1.692  18.182   9.795  0.00  0.00     0.033 H 
ATOM     58  H   SV6 d   1      -2.224  16.591  10.416  0.00  0.00     0.033 H 
ATOM     59  H   SV6 d   1      -0.302  16.546  11.949  0.00  0.00     0.043 H 
ENDBRANCH  28  43
ENDBRANCH  25  28
ENDBRANCH  22  24
BRANCH  22  60
ATOM     60  CAZ SV6 d   1      -6.165  17.579  13.339  0.00  0.00    -0.022 C 
BRANCH  60  61
ATOM     61  CBC SV6 d   1      -6.565  18.960  12.824  0.00  0.00    -0.067 C 
ATOM     62  H   SV6 d   1      -5.685  19.602  12.788  0.00  0.00     0.028 H 
ATOM     63  H   SV6 d   1      -6.989  18.865  11.824  0.00  0.00     0.028 H 
ATOM     64  H   SV6 d   1      -7.306  19.395  13.494  0.00  0.00     0.028 H 
ENDBRANCH  60  61
BRANCH  60  65
ATOM     65  CBD SV6 d   1      -5.578  17.762  14.750  0.00  0.00    -0.067 C 
ATOM     66  H   SV6 d   1      -5.318  16.788  15.163  0.00  0.00     0.028 H 
ATOM     67  H   SV6 d   1      -4.685  18.384  14.693  0.00  0.00     0.028 H 
ATOM     68  H   SV6 d   1      -6.317  18.244  15.390  0.00  0.00     0.028 H 
ENDBRANCH  60  65
BRANCH  60  69
ATOM     69  CBA SV6 d   1      -7.378  16.646  13.400  0.00  0.00    -0.067 C 
ATOM     70  H   SV6 d   1      -7.771  16.497  12.394  0.00  0.00     0.028 H 
ATOM     71  H   SV6 d   1      -7.076  15.686  13.819  0.00  0.00     0.028 H 
ATOM     72  H   SV6 d   1      -8.147  17.093  14.030  0.00  0.00     0.028 H 
ENDBRANCH  60  69
ENDBRANCH  22  60
ENDBRANCH   1  22
BRANCH   4  73
ATOM     73  C   SV6 d   1      -7.586  14.945   9.243  0.00  0.00     0.241 C 
ATOM     74  O   SV6 d   1      -8.252  14.390  10.122  0.00  0.00    -0.271 OA
ATOM     75  NAE SV6 d   1      -8.167  15.614   8.235  0.00  0.00    -0.352 N 
ATOM     76  H   SV6 d   1      -7.588  16.039   7.511  0.00  0.00     0.163 HD
BRANCH  75  77
ATOM     77  CAH SV6 d   1      -9.627  15.739   8.166  0.00  0.00     0.045 C 
ATOM     78  H   SV6 d   1     -10.124  15.220   8.986  0.00  0.00     0.077 H 
BRANCH  77  79
ATOM     79  CAI SV6 d   1     -10.217  15.079   6.906  0.00  0.00     0.131 C 
ATOM     80  H   SV6 d   1      -9.917  15.704   6.065  0.00  0.00     0.101 H 
BRANCH  79  81
ATOM     81  CAM SV6 d   1     -11.724  14.958   7.029  0.00  0.00     0.248 C 
ATOM     82  NAA SV6 d   1     -12.172  13.849   7.641  0.00  0.00    -0.354 N 
ATOM     83  H   SV6 d   1     -11.496  13.173   7.998  0.00  0.00     0.162 HD
ATOM     84  OBS SV6 d   1     -12.472  15.830   6.581  0.00  0.00    -0.271 OA
BRANCH  82  85
ATOM     85  CAN SV6 d   1     -13.603  13.582   7.811  0.00  0.00     0.012 A 
ATOM     86  CAO SV6 d   1     -13.976  12.934   9.141  0.00  0.00    -0.044 A 
ATOM     87  CAP SV6 d   1     -14.205  14.426   8.930  0.00  0.00    -0.044 A 
ATOM     88  H   SV6 d   1     -13.527  12.273   9.882  0.00  0.00     0.036 H 
ATOM     89  H   SV6 d   1     -14.527  12.065   9.501  0.00  0.00     0.036 H 
ATOM     90  H   SV6 d   1     -15.002  15.157   9.063  0.00  0.00     0.036 H 
ATOM     91  H   SV6 d   1     -14.002  15.365   9.445  0.00  0.00     0.036 H 
ATOM     92  H   SV6 d   1     -13.839  13.365   6.769  0.00  0.00     0.072 H 
ENDBRANCH  82  85
ENDBRANCH  79  81
BRANCH  79  93
ATOM     93  OBR SV6 d   1      -9.745  13.722   6.754  0.00  0.00    -0.384 OA
ATOM     94  H   SV6 d   1      -8.789  13.725   6.670  0.00  0.00     0.210 HD
ENDBRANCH  79  93
ENDBRANCH  77  79
BRANCH  77  95
ATOM     95  CAJ SV6 d   1      -9.870  17.247   8.202  0.00  0.00    -0.044 C 
ATOM     96  H   SV6 d   1     -10.936  17.429   8.067  0.00  0.00     0.036 H 
ATOM     97  H   SV6 d   1      -9.283  17.711   7.409  0.00  0.00     0.036 H 
BRANCH  95  98
ATOM     98  CAK SV6 d   1      -9.441  17.850   9.538  0.00  0.00    -0.067 C 
ATOM     99  H   SV6 d   1      -8.420  17.526   9.741  0.00  0.00     0.032 H 
ATOM    100  H   SV6 d   1     -10.144  17.514  10.300  0.00  0.00     0.032 H 
BRANCH  98 101
ATOM    101  CAL SV6 d   1      -9.457  19.366   9.522  0.00  0.00    -0.076 C 
ATOM    102  H   SV6 d   1      -8.772  19.727   8.755  0.00  0.00     0.027 H 
ATOM    103  H   SV6 d   1     -10.466  19.715   9.304  0.00  0.00     0.027 H 
ATOM    104  H   SV6 d   1      -9.144  19.742  10.496  0.00  0.00     0.027 H 
ENDBRANCH  98 101
ENDBRANCH  95  98
ENDBRANCH  77  95
ENDBRANCH  75  77
ENDBRANCH   4  73
TORSDOF 19
