REMARK  19 active torsions:
REMARK  status: ('A' for Active; 'I' for Inactive)
REMARK    1  A    between atoms: CBB_4  and  CBN_1 
REMARK       I    between atoms: NAD_9  and  CBB_4 
REMARK    2  A    between atoms: CAY_10  and  NAD_9 
REMARK    3  A    between atoms: CAX_11  and  CAY_10 
REMARK    4  A    between atoms: CAY_10  and  CBH_13 
REMARK       I    between atoms: NAC_19  and  CAX_11 
REMARK    5  A    between atoms: CAW_20  and  NAC_19 
REMARK    6  A    between atoms: CAW_20  and  CAZ_21 
REMARK    7  A    between atoms: CAV_25  and  CAW_20 
REMARK    8  A    between atoms: CAZ_21  and  CBC_22 
REMARK    9  A    between atoms: CAZ_21  and  CBD_23 
REMARK   10  A    between atoms: CAZ_21  and  CBA_24 
REMARK       I    between atoms: N_28  and  CAV_25 
REMARK   11  A    between atoms: C_27  and  CA_30 
REMARK       I    between atoms: NAE_38  and  C_27 
REMARK       I    between atoms: CAM_44  and  NAA_37 
REMARK   12  A    between atoms: NAA_37  and  CAN_45 
REMARK   13  A    between atoms: CAH_39  and  NAE_38 
REMARK   14  A    between atoms: CAI_40  and  CAH_39 
REMARK   15  A    between atoms: CAH_39  and  CAJ_41 
REMARK   16  A    between atoms: CAI_40  and  CAM_44 
REMARK   17  A    between atoms: CAI_40  and  OBR_48 
REMARK   18  A    between atoms: CAJ_41  and  CAK_42 
REMARK   19  A    between atoms: CAK_42  and  CAL_43 
ROOT
ATOM      1  CAV SV6 d   1     -16.157  -8.744  14.155  0.00  0.00     0.244 C 
ATOM      2  OBT SV6 d   1     -15.992  -8.149  15.224  0.00  0.00    -0.271 OA
ATOM      3  N   SV6 d   1     -15.216  -9.585  13.698  0.00  0.00    -0.336 N 
ATOM      4  CA  SV6 d   1     -13.928  -9.806  14.374  0.00  0.00     0.095 C 
ATOM      5  CB  SV6 d   1     -13.296 -11.040  13.719  0.00  0.00    -0.021 C 
ATOM      6  CG  SV6 d   1     -14.035 -11.245  12.383  0.00  0.00    -0.033 C 
ATOM      7  CBE SV6 d   1     -13.601 -12.302  14.530  0.00  0.00    -0.059 C 
ATOM      8  CBF SV6 d   1     -13.612 -13.384  13.464  0.00  0.00    -0.064 C 
ATOM      9  CD1 SV6 d   1     -15.306 -10.354  12.439  0.00  0.00     0.002 C 
ATOM     10  CD2 SV6 d   1     -14.440 -12.729  12.356  0.00  0.00    -0.060 C 
ATOM     11  H   SV6 d   1     -14.013  -9.968  15.448  0.00  0.00     0.088 H 
ATOM     12  H   SV6 d   1     -12.220 -10.889  13.631  0.00  0.00     0.044 H 
ATOM     13  H   SV6 d   1     -13.440 -10.990  11.507  0.00  0.00     0.043 H 
ATOM     14  H   SV6 d   1     -14.538 -12.238  15.083  0.00  0.00     0.033 H 
ATOM     15  H   SV6 d   1     -12.873 -12.488  15.320  0.00  0.00     0.033 H 
ATOM     16  H   SV6 d   1     -14.027 -14.330  13.812  0.00  0.00     0.033 H 
ATOM     17  H   SV6 d   1     -12.615 -13.681  13.140  0.00  0.00     0.033 H 
ATOM     18  H   SV6 d   1     -15.358  -9.690  11.576  0.00  0.00     0.065 H 
ATOM     19  H   SV6 d   1     -16.212 -10.960  12.413  0.00  0.00     0.065 H 
ATOM     20  H   SV6 d   1     -14.247 -13.183  11.384  0.00  0.00     0.033 H 
ATOM     21  H   SV6 d   1     -15.510 -12.859  12.520  0.00  0.00     0.033 H 
ENDROOT
BRANCH   1  22
ATOM     22  CAW SV6 d   1     -17.463  -8.546  13.391  0.00  0.00     0.096 C 
ATOM     23  H   SV6 d   1     -17.493  -9.223  12.538  0.00  0.00     0.088 H 
BRANCH  22  24
ATOM     24  NAC SV6 d   1     -18.595  -8.852  14.294  0.00  0.00    -0.345 N 
ATOM     25  CAX SV6 d   1     -19.569  -9.683  13.923  0.00  0.00     0.241 C 
ATOM     26  OBU SV6 d   1     -19.628 -10.205  12.809  0.00  0.00    -0.271 OA
ATOM     27  H   SV6 d   1     -18.631  -8.419  15.217  0.00  0.00     0.163 HD
BRANCH  25  28
ATOM     28  CAY SV6 d   1     -20.693  -9.890  14.947  0.00  0.00     0.093 C 
ATOM     29  H   SV6 d   1     -20.700  -9.048  15.639  0.00  0.00     0.088 H 
BRANCH  28  30
ATOM     30  NAD SV6 d   1     -21.959  -9.993  14.204  0.00  0.00    -0.342 N 
ATOM     31  CBB SV6 d   1     -22.734  -8.934  13.979  0.00  0.00     0.272 C 
ATOM     32  OBW SV6 d   1     -22.470  -7.800  14.381  0.00  0.00    -0.266 OA
ATOM     33  H   SV6 d   1     -22.252 -10.904  13.850  0.00  0.00     0.163 HD
BRANCH  31  34
ATOM     34  CBN SV6 d   1     -24.015  -9.216  13.173  0.00  0.00     0.141 A 
ATOM     35  CBQ SV6 d   1     -24.656 -10.455  13.261  0.00  0.00     0.035 A 
ATOM     36  NAG SV6 d   1     -25.758 -10.689  12.562  0.00  0.00    -0.269 NA
ATOM     37  H   SV6 d   1     -24.248 -11.232  13.907  0.00  0.00     0.118 H 
ATOM     38  CBP SV6 d   1     -26.263  -9.750  11.773  0.00  0.00     0.019 A 
ATOM     39  CBO SV6 d   1     -25.634  -8.507  11.675  0.00  0.00     0.020 A 
ATOM     40  H   SV6 d   1     -27.169  -9.949  11.201  0.00  0.00     0.117 H 
ATOM     41  NAF SV6 d   1     -24.531  -8.265  12.372  0.00  0.00    -0.253 NA
ATOM     42  H   SV6 d   1     -26.049  -7.736  11.026  0.00  0.00     0.117 H 
ENDBRANCH  31  34
ENDBRANCH  28  30
BRANCH  28  43
ATOM     43  CBH SV6 d   1     -20.487 -11.158  15.786  0.00  0.00    -0.026 C 
ATOM     44  CBI SV6 d   1     -21.761 -11.500  16.571  0.00  0.00    -0.059 C 
ATOM     45  CBJ SV6 d   1     -21.605 -12.825  17.322  0.00  0.00    -0.065 C 
ATOM     46  H   SV6 d   1     -22.590 -11.592  15.869  0.00  0.00     0.033 H 
ATOM     47  H   SV6 d   1     -21.948 -10.708  17.296  0.00  0.00     0.033 H 
ATOM     48  CBK SV6 d   1     -20.401 -12.791  18.270  0.00  0.00    -0.065 C 
ATOM     49  H   SV6 d   1     -21.450 -13.620  16.593  0.00  0.00     0.033 H 
ATOM     50  H   SV6 d   1     -22.506 -12.997  17.912  0.00  0.00     0.033 H 
ATOM     51  CBL SV6 d   1     -19.121 -12.317  17.560  0.00  0.00    -0.065 C 
ATOM     52  H   SV6 d   1     -20.231 -13.802  18.641  0.00  0.00     0.033 H 
ATOM     53  H   SV6 d   1     -20.622 -12.092  19.076  0.00  0.00     0.033 H 
ATOM     54  CBM SV6 d   1     -19.336 -11.011  16.782  0.00  0.00    -0.059 C 
ATOM     55  H   SV6 d   1     -18.823 -13.088  16.850  0.00  0.00     0.033 H 
ATOM     56  H   SV6 d   1     -18.360 -12.137  18.319  0.00  0.00     0.033 H 
ATOM     57  H   SV6 d   1     -19.580 -10.217  17.488  0.00  0.00     0.033 H 
ATOM     58  H   SV6 d   1     -18.424 -10.773  16.234  0.00  0.00     0.033 H 
ATOM     59  H   SV6 d   1     -20.246 -11.956  15.084  0.00  0.00     0.043 H 
ENDBRANCH  28  43
ENDBRANCH  25  28
ENDBRANCH  22  24
BRANCH  22  60
ATOM     60  CAZ SV6 d   1     -17.563  -7.103  12.825  0.00  0.00    -0.022 C 
BRANCH  60  61
ATOM     61  CBC SV6 d   1     -17.906  -6.057  13.900  0.00  0.00    -0.067 C 
ATOM     62  H   SV6 d   1     -18.867  -6.303  14.351  0.00  0.00     0.028 H 
ATOM     63  H   SV6 d   1     -17.132  -6.059  14.667  0.00  0.00     0.028 H 
ATOM     64  H   SV6 d   1     -17.961  -5.070  13.440  0.00  0.00     0.028 H 
ENDBRANCH  60  61
BRANCH  60  65
ATOM     65  CBD SV6 d   1     -18.631  -7.063  11.728  0.00  0.00    -0.067 C 
ATOM     66  H   SV6 d   1     -18.355  -7.751  10.929  0.00  0.00     0.028 H 
ATOM     67  H   SV6 d   1     -19.593  -7.359  12.148  0.00  0.00     0.028 H 
ATOM     68  H   SV6 d   1     -18.703  -6.051  11.329  0.00  0.00     0.028 H 
ENDBRANCH  60  65
BRANCH  60  69
ATOM     69  CBA SV6 d   1     -16.215  -6.708  12.207  0.00  0.00    -0.067 C 
ATOM     70  H   SV6 d   1     -15.440  -6.748  12.973  0.00  0.00     0.028 H 
ATOM     71  H   SV6 d   1     -15.969  -7.401  11.402  0.00  0.00     0.028 H 
ATOM     72  H   SV6 d   1     -16.282  -5.696  11.809  0.00  0.00     0.028 H 
ENDBRANCH  60  69
ENDBRANCH  22  60
ENDBRANCH   1  22
BRANCH   4  73
ATOM     73  C   SV6 d   1     -13.100  -8.574  14.096  0.00  0.00     0.241 C 
ATOM     74  O   SV6 d   1     -12.881  -8.216  12.942  0.00  0.00    -0.271 OA
ATOM     75  NAE SV6 d   1     -12.689  -7.903  15.165  0.00  0.00    -0.352 N 
ATOM     76  H   SV6 d   1     -12.875  -8.261  16.102  0.00  0.00     0.163 HD
BRANCH  75  77
ATOM     77  CAH SV6 d   1     -11.957  -6.628  14.981  0.00  0.00     0.045 C 
ATOM     78  H   SV6 d   1     -12.270  -6.177  14.039  0.00  0.00     0.077 H 
BRANCH  77  79
ATOM     79  CAI SV6 d   1     -10.480  -6.925  14.958  0.00  0.00     0.131 C 
ATOM     80  H   SV6 d   1     -10.280  -7.157  16.004  0.00  0.00     0.101 H 
BRANCH  79  81
ATOM     81  CAM SV6 d   1      -9.674  -5.797  14.479  0.00  0.00     0.248 C 
ATOM     82  NAA SV6 d   1      -9.855  -5.499  13.195  0.00  0.00    -0.354 N 
ATOM     83  H   SV6 d   1     -10.587  -5.996  12.687  0.00  0.00     0.162 HD
ATOM     84  OBS SV6 d   1      -8.885  -5.274  15.256  0.00  0.00    -0.271 OA
BRANCH  82  85
ATOM     85  CAN SV6 d   1      -9.067  -4.500  12.465  0.00  0.00     0.012 A 
ATOM     86  CAO SV6 d   1      -7.995  -5.112  11.569  0.00  0.00    -0.044 A 
ATOM     87  CAP SV6 d   1      -9.257  -4.524  10.948  0.00  0.00    -0.044 A 
ATOM     88  H   SV6 d   1      -7.407  -6.027  11.509  0.00  0.00     0.036 H 
ATOM     89  H   SV6 d   1      -6.915  -5.054  11.432  0.00  0.00     0.036 H 
ATOM     90  H   SV6 d   1      -9.531  -3.837  10.147  0.00  0.00     0.036 H 
ATOM     91  H   SV6 d   1     -10.021  -4.807  10.224  0.00  0.00     0.036 H 
ATOM     92  H   SV6 d   1      -9.096  -3.724  13.230  0.00  0.00     0.072 H 
ENDBRANCH  82  85
ENDBRANCH  79  81
BRANCH  79  93
ATOM     93  OBR SV6 d   1     -10.115  -8.006  14.132  0.00  0.00    -0.384 OA
ATOM     94  H   SV6 d   1     -10.609  -8.787  14.392  0.00  0.00     0.210 HD
ENDBRANCH  79  93
ENDBRANCH  77  79
BRANCH  77  95
ATOM     95  CAJ SV6 d   1     -12.283  -5.606  16.097  0.00  0.00    -0.044 C 
ATOM     96  H   SV6 d   1     -11.490  -4.858  16.100  0.00  0.00     0.036 H 
ATOM     97  H   SV6 d   1     -12.361  -6.156  17.035  0.00  0.00     0.036 H 
BRANCH  95  98
ATOM     98  CAK SV6 d   1     -13.607  -4.874  15.880  0.00  0.00    -0.067 C 
ATOM     99  H   SV6 d   1     -13.485  -4.163  15.063  0.00  0.00     0.032 H 
ATOM    100  H   SV6 d   1     -13.880  -4.362  16.802  0.00  0.00     0.032 H 
BRANCH  98 101
ATOM    101  CAL SV6 d   1     -14.713  -5.853  15.517  0.00  0.00    -0.076 C 
ATOM    102  H   SV6 d   1     -14.446  -6.377  14.599  0.00  0.00     0.027 H 
ATOM    103  H   SV6 d   1     -14.838  -6.574  16.325  0.00  0.00     0.027 H 
ATOM    104  H   SV6 d   1     -15.645  -5.308  15.368  0.00  0.00     0.027 H 
ENDBRANCH  98 101
ENDBRANCH  95  98
ENDBRANCH  77  95
ENDBRANCH  75  77
ENDBRANCH   4  73
TORSDOF 19
