REMARK  10 active torsions:
REMARK  status: ('A' for Active; 'I' for Inactive)
REMARK    1  A    between atoms: C8_8  and  C16_16 
REMARK    2  A    between atoms: C9_9  and  C25_25 
REMARK    3  A    between atoms: N31_31  and  C10_10 
REMARK    4  A    between atoms: N34_34  and  C11_11 
REMARK    5  A    between atoms: C13_13  and  N32_32 
REMARK    6  A    between atoms: N33_33  and  C14_14 
REMARK    7  A    between atoms: C15_15  and  N34_34 
REMARK       I    between atoms: C16_16  and  N35_35 
REMARK    8  A    between atoms: C24_24  and  C17_17 
REMARK       I    between atoms: C17_17  and  N36_36 
REMARK    9  A    between atoms: N35_35  and  C26_26 
REMARK   10  A    between atoms: N36_36  and  C27_27 
ROOT
ATOM      1  C13 4LI d   1      23.360  -7.564   6.555  0.00  0.00     0.225 A 
ATOM      2  C14 4LI d   1      25.034  -6.590   7.753  0.00  0.00     0.226 A 
ATOM      3  C15 4LI d   1      24.068  -8.507   8.487  0.00  0.00     0.732 A 
ATOM      4  N28 4LI d   1      24.242  -6.570   6.682  0.00  0.00    -0.186 NA
ATOM      5  N29 4LI d   1      23.243  -8.561   7.437  0.00  0.00    -0.031 NA
ATOM      6  N30 4LI d   1      24.974  -7.546   8.682  0.00  0.00    -0.031 NA
ENDROOT
BRANCH   1   7
ATOM      7  N32 4LI d   1      22.541  -7.547   5.415  0.00  0.00    -0.248 NA
ATOM      8  C20 4LI d   1      21.292  -8.264   5.533  0.00  0.00    -0.003 C 
ATOM      9  C18 4LI d   1      20.804  -8.496   4.117  0.00  0.00    -0.005 C 
ATOM     10  H   4LI d   1      21.428  -9.207   6.062  0.00  0.00     0.058 H 
ATOM     11  H   4LI d   1      20.565  -7.695   6.112  0.00  0.00     0.058 H 
ATOM     12  N31 4LI d   1      20.673  -7.205   3.468  0.00  0.00    -0.280 NA
ATOM     13  H   4LI d   1      19.842  -9.009   4.130  0.00  0.00     0.058 H 
ATOM     14  H   4LI d   1      21.513  -9.120   3.573  0.00  0.00     0.058 H 
ATOM     15  C19 4LI d   1      21.896  -6.425   3.416  0.00  0.00    -0.005 C 
ATOM     16  C21 4LI d   1      22.459  -6.239   4.806  0.00  0.00    -0.003 C 
ATOM     17  H   4LI d   1      22.628  -6.951   2.803  0.00  0.00     0.058 H 
ATOM     18  H   4LI d   1      21.677  -5.447   2.987  0.00  0.00     0.058 H 
ATOM     19  H   4LI d   1      21.818  -5.582   5.394  0.00  0.00     0.058 H 
ATOM     20  H   4LI d   1      23.444  -5.775   4.761  0.00  0.00     0.058 H 
BRANCH  12  21
ATOM     21  C10 4LI d   1      20.206  -7.383   2.154  0.00  0.00     0.032 A 
ATOM     22  C6  4LI d   1      20.494  -8.524   1.444  0.00  0.00    -0.061 A 
ATOM     23  C1  4LI d   1      20.029  -8.681   0.158  0.00  0.00    -0.081 A 
ATOM     24  H   4LI d   1      21.095  -9.310   1.902  0.00  0.00     0.086 H 
ATOM     25  C2  4LI d   1      19.269  -7.698  -0.431  0.00  0.00    -0.081 A 
ATOM     26  H   4LI d   1      20.265  -9.589  -0.396  0.00  0.00     0.083 H 
ATOM     27  C7  4LI d   1      18.976  -6.554   0.272  0.00  0.00    -0.060 A 
ATOM     28  H   4LI d   1      18.901  -7.825  -1.449  0.00  0.00     0.083 H 
ATOM     29  C12 4LI d   1      19.445  -6.405   1.555  0.00  0.00     0.055 A 
ATOM     30  H   4LI d   1      18.375  -5.769  -0.186  0.00  0.00     0.086 H 
ATOM     31 CL40 4LI d   1      19.075  -4.971   2.431  0.00  0.00    -0.082 Cl
ENDBRANCH  12  21
ENDBRANCH   1   7
BRANCH   2  32
ATOM     32  N33 4LI d   1      25.984  -5.565   7.916  0.00  0.00    -0.227 NA
ATOM     33  C23 4LI d   1      26.200  -5.314   9.323  0.00  0.00     0.028 C 
ATOM     34  S39 4LI d   1      26.370  -3.531   9.550  0.00  0.00    -0.152 SA
ATOM     35  H   4LI d   1      27.101  -5.825   9.663  0.00  0.00     0.072 H 
ATOM     36  H   4LI d   1      25.360  -5.690   9.907  0.00  0.00     0.072 H 
ATOM     37  C22 4LI d   1      26.306  -3.201   7.774  0.00  0.00     0.001 C 
ATOM     38  C24 4LI d   1      25.585  -4.385   7.167  0.00  0.00     0.087 C 
ATOM     39  H   4LI d   1      25.788  -2.266   7.560  0.00  0.00     0.052 H 
ATOM     40  H   4LI d   1      27.305  -3.084   7.354  0.00  0.00     0.052 H 
ATOM     41  H   4LI d   1      24.507  -4.228   7.205  0.00  0.00     0.080 H 
BRANCH  38  42
ATOM     42  C17 4LI d   1      26.006  -4.566   5.734  0.00  0.00     0.236 C 
ATOM     43  N36 4LI d   1      26.906  -5.585   5.559  0.00  0.00    -0.364 N 
ATOM     44  H   4LI d   1      27.243  -6.124   6.357  0.00  0.00     0.161 HD
ATOM     45  O38 4LI d   1      25.572  -3.878   4.822  0.00  0.00    -0.272 OA
BRANCH  43  46
ATOM     46  C27 4LI d   1      27.366  -5.880   4.228  0.00  0.00    -0.018 C 
ATOM     47  H   4LI d   1      26.515  -6.151   3.603  0.00  0.00     0.056 H 
ATOM     48  H   4LI d   1      27.858  -5.001   3.812  0.00  0.00     0.056 H 
ATOM     49  H   4LI d   1      28.071  -6.710   4.264  0.00  0.00     0.056 H 
ENDBRANCH  43  46
ENDBRANCH  38  42
ENDBRANCH   2  32
BRANCH   3  50
ATOM     50  N34 4LI d   1      23.990  -9.520   9.451  0.00  0.00    -0.186 N 
ATOM     51  H   4LI d   1      24.578  -9.485  10.284  0.00  0.00     0.184 HD
BRANCH  50  52
ATOM     52  C11 4LI d   1      23.099 -10.579   9.260  0.00  0.00     0.071 A 
ATOM     53  C8  4LI d   1      23.528 -11.821   8.851  0.00  0.00     0.059 A 
ATOM     54  C4  4LI d   1      22.660 -12.869   8.658  0.00  0.00    -0.065 A 
ATOM     55  C3  4LI d   1      21.321 -12.665   8.886  0.00  0.00    -0.081 A 
ATOM     56  H   4LI d   1      23.027 -13.842   8.331  0.00  0.00     0.085 H 
ATOM     57  C5  4LI d   1      20.874 -11.431   9.295  0.00  0.00    -0.075 A 
ATOM     58  H   4LI d   1      20.613 -13.481   8.743  0.00  0.00     0.083 H 
ATOM     59  C9  4LI d   1      21.755 -10.391   9.483  0.00  0.00    -0.034 A 
ATOM     60  H   4LI d   1      19.810 -11.275   9.472  0.00  0.00     0.084 H 
BRANCH  53  61
ATOM     61  C16 4LI d   1      24.947 -12.058   8.598  0.00  0.00     0.253 C 
ATOM     62  N35 4LI d   1      25.609 -12.591   9.665  0.00  0.00    -0.361 N 
ATOM     63  H   4LI d   1      25.123 -12.723  10.552  0.00  0.00     0.162 HD
ATOM     64  O37 4LI d   1      25.425 -11.792   7.505  0.00  0.00    -0.268 OA
BRANCH  62  65
ATOM     65  C26 4LI d   1      26.990 -12.967   9.540  0.00  0.00    -0.018 C 
ATOM     66  H   4LI d   1      27.090 -13.724   8.762  0.00  0.00     0.056 H 
ATOM     67  H   4LI d   1      27.581 -12.091   9.274  0.00  0.00     0.056 H 
ATOM     68  H   4LI d   1      27.343 -13.370  10.489  0.00  0.00     0.056 H 
ENDBRANCH  62  65
ENDBRANCH  53  61
BRANCH  59  69
ATOM     69  C25 4LI d   1      21.250  -9.065   9.929  0.00  0.00    -0.049 C 
ATOM     70  H   4LI d   1      20.540  -8.683   9.196  0.00  0.00     0.033 H 
ATOM     71  H   4LI d   1      20.755  -9.172  10.894  0.00  0.00     0.033 H 
ATOM     72  H   4LI d   1      22.086  -8.372  10.023  0.00  0.00     0.033 H 
ENDBRANCH  59  69
ENDBRANCH  50  52
ENDBRANCH   3  50
TORSDOF 10
