REMARK  10 active torsions:
REMARK  status: ('A' for Active; 'I' for Inactive)
REMARK    1  A    between atoms: C11_8  and  C10_1 
REMARK    2  A    between atoms: S16_21  and  C17_3 
REMARK    3  A    between atoms: C17_3  and  C18_24 
REMARK    4  A    between atoms: C02_9  and  N01_7 
REMARK    5  A    between atoms: C12_10  and  C11_8 
REMARK    6  A    between atoms: N15_17  and  C14_15 
REMARK    7  A    between atoms: N05_16  and  C06_20 
REMARK    8  A    between atoms: N15_17  and  S16_21 
REMARK    9  A    between atoms: C06_20  and  C07_22 
REMARK   10  A    between atoms: C06_20  and  C08_23 
ROOT
ATOM      1  C11 VSP d   1     -10.820  11.061   6.336  0.00  0.00     0.002 C 
ATOM      2  H   VSP d   1     -11.023  12.088   6.032  0.00  0.00     0.049 H 
ATOM      3  H   VSP d   1      -9.981  10.516   5.902  0.00  0.00     0.049 H 
ENDROOT
BRANCH   1   4
ATOM      4  C10 VSP d   1     -12.073  10.268   5.878  0.00  0.00     0.077 A 
ATOM      5  C03 VSP d   1     -13.499  10.594   6.048  0.00  0.00     0.084 A 
ATOM      6  C02 VSP d   1     -14.234  11.590   6.685  0.00  0.00     0.138 A 
ATOM      7  C04 VSP d   1     -14.214   9.541   5.368  0.00  0.00     0.163 A 
ATOM      8  N26 VSP d   1     -15.595  11.531   6.617  0.00  0.00    -0.224 NA
ATOM      9  C25 VSP d   1     -16.266  10.507   5.972  0.00  0.00     0.091 A 
ATOM     10  N24 VSP d   1     -15.578   9.539   5.351  0.00  0.00    -0.222 NA
ATOM     11  H   VSP d   1     -17.356  10.488   5.969  0.00  0.00     0.146 H 
ATOM     12  N05 VSP d   1     -13.277   8.720   4.845  0.00  0.00    -0.247 N 
ATOM     13  N09 VSP d   1     -12.038   9.143   5.150  0.00  0.00    -0.174 NA
BRANCH   6  14
ATOM     14  N01 VSP d   1     -13.584  12.637   7.376  0.00  0.00    -0.383 N 
ATOM     15  H   VSP d   1     -12.565  12.669   7.412  0.00  0.00     0.157 HD
ATOM     16  H   VSP d   1     -14.134  13.361   7.839  0.00  0.00     0.157 HD
ENDBRANCH   6  14
BRANCH  12  17
ATOM     17  C06 VSP d   1     -13.564   7.524   4.064  0.00  0.00     0.029 C 
ATOM     18  H   VSP d   1     -14.609   7.242   4.190  0.00  0.00     0.074 H 
BRANCH  17  19
ATOM     19  C07 VSP d   1     -12.688   6.369   4.532  0.00  0.00    -0.056 C 
ATOM     20  H   VSP d   1     -11.639   6.636   4.405  0.00  0.00     0.030 H 
ATOM     21  H   VSP d   1     -12.888   6.166   5.584  0.00  0.00     0.030 H 
ATOM     22  H   VSP d   1     -12.912   5.481   3.940  0.00  0.00     0.030 H 
ENDBRANCH  17  19
BRANCH  17  23
ATOM     23  C08 VSP d   1     -13.266   7.825   2.614  0.00  0.00    -0.056 C 
ATOM     24  H   VSP d   1     -13.893   8.651   2.279  0.00  0.00     0.030 H 
ATOM     25  H   VSP d   1     -12.216   8.099   2.509  0.00  0.00     0.030 H 
ATOM     26  H   VSP d   1     -13.474   6.941   2.011  0.00  0.00     0.030 H 
ENDBRANCH  17  23
ENDBRANCH  12  17
ENDBRANCH   1   4
BRANCH   1  27
ATOM     27  C12 VSP d   1     -10.480  11.165   7.808  0.00  0.00    -0.050 A 
ATOM     28  C13 VSP d   1      -9.415  12.009   8.138  0.00  0.00    -0.050 A 
ATOM     29  C14 VSP d   1      -9.040  12.146   9.490  0.00  0.00     0.042 A 
ATOM     30  H   VSP d   1      -8.881  12.554   7.359  0.00  0.00     0.087 H 
ATOM     31  C21 VSP d   1      -9.724  11.447  10.488  0.00  0.00    -0.057 A 
ATOM     32  C22 VSP d   1     -10.796  10.611  10.141  0.00  0.00    -0.080 A 
ATOM     33  H   VSP d   1      -9.426  11.551  11.531  0.00  0.00     0.086 H 
ATOM     34  C23 VSP d   1     -11.178  10.454   8.807  0.00  0.00    -0.076 A 
ATOM     35  H   VSP d   1     -11.337  10.078  10.922  0.00  0.00     0.083 H 
ATOM     36  H   VSP d   1     -12.003   9.792   8.542  0.00  0.00     0.084 H 
BRANCH  29  37
ATOM     37  N15 VSP d   1      -7.941  13.011   9.844  0.00  0.00    -0.285 N 
ATOM     38  H   VSP d   1      -7.265  12.702  10.543  0.00  0.00     0.178 HD
BRANCH  37  39
ATOM     39  S16 VSP d   1      -7.758  14.494   9.137  0.00  0.00     0.230 S 
ATOM     40  O20 VSP d   1      -6.512  15.097   9.546  0.00  0.00    -0.206 OA
ATOM     41  O19 VSP d   1      -7.560  14.438   7.701  0.00  0.00    -0.206 OA
BRANCH  39  42
ATOM     42  C17 VSP d   1      -9.173  15.500   9.538  0.00  0.00     0.043 C 
ATOM     43  H   VSP d   1     -10.070  14.943   9.266  0.00  0.00     0.058 H 
ATOM     44  H   VSP d   1      -9.084  16.439   8.992  0.00  0.00     0.058 H 
BRANCH  42  45
ATOM     45  C18 VSP d   1      -9.254  15.824  11.014  0.00  0.00    -0.062 C 
ATOM     46  H   VSP d   1      -9.327  14.898  11.584  0.00  0.00     0.028 H 
ATOM     47  H   VSP d   1      -8.359  16.368  11.315  0.00  0.00     0.028 H 
ATOM     48  H   VSP d   1     -10.134  16.439  11.202  0.00  0.00     0.028 H 
ENDBRANCH  42  45
ENDBRANCH  39  42
ENDBRANCH  37  39
ENDBRANCH  29  37
ENDBRANCH   1  27
TORSDOF 10
