REMARK  5 active torsions:
REMARK  status: ('A' for Active; 'I' for Inactive)
REMARK    1  A    between atoms: S38_38  and  C9_9 
REMARK    2  A    between atoms: C28_28  and  C17_17 
REMARK       I    between atoms: C17_17  and  N31_31 
REMARK    3  A    between atoms: N32_32  and  C26_26 
REMARK    4  A    between atoms: N30_30  and  C28_28 
REMARK    5  A    between atoms: N32_32  and  S38_38 
ROOT
ATOM      1  C16 FI1 d   1       7.054  42.324  60.426  0.00  0.00     0.243 C 
ATOM      2  C18 FI1 d   1       4.281  41.917  59.876  0.00  0.00    -0.048 C 
ATOM      3  C19 FI1 d   1       4.719  41.821  61.321  0.00  0.00    -0.036 C 
ATOM      4  C21 FI1 d   1       5.329  41.374  58.909  0.00  0.00    -0.002 C 
ATOM      5  C26 FI1 d   1       6.006  42.655  61.517  0.00  0.00     0.097 C 
ATOM      6  N30 FI1 d   1       6.693  41.691  59.259  0.00  0.00    -0.342 N 
ATOM      7  O34 FI1 d   1       8.244  42.614  60.583  0.00  0.00    -0.271 OA
ATOM      8  H   FI1 d   1       4.122  42.970  59.642  0.00  0.00     0.035 H 
ATOM      9  H   FI1 d   1       3.376  41.321  59.759  0.00  0.00     0.035 H 
ATOM     10  H   FI1 d   1       4.915  40.779  61.576  0.00  0.00     0.036 H 
ATOM     11  H   FI1 d   1       3.931  42.205  61.969  0.00  0.00     0.036 H 
ATOM     12  H   FI1 d   1       5.135  41.833  57.940  0.00  0.00     0.064 H 
ATOM     13  H   FI1 d   1       5.242  40.288  58.923  0.00  0.00     0.064 H 
ATOM     14  H   FI1 d   1       6.399  42.351  62.487  0.00  0.00     0.088 H 
ENDROOT
BRANCH   6  15
ATOM     15  C28 FI1 d   1       7.713  41.263  58.344  0.00  0.00     0.071 C 
ATOM     16  H   FI1 d   1       7.400  41.421  57.312  0.00  0.00     0.079 H 
ATOM     17  H   FI1 d   1       8.628  41.838  58.485  0.00  0.00     0.079 H 
BRANCH  15  18
ATOM     18  C17 FI1 d   1       7.956  39.773  58.620  0.00  0.00     0.237 C 
ATOM     19  N31 FI1 d   1       8.802  39.006  57.818  0.00  0.00    -0.350 N 
ATOM     20  C22 FI1 d   1       9.457  39.558  56.650  0.00  0.00     0.006 C 
ATOM     21  C24 FI1 d   1       9.012  37.609  58.020  0.00  0.00     0.003 C 
ATOM     22  C25 FI1 d   1       8.913  38.871  55.390  0.00  0.00     0.003 C 
ATOM     23  H   FI1 d   1       9.262  40.629  56.594  0.00  0.00     0.065 H 
ATOM     24  H   FI1 d   1      10.532  39.390  56.721  0.00  0.00     0.065 H 
ATOM     25  C14 FI1 d   1       7.471  39.282  55.362  0.00  0.00     0.020 A 
ATOM     26  C20 FI1 d   1       9.078  37.361  55.511  0.00  0.00    -0.049 C 
ATOM     27  H   FI1 d   1       9.432  39.151  54.473  0.00  0.00     0.052 H 
ATOM     28  C13 FI1 d   1       7.125  40.464  54.740  0.00  0.00    -0.060 A 
ATOM     29  N29 FI1 d   1       6.538  38.493  56.008  0.00  0.00    -0.317 N 
ATOM     30  C11 FI1 d   1       5.765  40.893  54.731  0.00  0.00    -0.076 A 
ATOM     31  H   FI1 d   1       7.891  41.070  54.256  0.00  0.00     0.086 H 
ATOM     32  C12 FI1 d   1       4.820  40.137  55.344  0.00  0.00    -0.017 A 
ATOM     33  H   FI1 d   1       5.487  41.823  54.235  0.00  0.00     0.083 H 
ATOM     34  C15 FI1 d   1       5.167  38.884  56.021  0.00  0.00     0.247 A 
ATOM     35  H   FI1 d   1       3.781  40.468  55.333  0.00  0.00     0.092 H 
ATOM     36  O33 FI1 d   1       4.340  38.146  56.604  0.00  0.00    -0.268 OA
ATOM     37  C23 FI1 d   1       6.897  37.245  56.680  0.00  0.00     0.008 C 
ATOM     38  C27 FI1 d   1       8.394  36.910  56.792  0.00  0.00    -0.022 C 
ATOM     39  H   FI1 d   1       6.540  37.348  57.705  0.00  0.00     0.065 H 
ATOM     40  H   FI1 d   1       6.461  36.449  56.077  0.00  0.00     0.065 H 
ATOM     41  H   FI1 d   1       8.530  35.837  56.924  0.00  0.00     0.045 H 
ATOM     42  H   FI1 d   1      10.136  37.100  55.539  0.00  0.00     0.034 H 
ATOM     43  H   FI1 d   1       8.628  36.865  54.651  0.00  0.00     0.034 H 
ATOM     44  H   FI1 d   1      10.073  37.377  58.117  0.00  0.00     0.065 H 
ATOM     45  H   FI1 d   1       8.549  37.268  58.946  0.00  0.00     0.065 H 
ATOM     46  O35 FI1 d   1       7.402  39.241  59.602  0.00  0.00    -0.272 OA
ENDBRANCH  15  18
ENDBRANCH   6  15
BRANCH   5  47
ATOM     47  N32 FI1 d   1       5.797  44.074  61.646  0.00  0.00    -0.302 N 
ATOM     48  H   FI1 d   1       5.464  44.595  60.835  0.00  0.00     0.173 HD
BRANCH  47  49
ATOM     49  S38 FI1 d   1       6.071  44.880  63.035  0.00  0.00     0.259 S 
ATOM     50  O36 FI1 d   1       5.437  44.259  64.131  0.00  0.00    -0.201 OA
ATOM     51  O37 FI1 d   1       5.718  46.216  62.793  0.00  0.00    -0.201 OA
BRANCH  49  52
ATOM     52  C9  FI1 d   1       7.751  44.782  63.299  0.00  0.00     0.080 A 
ATOM     53  C3  FI1 d   1       8.698  45.316  62.367  0.00  0.00    -0.059 A 
ATOM     54  C1  FI1 d   1      10.051  45.214  62.590  0.00  0.00    -0.071 A 
ATOM     55  H   FI1 d   1       8.340  45.812  61.465  0.00  0.00     0.085 H 
ATOM     56  C8  FI1 d   1      10.552  44.591  63.767  0.00  0.00    -0.024 A 
ATOM     57  H   FI1 d   1      10.749  45.616  61.855  0.00  0.00     0.084 H 
ATOM     58  C6  FI1 d   1      11.936  44.468  64.031  0.00  0.00    -0.051 A 
ATOM     59  C7  FI1 d   1       9.627  44.054  64.694  0.00  0.00    -0.024 A 
ATOM     60  C10 FI1 d   1      12.385  43.841  65.179  0.00  0.00     0.034 A 
ATOM     61  H   FI1 d   1      12.658  44.872  63.321  0.00  0.00     0.087 H 
ATOM     62  C4  FI1 d   1      11.452  43.315  66.113  0.00  0.00    -0.061 A 
ATOM     63 CL39 FI1 d   1      14.054  43.665  65.529  0.00  0.00    -0.084 Cl
ATOM     64  C2  FI1 d   1      10.108  43.422  65.867  0.00  0.00    -0.071 A 
ATOM     65  H   FI1 d   1      11.804  42.828  67.022  0.00  0.00     0.086 H 
ATOM     66  H   FI1 d   1       9.397  43.014  66.586  0.00  0.00     0.084 H 
ATOM     67  C5  FI1 d   1       8.235  44.161  64.436  0.00  0.00    -0.050 A 
ATOM     68  H   FI1 d   1       7.529  43.742  65.153  0.00  0.00     0.087 H 
ENDBRANCH  49  52
ENDBRANCH  47  49
ENDBRANCH   5  47
TORSDOF 5
