REMARK  26 active torsions:
REMARK  status: ('A' for Active; 'I' for Inactive)
REMARK    1  A    between atoms: N_1  and  CA_2 
REMARK    2  A    between atoms: CA_2  and  C_3 
REMARK    3  A    between atoms: CA_2  and  CB_5 
REMARK       I    between atoms: C_3  and  N_8 
REMARK    4  A    between atoms: CB_5  and  OG1_6 
REMARK    5  A    between atoms: CB_5  and  CG2_7 
REMARK    6  A    between atoms: N_8  and  CA_9 
REMARK    7  A    between atoms: CA_9  and  C_10 
REMARK    8  A    between atoms: CA_9  and  CB_12 
REMARK       I    between atoms: C_10  and  N_13 
REMARK    9  A    between atoms: N_13  and  CA_14 
REMARK   10  A    between atoms: CA_14  and  C_15 
REMARK   11  A    between atoms: CA_14  and  CB_17 
REMARK       I    between atoms: C_15  and  N_24 
REMARK   12  A    between atoms: CB_17  and  CG_18 
REMARK   13  A    between atoms: CG_18  and  CD_19 
REMARK   14  A    between atoms: CD_19  and  NE_20 
REMARK       I    between atoms: NE_20  and  CZ_21 
REMARK       I    between atoms: CZ_21  and  NH1_22 
REMARK   15  A    between atoms: N_24  and  CA_25 
REMARK   16  A    between atoms: CA_25  and  C_26 
REMARK   17  A    between atoms: CA_25  and  CB_28 
REMARK       I    between atoms: C_26  and  N_33 
REMARK   18  A    between atoms: CB_28  and  CG_29 
REMARK   19  A    between atoms: CG_29  and  CD_30 
REMARK   20  A    between atoms: CD_30  and  CE_31 
REMARK   21  A    between atoms: CE_31  and  NZ_32 
REMARK   22  A    between atoms: N_33  and  CA_34 
REMARK   23  A    between atoms: CA_34  and  C_35 
REMARK   24  A    between atoms: CA_34  and  CB_37 
REMARK   25  A    between atoms: CB_37  and  CG1_38 
REMARK   26  A    between atoms: CB_37  and  CG2_39 
ROOT
ATOM      1  CA  ARG d   1      36.504 -26.846   6.120  0.00  0.00     0.089 C 
ATOM      2  H   ARG d   1      35.726 -26.396   6.737  0.00  0.00     0.087 H 
ENDROOT
BRANCH   1   3
ATOM      3  N   ARG d   1      37.231 -27.767   6.992  0.00  0.00    -0.346 N 
ATOM      4  C   ALA d   1      36.870 -27.985   8.257  0.00  0.00     0.240 C 
ATOM      5  O   ALA d   1      35.864 -27.499   8.763  0.00  0.00    -0.271 OA
ATOM      6  H   ARG d   1      38.043 -28.260   6.620  0.00  0.00     0.163 HD
BRANCH   4   7
ATOM      7  CA  ALA d   1      37.759 -28.919   9.074  0.00  0.00     0.086 C 
ATOM      8  H   ALA d   1      38.517 -29.294   8.386  0.00  0.00     0.086 H 
BRANCH   7   9
ATOM      9  N   ALA d   1      38.499 -28.251  10.154  0.00  0.00    -0.346 N 
ATOM     10  C   THR d   1      39.607 -27.540   9.922  0.00  0.00     0.251 C 
ATOM     11  O   THR d   1      39.968 -27.201   8.790  0.00  0.00    -0.271 OA
ATOM     12  H   ALA d   1      38.156 -28.332  11.111  0.00  0.00     0.163 HD
BRANCH  10  13
ATOM     13  CA  THR d   1      40.433 -27.135  11.151  0.00  0.00     0.199 C 
ATOM     14  H   THR d   1      40.419 -27.953  11.872  0.00  0.00     0.103 H 
BRANCH  13  15
ATOM     15  N   THR d   1      41.853 -26.932  10.826  0.00  0.00    -0.064 N 
ATOM     16  H   THR d   1      42.227 -27.779  10.399  0.00  0.00     0.275 HD
ATOM     17  H   THR d   1      41.943 -26.153  10.174  0.00  0.00     0.275 HD
ATOM     18  H   THR d   1      42.370 -26.724  11.680  0.00  0.00     0.275 HD
ENDBRANCH  13  15
BRANCH  13  19
ATOM     19  CB  THR d   1      39.788 -25.885  11.807  0.00  0.00     0.068 C 
ATOM     20  H   THR d   1      38.813 -26.166  12.205  0.00  0.00     0.086 H 
BRANCH  19  21
ATOM     21  OG1 THR d   1      39.616 -24.854  10.824  0.00  0.00    -0.393 OA
ATOM     22  H   THR d   1      40.471 -24.616  10.459  0.00  0.00     0.210 HD
ENDBRANCH  19  21
BRANCH  19  23
ATOM     23  CG2 THR d   1      40.649 -25.373  12.970  0.00  0.00    -0.050 C 
ATOM     24  H   THR d   1      41.627 -25.074  12.592  0.00  0.00     0.031 H 
ATOM     25  H   THR d   1      40.159 -24.517  13.433  0.00  0.00     0.031 H 
ATOM     26  H   THR d   1      40.770 -26.166  13.707  0.00  0.00     0.031 H 
ENDBRANCH  19  23
ENDBRANCH  13  19
ENDBRANCH  10  13
ENDBRANCH   7   9
BRANCH   7  27
ATOM     27  CB  ALA d   1      36.935 -30.083   9.627  0.00  0.00    -0.049 C 
ATOM     28  H   ALA d   1      37.600 -30.805  10.100  0.00  0.00     0.030 H 
ATOM     29  H   ALA d   1      36.224 -29.706  10.363  0.00  0.00     0.030 H 
ATOM     30  H   ALA d   1      36.395 -30.564   8.811  0.00  0.00     0.030 H 
ENDBRANCH   7  27
ENDBRANCH   4   7
ENDBRANCH   1   3
BRANCH   1  31
ATOM     31  C   ARG d   1      35.855 -27.557   4.939  0.00  0.00     0.241 C 
ATOM     32  O   ARG d   1      36.525 -28.316   4.224  0.00  0.00    -0.271 OA
ATOM     33  N   LYS d   1      34.559 -27.293   4.731  0.00  0.00    -0.346 N 
ATOM     34  H   LYS d   1      34.038 -26.796   5.453  0.00  0.00     0.163 HD
BRANCH  33  35
ATOM     35  CA  LYS d   1      33.858 -27.692   3.503  0.00  0.00     0.089 C 
ATOM     36  H   LYS d   1      34.139 -28.720   3.273  0.00  0.00     0.087 H 
BRANCH  35  37
ATOM     37  C   LYS d   1      34.264 -26.768   2.344  0.00  0.00     0.241 C 
ATOM     38  O   LYS d   1      34.487 -25.582   2.557  0.00  0.00    -0.271 OA
ATOM     39  N   VAL d   1      34.388 -27.313   1.131  0.00  0.00    -0.344 N 
ATOM     40  H   VAL d   1      34.345 -28.328   1.039  0.00  0.00     0.163 HD
BRANCH  39  41
ATOM     41  CA  VAL d   1      34.585 -26.495  -0.080  0.00  0.00     0.099 C 
ATOM     42  H   VAL d   1      34.141 -25.531   0.168  0.00  0.00     0.090 H 
BRANCH  41  43
ATOM     43  C   VAL d   1      33.886 -27.112  -1.292  0.00  0.00     0.197 C 
ATOM     44  O   VAL d   1      33.559 -28.302  -1.297  0.00  0.00    -0.646 OA
ATOM     45  O   VAL d   1      33.641 -26.396  -2.299  0.00  0.00    -0.646 OA
ENDBRANCH  41  43
BRANCH  41  46
ATOM     46  CB  VAL d   1      36.080 -26.248  -0.445  0.00  0.00    -0.032 C 
ATOM     47  H   VAL d   1      36.452 -27.137  -0.954  0.00  0.00     0.042 H 
BRANCH  46  48
ATOM     48  CG1 VAL d   1      36.200 -25.036  -1.390  0.00  0.00    -0.071 C 
ATOM     49  H   VAL d   1      35.636 -25.231  -2.302  0.00  0.00     0.028 H 
ATOM     50  H   VAL d   1      35.800 -24.151  -0.896  0.00  0.00     0.028 H 
ATOM     51  H   VAL d   1      37.249 -24.873  -1.638  0.00  0.00     0.028 H 
ENDBRANCH  46  48
BRANCH  46  52
ATOM     52  CG2 VAL d   1      36.933 -26.040   0.796  0.00  0.00    -0.071 C 
ATOM     53  H   VAL d   1      36.566 -25.174   1.347  0.00  0.00     0.028 H 
ATOM     54  H   VAL d   1      36.875 -26.926   1.428  0.00  0.00     0.028 H 
ATOM     55  H   VAL d   1      37.968 -25.871   0.500  0.00  0.00     0.028 H 
ENDBRANCH  46  52
ENDBRANCH  41  46
ENDBRANCH  39  41
ENDBRANCH  35  37
BRANCH  35  56
ATOM     56  CB  LYS d   1      32.336 -27.626   3.692  0.00  0.00    -0.038 C 
ATOM     57  H   LYS d   1      31.904 -28.296   2.949  0.00  0.00     0.036 H 
ATOM     58  H   LYS d   1      32.060 -26.576   3.601  0.00  0.00     0.036 H 
BRANCH  56  59
ATOM     59  CG  LYS d   1      31.812 -28.094   5.052  0.00  0.00    -0.061 C 
ATOM     60  H   LYS d   1      32.207 -27.441   5.830  0.00  0.00     0.033 H 
ATOM     61  H   LYS d   1      32.133 -29.121   5.223  0.00  0.00     0.033 H 
BRANCH  59  62
ATOM     62  CD  LYS d   1      30.285 -28.037   5.079  0.00  0.00    -0.043 C 
ATOM     63  H   LYS d   1      29.912 -28.881   4.498  0.00  0.00     0.035 H 
ATOM     64  H   LYS d   1      29.983 -27.071   4.674  0.00  0.00     0.035 H 
BRANCH  62  65
ATOM     65  CE  LYS d   1      29.706 -28.151   6.485  0.00  0.00     0.080 C 
ATOM     66  H   LYS d   1      30.112 -27.348   7.100  0.00  0.00     0.075 H 
ATOM     67  H   LYS d   1      29.973 -29.124   6.899  0.00  0.00     0.075 H 
BRANCH  65  68
ATOM     68  NZ  LYS d   1      28.209 -28.030   6.453  0.00  0.00    -0.079 N 
ATOM     69  H   LYS d   1      27.842 -28.109   7.402  0.00  0.00     0.274 HD
ATOM     70  H   LYS d   1      27.951 -27.124   6.061  0.00  0.00     0.274 HD
ATOM     71  H   LYS d   1      27.821 -28.775   5.874  0.00  0.00     0.274 HD
ENDBRANCH  65  68
ENDBRANCH  62  65
ENDBRANCH  59  62
ENDBRANCH  56  59
ENDBRANCH  35  56
ENDBRANCH  33  35
ENDBRANCH   1  31
BRANCH   1  72
ATOM     72  CB  ARG d   1      37.444 -25.770   5.561  0.00  0.00    -0.036 C 
ATOM     73  H   ARG d   1      36.812 -24.940   5.244  0.00  0.00     0.036 H 
ATOM     74  H   ARG d   1      38.025 -26.245   4.771  0.00  0.00     0.036 H 
BRANCH  72  75
ATOM     75  CG  ARG d   1      38.448 -25.197   6.553  0.00  0.00    -0.048 C 
ATOM     76  H   ARG d   1      39.302 -24.830   5.984  0.00  0.00     0.035 H 
ATOM     77  H   ARG d   1      38.708 -25.990   7.255  0.00  0.00     0.035 H 
BRANCH  75  78
ATOM     78  CD  ARG d   1      37.894 -24.025   7.363  0.00  0.00     0.009 C 
ATOM     79  H   ARG d   1      37.024 -24.367   7.923  0.00  0.00     0.064 H 
ATOM     80  H   ARG d   1      37.625 -23.222   6.677  0.00  0.00     0.064 H 
BRANCH  78  81
ATOM     81  NE  ARG d   1      38.892 -23.522   8.307  0.00  0.00    -0.227 N 
ATOM     82  CZ  ARG d   1      39.832 -22.631   7.998  0.00  0.00     0.665 C 
ATOM     83  NH1 ARG d   1      40.710 -22.236   8.917  0.00  0.00    -0.235 N 
ATOM     84  NH2 ARG d   1      39.895 -22.132   6.767  0.00  0.00    -0.235 N 
ATOM     85  H   ARG d   1      40.664 -22.616   9.863  0.00  0.00     0.174 HD
ATOM     86  H   ARG d   1      41.428 -21.553   8.676  0.00  0.00     0.174 HD
ATOM     87  H   ARG d   1      39.224 -22.432   6.060  0.00  0.00     0.174 HD
ATOM     88  H   ARG d   1      40.615 -21.449   6.530  0.00  0.00     0.174 HD
ATOM     89  H   ARG d   1      38.866 -23.877   9.263  0.00  0.00     0.177 HD
ENDBRANCH  78  81
ENDBRANCH  75  78
ENDBRANCH  72  75
ENDBRANCH   1  72
TORSDOF 26
