REMARK  7 active torsions:
REMARK  status: ('A' for Active; 'I' for Inactive)
REMARK    1  A    between atoms: C6_6  and  NAB_8 
REMARK    2  A    between atoms: CAJ_15  and  CAA_7 
REMARK    3  A    between atoms: OAT_23  and  CAJ_15 
REMARK    4  A    between atoms: CAO_20  and  CBC_29 
REMARK    5  A    between atoms: NBD_30  and  CAO_20 
REMARK    6  A    between atoms: CAU_24  and  OAT_23 
REMARK    7  A    between atoms: CAV_25  and  CAX_26 
ROOT
ATOM      1  N1  BK7 d   1      16.526  11.817  63.058  0.00  0.00    -0.224 NA
ATOM      2  C2  BK7 d   1      17.727  12.380  62.839  0.00  0.00     0.091 A 
ATOM      3  N3  BK7 d   1      17.812  13.709  62.875  0.00  0.00    -0.222 NA
ATOM      4  C4  BK7 d   1      16.733  14.488  63.141  0.00  0.00     0.163 A 
ATOM      5  C5  BK7 d   1      15.484  13.928  63.383  0.00  0.00     0.088 A 
ATOM      6  C6  BK7 d   1      15.401  12.532  63.334  0.00  0.00     0.139 A 
ATOM      7  NAR BK7 d   1      15.416  16.121  63.505  0.00  0.00    -0.169 NA
ATOM      8  CAX BK7 d   1      14.655  15.027  63.623  0.00  0.00     0.105 A 
ATOM      9  NBD BK7 d   1      16.579  15.802  63.235  0.00  0.00    -0.250 N 
ATOM     10  H   BK7 d   1      18.606  11.767  62.638  0.00  0.00     0.146 H 
ENDROOT
BRANCH   8  11
ATOM     11  CAV BK7 d   1      13.285  15.007  63.911  0.00  0.00    -0.004 A 
ATOM     12  CAD BK7 d   1      12.414  15.708  63.072  0.00  0.00    -0.070 A 
ATOM     13  CAF BK7 d   1      11.044  15.738  63.318  0.00  0.00    -0.071 A 
ATOM     14  H   BK7 d   1      12.815  16.241  62.210  0.00  0.00     0.084 H 
ATOM     15  CAY BK7 d   1      10.528  15.058  64.420  0.00  0.00    -0.023 A 
ATOM     16  H   BK7 d   1      10.379  16.290  62.653  0.00  0.00     0.084 H 
ATOM     17  CAH BK7 d   1       9.162  15.065  64.684  0.00  0.00    -0.040 A 
ATOM     18  CAZ BK7 d   1      11.391  14.356  65.267  0.00  0.00    -0.025 A 
ATOM     19  CAU BK7 d   1       8.654  14.381  65.783  0.00  0.00     0.069 A 
ATOM     20  H   BK7 d   1       8.486  15.610  64.025  0.00  0.00     0.089 H 
ATOM     21  CAC BK7 d   1       9.521  13.684  66.625  0.00  0.00    -0.050 A 
ATOM     22  CAE BK7 d   1      10.891  13.670  66.366  0.00  0.00    -0.070 A 
ATOM     23  H   BK7 d   1       9.126  13.149  67.488  0.00  0.00     0.087 H 
ATOM     24  H   BK7 d   1      11.567  13.123  67.023  0.00  0.00     0.085 H 
ATOM     25  CAI BK7 d   1      12.759  14.336  65.017  0.00  0.00    -0.060 A 
ATOM     26  H   BK7 d   1      13.425  13.793  65.688  0.00  0.00     0.086 H 
BRANCH  19  27
ATOM     27  OAT BK7 d   1       7.318  14.387  66.048  0.00  0.00    -0.351 OA
BRANCH  27  28
ATOM     28  CAJ BK7 d   1       6.515  14.694  64.894  0.00  0.00     0.023 C 
ATOM     29  H   BK7 d   1       6.514  15.770  64.720  0.00  0.00     0.074 H 
ATOM     30  H   BK7 d   1       6.926  14.197  64.015  0.00  0.00     0.074 H 
BRANCH  28  31
ATOM     31  CAA BK7 d   1       5.091  14.209  65.144  0.00  0.00    -0.056 C 
ATOM     32  H   BK7 d   1       5.100  13.132  65.313  0.00  0.00     0.030 H 
ATOM     33  H   BK7 d   1       4.686  14.713  66.022  0.00  0.00     0.030 H 
ATOM     34  H   BK7 d   1       4.473  14.437  64.275  0.00  0.00     0.030 H 
ENDBRANCH  28  31
ENDBRANCH  27  28
ENDBRANCH  19  27
ENDBRANCH   8  11
BRANCH   6  35
ATOM     35  NAB BK7 d   1      14.267  11.882  63.553  0.00  0.00    -0.383 N 
ATOM     36  H   BK7 d   1      13.415  12.401  63.766  0.00  0.00     0.157 HD
ATOM     37  H   BK7 d   1      14.246  10.863  63.508  0.00  0.00     0.157 HD
ENDBRANCH   6  35
BRANCH   9  38
ATOM     38  CAO BK7 d   1      17.688  16.768  63.042  0.00  0.00     0.022 C 
ATOM     39  H   BK7 d   1      17.299  17.762  63.262  0.00  0.00     0.068 H 
ATOM     40  H   BK7 d   1      18.504  16.466  63.698  0.00  0.00     0.068 H 
BRANCH  38  41
ATOM     41  CBC BK7 d   1      18.242  16.794  61.588  0.00  0.00    -0.034 C 
ATOM     42  CAM BK7 d   1      19.453  17.733  61.547  0.00  0.00    -0.038 C 
ATOM     43  CAK BK7 d   1      19.875  18.023  60.111  0.00  0.00     0.082 C 
ATOM     44  H   BK7 d   1      19.182  18.673  62.027  0.00  0.00     0.036 H 
ATOM     45  H   BK7 d   1      20.284  17.253  62.064  0.00  0.00     0.036 H 
ATOM     46  NAS BK7 d   1      18.764  18.737  59.467  0.00  0.00    -0.075 N 
ATOM     47  H   BK7 d   1      20.094  17.096  59.581  0.00  0.00     0.075 H 
ATOM     48  H   BK7 d   1      20.782  18.628  60.092  0.00  0.00     0.075 H 
ATOM     49  CAL BK7 d   1      17.621  17.822  59.286  0.00  0.00     0.082 C 
ATOM     50  H   BK7 d   1      19.067  19.082  58.556  0.00  0.00     0.277 HD
ATOM     51  H   BK7 d   1      18.480  19.520  60.056  0.00  0.00     0.277 HD
ATOM     52  CAN BK7 d   1      17.126  17.262  60.637  0.00  0.00    -0.038 C 
ATOM     53  H   BK7 d   1      16.805  18.376  58.822  0.00  0.00     0.075 H 
ATOM     54  H   BK7 d   1      17.942  16.987  58.663  0.00  0.00     0.075 H 
ATOM     55  H   BK7 d   1      16.514  16.389  60.413  0.00  0.00     0.036 H 
ATOM     56  H   BK7 d   1      16.599  18.072  61.142  0.00  0.00     0.036 H 
ATOM     57  H   BK7 d   1      18.563  15.802  61.269  0.00  0.00     0.042 H 
ENDBRANCH  38  41
ENDBRANCH   9  38
TORSDOF 7
