REMARK  15 active torsions:
REMARK  status: ('A' for Active; 'I' for Inactive)
REMARK    1  A    between atoms: N_1  and  CA_2 
REMARK    2  A    between atoms: CA_2  and  C_3 
REMARK    3  A    between atoms: CA_2  and  CB_5 
REMARK       I    between atoms: C_3  and  N_9 
REMARK    4  A    between atoms: CB_5  and  CG_6 
REMARK    5  A    between atoms: N_9  and  CA_10 
REMARK    6  A    between atoms: CA_10  and  C_11 
REMARK    7  A    between atoms: CA_10  and  CB_13 
REMARK       I    between atoms: C_11  and  N_17 
REMARK    8  A    between atoms: CB_13  and  CG1_14 
REMARK    9  A    between atoms: CB_13  and  CG2_15 
REMARK   10  A    between atoms: CG1_14  and  CD1_16 
REMARK   11  A    between atoms: CA_18  and  C_19 
REMARK       I    between atoms: C_19  and  N_24 
REMARK   12  A    between atoms: N_24  and  CA_25 
REMARK   13  A    between atoms: CA_25  and  C_26 
REMARK   14  A    between atoms: CA_25  and  CB_28 
REMARK   15  A    between atoms: CB_28  and  CG_29 
ROOT
ATOM      1  C   ILE d   1     -71.822  -8.749  22.819  0.00  0.00     0.243 C 
ATOM      2  O   ILE d   1     -73.016  -8.451  22.923  0.00  0.00    -0.271 OA
ATOM      3  N   PRO d   1     -70.907  -7.927  22.258  0.00  0.00    -0.337 N 
ATOM      4  CA  PRO d   1     -71.228  -6.564  21.819  0.00  0.00     0.091 C 
ATOM      5  CB  PRO d   1     -69.871  -5.838  21.897  0.00  0.00    -0.036 C 
ATOM      6  CG  PRO d   1     -68.841  -6.893  22.268  0.00  0.00    -0.048 C 
ATOM      7  CD  PRO d   1     -69.479  -8.225  22.065  0.00  0.00    -0.001 C 
ATOM      8  H   PRO d   1     -72.011  -6.135  22.444  0.00  0.00     0.087 H 
ATOM      9  H   PRO d   1     -69.897  -5.039  22.638  0.00  0.00     0.036 H 
ATOM     10  H   PRO d   1     -69.624  -5.367  20.945  0.00  0.00     0.036 H 
ATOM     11  H   PRO d   1     -68.526  -6.773  23.305  0.00  0.00     0.035 H 
ATOM     12  H   PRO d   1     -67.951  -6.795  21.646  0.00  0.00     0.035 H 
ATOM     13  H   PRO d   1     -69.261  -8.658  21.089  0.00  0.00     0.064 H 
ATOM     14  H   PRO d   1     -69.105  -8.986  22.750  0.00  0.00     0.064 H 
ENDROOT
BRANCH   1  15
ATOM     15  CA  ILE d   1     -71.321 -10.101  23.339  0.00  0.00     0.092 C 
ATOM     16  H   ILE d   1     -70.245 -10.160  23.173  0.00  0.00     0.088 H 
BRANCH  15  17
ATOM     17  N   ILE d   1     -71.567 -10.215  24.778  0.00  0.00    -0.346 N 
ATOM     18  C   ASP d   1     -70.757  -9.683  25.692  0.00  0.00     0.249 C 
ATOM     19  O   ASP d   1     -69.756  -9.016  25.410  0.00  0.00    -0.271 OA
ATOM     20  H   ILE d   1     -72.393 -10.723  25.094  0.00  0.00     0.163 HD
BRANCH  18  21
ATOM     21  CA  ASP d   1     -71.133  -9.948  27.146  0.00  0.00     0.185 C 
ATOM     22  H   ASP d   1     -71.957 -10.661  27.164  0.00  0.00     0.100 H 
BRANCH  21  23
ATOM     23  N   ASP d   1     -69.986 -10.551  27.890  0.00  0.00    -0.066 N 
ATOM     24  H   ASP d   1     -69.695 -11.411  27.425  0.00  0.00     0.275 HD
ATOM     25  H   ASP d   1     -69.208  -9.891  27.906  0.00  0.00     0.275 HD
ATOM     26  H   ASP d   1     -70.275 -10.761  28.845  0.00  0.00     0.275 HD
ENDBRANCH  21  23
BRANCH  21  27
ATOM     27  CB  ASP d   1     -71.597  -8.650  27.821  0.00  0.00     0.050 C 
ATOM     28  H   ASP d   1     -72.482  -8.296  27.292  0.00  0.00     0.052 H 
ATOM     29  H   ASP d   1     -70.771  -7.940  27.783  0.00  0.00     0.052 H 
BRANCH  27  30
ATOM     30  CG  ASP d   1     -71.974  -8.848  29.281  0.00  0.00     0.175 C 
ATOM     31  OD1 ASP d   1     -71.437  -9.777  29.925  0.00  0.00    -0.648 OA
ATOM     32  OD2 ASP d   1     -72.808  -8.068  29.789  0.00  0.00    -0.648 OA
ENDBRANCH  27  30
ENDBRANCH  21  27
ENDBRANCH  18  21
ENDBRANCH  15  17
BRANCH  15  33
ATOM     33  CB  ILE d   1     -71.979 -11.271  22.560  0.00  0.00    -0.030 C 
ATOM     34  H   ILE d   1     -73.054 -11.242  22.737  0.00  0.00     0.043 H 
BRANCH  33  35
ATOM     35  CG1 ILE d   1     -71.439 -12.617  23.063  0.00  0.00    -0.063 C 
ATOM     36  H   ILE d   1     -71.358 -12.543  24.147  0.00  0.00     0.033 H 
ATOM     37  H   ILE d   1     -70.494 -12.793  22.550  0.00  0.00     0.033 H 
BRANCH  35  38
ATOM     38  CD1 ILE d   1     -72.335 -13.807  22.765  0.00  0.00    -0.076 C 
ATOM     39  H   ILE d   1     -73.305 -13.657  23.239  0.00  0.00     0.027 H 
ATOM     40  H   ILE d   1     -72.466 -13.900  21.687  0.00  0.00     0.027 H 
ATOM     41  H   ILE d   1     -71.874 -14.714  23.156  0.00  0.00     0.027 H 
ENDBRANCH  35  38
ENDBRANCH  33  35
BRANCH  33  42
ATOM     42  CG2 ILE d   1     -71.743 -11.121  21.060  0.00  0.00    -0.071 C 
ATOM     43  H   ILE d   1     -72.176 -10.181  20.718  0.00  0.00     0.028 H 
ATOM     44  H   ILE d   1     -70.671 -11.123  20.860  0.00  0.00     0.028 H 
ATOM     45  H   ILE d   1     -72.213 -11.952  20.535  0.00  0.00     0.028 H 
ENDBRANCH  33  42
ENDBRANCH  15  33
ENDBRANCH   1  15
BRANCH   4  46
ATOM     46  C   PRO d   1     -71.816  -6.464  20.402  0.00  0.00     0.241 C 
ATOM     47  O   PRO d   1     -71.709  -5.413  19.762  0.00  0.00    -0.271 OA
ATOM     48  N   PHE d   1     -72.435  -7.543  19.926  0.00  0.00    -0.344 N 
ATOM     49  H   PHE d   1     -72.428  -8.399  20.480  0.00  0.00     0.163 HD
BRANCH  48  50
ATOM     50  CA  PHE d   1     -73.126  -7.541  18.632  0.00  0.00     0.100 C 
ATOM     51  H   PHE d   1     -73.528  -6.537  18.496  0.00  0.00     0.090 H 
BRANCH  50  52
ATOM     52  C   PHE d   1     -74.307  -8.511  18.609  0.00  0.00     0.197 C 
ATOM     53  O   PHE d   1     -74.451  -9.367  19.483  0.00  0.00    -0.646 OA
ATOM     54  OXT PHE d   1     -75.151  -8.460  17.713  0.00  0.00    -0.646 OA
ENDBRANCH  50  52
BRANCH  50  55
ATOM     55  CB  PHE d   1     -72.157  -7.820  17.466  0.00  0.00    -0.013 C 
ATOM     56  H   PHE d   1     -71.494  -6.959  17.386  0.00  0.00     0.043 H 
ATOM     57  H   PHE d   1     -72.764  -8.000  16.579  0.00  0.00     0.043 H 
BRANCH  55  58
ATOM     58  CG  PHE d   1     -71.287  -9.034  17.663  0.00  0.00    -0.056 A 
ATOM     59  CD1 PHE d   1     -71.745 -10.304  17.315  0.00  0.00    -0.077 A 
ATOM     60  CE1 PHE d   1     -70.939 -11.430  17.493  0.00  0.00    -0.082 A 
ATOM     61  H   PHE d   1     -72.746 -10.419  16.898  0.00  0.00     0.084 H 
ATOM     62  CZ  PHE d   1     -69.657 -11.289  18.017  0.00  0.00    -0.083 A 
ATOM     63  H   PHE d   1     -71.313 -12.418  17.222  0.00  0.00     0.083 H 
ATOM     64  CE2 PHE d   1     -69.185 -10.023  18.362  0.00  0.00    -0.082 A 
ATOM     65  H   PHE d   1     -69.024 -12.165  18.157  0.00  0.00     0.083 H 
ATOM     66  CD2 PHE d   1     -70.000  -8.905  18.181  0.00  0.00    -0.077 A 
ATOM     67  H   PHE d   1     -68.182  -9.907  18.772  0.00  0.00     0.083 H 
ATOM     68  H   PHE d   1     -69.625  -7.917  18.448  0.00  0.00     0.084 H 
ENDBRANCH  55  58
ENDBRANCH  50  55
ENDBRANCH  48  50
ENDBRANCH   4  46
TORSDOF 15
