REMARK  8 active torsions:
REMARK  status: ('A' for Active; 'I' for Inactive)
REMARK    1  A    between atoms: N1_3  and  C1'_10 
REMARK    2  A    between atoms: C2'_11  and  O2'_12 
REMARK    3  A    between atoms: C3'_13  and  O3'_14 
REMARK    4  A    between atoms: C3'_13  and  C7'_21 
REMARK    5  A    between atoms: C4'_15  and  O4'_16 
REMARK    6  A    between atoms: C5'_17  and  C6'_19 
REMARK    7  A    between atoms: C6'_19  and  O6'_20 
REMARK    8  A    between atoms: C7'_21  and  O7'_22 
ROOT
ATOM      1  C1' GP0 d   1      33.188  22.865  27.863  0.00  0.00     0.141 C 
ATOM      2  C2' GP0 d   1      33.552  23.187  26.385  0.00  0.00     0.112 C 
ATOM      3  C3' GP0 d   1      32.496  22.589  25.414  0.00  0.00     0.137 C 
ATOM      4  C4' GP0 d   1      32.211  21.121  25.821  0.00  0.00     0.097 C 
ATOM      5  C5' GP0 d   1      32.042  20.890  27.348  0.00  0.00     0.089 C 
ATOM      6  O5' GP0 d   1      33.161  21.425  28.087  0.00  0.00    -0.353 OA
ATOM      7  H3  GP0 d   1      32.166  23.235  28.032  0.00  0.00     0.123 H 
ATOM      8  H4  GP0 d   1      34.518  22.709  26.164  0.00  0.00     0.094 H 
ATOM      9  H7  GP0 d   1      33.084  20.528  25.511  0.00  0.00     0.092 H 
ATOM     10  H9  GP0 d   1      31.110  21.382  27.664  0.00  0.00     0.090 H 
ENDROOT
BRANCH   1  11
ATOM     11  N1  GP0 d   1      34.059  23.578  28.814  0.00  0.00    -0.277 N 
ATOM     12  C1  GP0 d   1      35.446  23.679  28.579  0.00  0.00     0.030 A 
ATOM     13  C2  GP0 d   1      36.241  24.363  29.483  0.00  0.00     0.199 A 
ATOM     14  H1  GP0 d   1      35.888  23.223  27.694  0.00  0.00     0.117 H 
ATOM     15  F1  GP0 d   1      37.556  24.434  29.240  0.00  0.00    -0.199 F 
ATOM     16  C3  GP0 d   1      35.678  24.961  30.627  0.00  0.00     0.289 A 
ATOM     17  O3  GP0 d   1      36.366  25.596  31.432  0.00  0.00    -0.265 OA
ATOM     18  N4  GP0 d   1      34.302  24.861  30.863  0.00  0.00    -0.273 N 
ATOM     19  C5  GP0 d   1      33.492  24.167  29.963  0.00  0.00     0.331 A 
ATOM     20  H2  GP0 d   1      33.900  25.286  31.674  0.00  0.00     0.173 HD
ATOM     21  O5  GP0 d   1      32.287  24.074  30.194  0.00  0.00    -0.246 OA
ENDBRANCH   1  11
BRANCH   2  22
ATOM     22  O2' GP0 d   1      33.710  24.593  26.193  0.00  0.00    -0.388 OA
ATOM     23  H5  GP0 d   1      33.931  24.765  25.285  0.00  0.00     0.210 HD
ENDBRANCH   2  22
BRANCH   3  24
ATOM     24  O3' GP0 d   1      32.972  22.524  24.076  0.00  0.00    -0.382 OA
ATOM     25  H6  GP0 d   1      33.188  23.399  23.775  0.00  0.00     0.210 HD
ENDBRANCH   3  24
BRANCH   3  26
ATOM     26  C7' GP0 d   1      31.251  23.501  25.408  0.00  0.00     0.050 C 
ATOM     27  H13 GP0 d   1      30.522  23.038  24.727  0.00  0.00     0.078 H 
ATOM     28  H14 GP0 d   1      31.570  24.471  24.998  0.00  0.00     0.078 H 
BRANCH  26  29
ATOM     29  O7' GP0 d   1      30.559  23.777  26.624  0.00  0.00    -0.398 OA
ATOM     30  H15 GP0 d   1      29.823  24.350  26.445  0.00  0.00     0.209 HD
ENDBRANCH  26  29
ENDBRANCH   3  26
BRANCH   5  31
ATOM     31  C6' GP0 d   1      32.007  19.422  27.764  0.00  0.00     0.043 C 
ATOM     32  H10 GP0 d   1      31.082  18.962  27.386  0.00  0.00     0.078 H 
ATOM     33  H11 GP0 d   1      32.026  19.358  28.862  0.00  0.00     0.078 H 
BRANCH  31  34
ATOM     34  O6' GP0 d   1      33.124  18.723  27.237  0.00  0.00    -0.398 OA
ATOM     35  H12 GP0 d   1      33.925  19.116  27.564  0.00  0.00     0.209 HD
ENDBRANCH  31  34
ENDBRANCH   5  31
BRANCH   4  36
ATOM     36  O4' GP0 d   1      31.084  20.642  25.089  0.00  0.00    -0.390 OA
ATOM     37  H8  GP0 d   1      30.327  21.181  25.287  0.00  0.00     0.210 HD
ENDBRANCH   4  36
TORSDOF 8
