REMARK  6 active torsions:
REMARK  status: ('A' for Active; 'I' for Inactive)
REMARK    1  A    between atoms: N1'_10  and  C1'_9 
REMARK    2  A    between atoms: C2'_11  and  O2'_12 
REMARK    3  A    between atoms: C3'_13  and  O3'_14 
REMARK    4  A    between atoms: C4'_15  and  O4'_16 
REMARK    5  A    between atoms: C5'_17  and  C6'_19 
REMARK    6  A    between atoms: C6'_19  and  O6'_20 
ROOT
ATOM      1  C1' GPK d   1      33.227  22.796  27.745  0.00  0.00     0.141 C 
ATOM      2  C2' GPK d   1      33.657  23.040  26.293  0.00  0.00     0.105 C 
ATOM      3  C3' GPK d   1      32.613  22.381  25.376  0.00  0.00     0.091 C 
ATOM      4  C4' GPK d   1      32.364  20.929  25.760  0.00  0.00     0.089 C 
ATOM      5  C5' GPK d   1      32.113  20.760  27.272  0.00  0.00     0.088 C 
ATOM      6  O5' GPK d   1      33.168  21.378  27.998  0.00  0.00    -0.353 OA
ATOM      7  H3  GPK d   1      32.215  23.210  27.861  0.00  0.00     0.123 H 
ATOM      8  H4  GPK d   1      34.639  22.576  26.117  0.00  0.00     0.093 H 
ATOM      9  H6  GPK d   1      31.668  22.933  25.483  0.00  0.00     0.091 H 
ATOM     10  H8  GPK d   1      33.255  20.339  25.500  0.00  0.00     0.091 H 
ATOM     11  H10 GPK d   1      31.154  21.240  27.516  0.00  0.00     0.090 H 
ENDROOT
BRANCH   1  12
ATOM     12  N1' GPK d   1      34.099  23.454  28.771  0.00  0.00    -0.277 N 
ATOM     13  C1  GPK d   1      35.503  23.491  28.595  0.00  0.00     0.030 C 
ATOM     14  C2  GPK d   1      36.275  24.181  29.518  0.00  0.00     0.199 C 
ATOM     15  H1  GPK d   1      35.969  22.987  27.750  0.00  0.00     0.117 H 
ATOM     16  F1  GPK d   1      37.610  24.155  29.411  0.00  0.00    -0.199 F 
ATOM     17  C3  GPK d   1      35.649  24.904  30.535  0.00  0.00     0.289 C 
ATOM     18  O3  GPK d   1      36.347  25.543  31.344  0.00  0.00    -0.265 OA
ATOM     19  N4  GPK d   1      34.298  24.935  30.635  0.00  0.00    -0.273 N 
ATOM     20  C5  GPK d   1      33.512  24.265  29.758  0.00  0.00     0.331 C 
ATOM     21  H2  GPK d   1      33.873  25.463  31.370  0.00  0.00     0.173 HD
ATOM     22  O5  GPK d   1      32.262  24.254  29.874  0.00  0.00    -0.246 OA
ENDBRANCH   1  12
BRANCH   2  23
ATOM     23  O2' GPK d   1      33.760  24.449  26.045  0.00  0.00    -0.388 OA
ATOM     24  H5  GPK d   1      34.026  24.592  25.144  0.00  0.00     0.210 HD
ENDBRANCH   2  23
BRANCH   3  25
ATOM     25  O3' GPK d   1      33.022  22.450  24.024  0.00  0.00    -0.390 OA
ATOM     26  H7  GPK d   1      33.123  23.360  23.771  0.00  0.00     0.210 HD
ENDBRANCH   3  25
BRANCH   5  27
ATOM     27  C6' GPK d   1      32.085  19.307  27.768  0.00  0.00     0.043 C 
ATOM     28  H11 GPK d   1      31.135  18.842  27.467  0.00  0.00     0.078 H 
ATOM     29  H12 GPK d   1      32.165  19.300  28.865  0.00  0.00     0.078 H 
BRANCH  27  30
ATOM     30  O6' GPK d   1      33.175  18.551  27.212  0.00  0.00    -0.398 OA
ATOM     31  H13 GPK d   1      33.999  18.946  27.473  0.00  0.00     0.209 HD
ENDBRANCH  27  30
ENDBRANCH   5  27
BRANCH   4  32
ATOM     32  O4' GPK d   1      31.255  20.457  24.976  0.00  0.00    -0.390 OA
ATOM     33  H9  GPK d   1      30.488  20.986  25.163  0.00  0.00     0.210 HD
ENDBRANCH   4  32
TORSDOF 6
