REMARK  5 active torsions:
REMARK  status: ('A' for Active; 'I' for Inactive)
REMARK    1  A    between atoms: C2_3  and  O1_2 
REMARK    2  A    between atoms: C4_7  and  O2_4 
REMARK    3  A    between atoms: C12_18  and  O5_10 
REMARK    4  A    between atoms: C13_19  and  O6_12 
REMARK    5  A    between atoms: C10_16  and  C9_15 
ROOT
ATOM      1  C1  LU2 d   1      36.806 -22.340  41.843  0.00  0.00    -0.017 A 
ATOM      2  C2  LU2 d   1      35.923 -21.287  42.011  0.00  0.00     0.071 A 
ATOM      3  C3  LU2 d   1      36.252 -20.127  42.722  0.00  0.00    -0.018 A 
ATOM      4  O3  LU2 d   1      40.211 -20.142  44.381  0.00  0.00    -0.287 OA
ATOM      5  C4  LU2 d   1      37.527 -20.030  43.317  0.00  0.00     0.085 A 
ATOM      6  O4  LU2 d   1      38.841 -23.411  42.194  0.00  0.00    -0.309 OA
ATOM      7  C5  LU2 d   1      38.475 -21.118  43.159  0.00  0.00     0.081 A 
ATOM      8  C6  LU2 d   1      38.064 -22.285  42.405  0.00  0.00     0.095 A 
ATOM      9  C7  LU2 d   1      39.783 -21.115  43.722  0.00  0.00     0.190 A 
ATOM     10  C8  LU2 d   1      40.600 -22.262  43.519  0.00  0.00    -0.000 A 
ATOM     11  C9  LU2 d   1      40.116 -23.394  42.749  0.00  0.00     0.090 A 
ATOM     12  H1  LU2 d   1      36.508 -23.209  41.269  0.00  0.00     0.092 H 
ATOM     13  H4  LU2 d   1      35.538 -19.316  42.814  0.00  0.00     0.092 H 
ATOM     14  H7  LU2 d   1      41.601 -22.291  43.947  0.00  0.00     0.094 H 
ENDROOT
BRANCH  11  15
ATOM     15  C10 LU2 d   1      40.902 -24.546  42.512  0.00  0.00     0.001 A 
ATOM     16  C11 LU2 d   1      42.325 -24.488  42.640  0.00  0.00    -0.036 A 
ATOM     17  C12 LU2 d   1      43.074 -25.655  42.408  0.00  0.00     0.099 A 
ATOM     18  H8  LU2 d   1      42.817 -23.561  42.911  0.00  0.00     0.089 H 
ATOM     19  C13 LU2 d   1      42.432 -26.852  42.046  0.00  0.00     0.098 A 
ATOM     20  C14 LU2 d   1      41.036 -26.920  41.898  0.00  0.00    -0.047 A 
ATOM     21  C15 LU2 d   1      40.271 -25.767  42.150  0.00  0.00    -0.068 A 
ATOM     22  H9  LU2 d   1      40.558 -27.844  41.595  0.00  0.00     0.087 H 
ATOM     23  H10 LU2 d   1      39.191 -25.810  42.067  0.00  0.00     0.085 H 
BRANCH  17  24
ATOM     24  O5  LU2 d   1      44.417 -25.655  42.520  0.00  0.00    -0.358 OA
ATOM     25  H5  LU2 d   1      44.660 -25.410  43.405  0.00  0.00     0.217 HD
ENDBRANCH  17  24
BRANCH  19  26
ATOM     26  O6  LU2 d   1      43.184 -27.951  41.842  0.00  0.00    -0.358 OA
ATOM     27  H6  LU2 d   1      42.621 -28.679  41.605  0.00  0.00     0.217 HD
ENDBRANCH  19  26
ENDBRANCH  11  15
BRANCH   2  28
ATOM     28  O1  LU2 d   1      34.718 -21.441  41.473  0.00  0.00    -0.361 OA
ATOM     29  H2  LU2 d   1      34.296 -22.201  41.856  0.00  0.00     0.217 HD
ENDBRANCH   2  28
BRANCH   5  30
ATOM     30  O2  LU2 d   1      37.802 -18.880  44.015  0.00  0.00    -0.360 OA
ATOM     31  H3  LU2 d   1      38.683 -18.928  44.368  0.00  0.00     0.217 HD
ENDBRANCH   5  30
TORSDOF 5
