REMARK  3 active torsions:
REMARK  status: ('A' for Active; 'I' for Inactive)
REMARK    1  A    between atoms: C6_6  and  C7_7 
REMARK    2  A    between atoms: C7_7  and  C8_9 
REMARK    3  A    between atoms: C8_9  and  C9_10 
ROOT
ATOM      1  C1  I1E d   1      11.955  13.796  66.862  0.00  0.00    -0.070 A 
ATOM      2  C2  I1E d   1      12.692  12.766  67.424  0.00  0.00    -0.082 A 
ATOM      3  C3  I1E d   1      13.970  12.493  66.952  0.00  0.00    -0.083 A 
ATOM      4  C4  I1E d   1      14.519  13.253  65.929  0.00  0.00    -0.082 A 
ATOM      5  C5  I1E d   1      13.784  14.286  65.372  0.00  0.00    -0.070 A 
ATOM      6  C6  I1E d   1      12.494  14.563  65.829  0.00  0.00     0.010 A 
ATOM      7  H   I1E d   1      10.950  14.008  67.228  0.00  0.00     0.085 H 
ATOM      8  H   I1E d   1      12.270  12.171  68.234  0.00  0.00     0.083 H 
ATOM      9  H   I1E d   1      14.545  11.676  67.388  0.00  0.00     0.083 H 
ATOM     10  H   I1E d   1      15.524  13.038  65.566  0.00  0.00     0.083 H 
ATOM     11  H   I1E d   1      14.215  14.887  64.571  0.00  0.00     0.085 H 
ENDROOT
BRANCH   6  12
ATOM     12  C7  I1E d   1      11.670  15.685  65.247  0.00  0.00     0.159 C 
ATOM     13  O7  I1E d   1      11.364  16.635  65.954  0.00  0.00    -0.292 OA
BRANCH  12  14
ATOM     14  C8  I1E d   1      11.192  15.653  63.851  0.00  0.00    -0.008 C 
ATOM     15  H   I1E d   1      10.647  14.713  63.763  0.00  0.00     0.044 H 
ATOM     16  H   I1E d   1      12.085  15.806  63.245  0.00  0.00     0.044 H 
BRANCH  14  17
ATOM     17  C9  I1E d   1      10.219  16.711  63.383  0.00  0.00    -0.070 C 
ATOM     18  H   I1E d   1       9.311  16.659  63.984  0.00  0.00     0.028 H 
ATOM     19  H   I1E d   1      10.674  17.695  63.494  0.00  0.00     0.028 H 
ATOM     20  H   I1E d   1       9.973  16.539  62.335  0.00  0.00     0.028 H 
ENDBRANCH  14  17
ENDBRANCH  12  14
ENDBRANCH   6  12
TORSDOF 3
