REMARK  28 active torsions:
REMARK  status: ('A' for Active; 'I' for Inactive)
REMARK    1  A    between atoms: N_1  and  CA_2 
REMARK    2  A    between atoms: CA_2  and  C_3 
REMARK    3  A    between atoms: CA_2  and  CB_5 
REMARK       I    between atoms: C_3  and  N_10 
REMARK    4  A    between atoms: CB_5  and  CG_6 
REMARK    5  A    between atoms: CG_6  and  CD_7 
REMARK       I    between atoms: CD_7  and  NE2_9 
REMARK    6  A    between atoms: N_10  and  CA_11 
REMARK    7  A    between atoms: CA_11  and  C_12 
REMARK    8  A    between atoms: CA_11  and  CB_14 
REMARK       I    between atoms: C_12  and  N_15 
REMARK    9  A    between atoms: N_15  and  CA_16 
REMARK   10  A    between atoms: CA_16  and  CB_17 
REMARK   11  A    between atoms: CA_16  and  C_19 
REMARK   12  A    between atoms: CB_17  and  OG_18 
REMARK   13  A    between atoms: OG_18  and  P_21 
REMARK       I    between atoms: C_19  and  N_25 
REMARK   14  A    between atoms: N_25  and  CA_26 
REMARK   15  A    between atoms: CA_26  and  C_27 
REMARK   16  A    between atoms: CA_26  and  CB_29 
REMARK       I    between atoms: C_27  and  N_34 
REMARK   17  A    between atoms: CB_29  and  CG_30 
REMARK   18  A    between atoms: CG_30  and  CD_31 
REMARK       I    between atoms: CD_31  and  NE2_33 
REMARK   19  A    between atoms: N_34  and  CA_35 
REMARK   20  A    between atoms: CA_35  and  C_36 
REMARK   21  A    between atoms: CA_35  and  CB_38 
REMARK       I    between atoms: C_36  and  N_43 
REMARK   22  A    between atoms: CB_38  and  CG_39 
REMARK   23  A    between atoms: CG_39  and  CD_40 
REMARK   24  A    between atoms: N_43  and  CA_44 
REMARK   25  A    between atoms: CA_44  and  C_45 
REMARK   26  A    between atoms: CA_44  and  CB_47 
REMARK   27  A    between atoms: CB_47  and  CG_48 
REMARK   28  A    between atoms: CZ_53  and  OH_54 
ROOT
ATOM      1  CA  GLN d   1      30.150  12.842  70.750  0.00  0.00     0.090 C 
ATOM      2  H   GLN d   1      30.489  11.808  70.818  0.00  0.00     0.087 H 
ENDROOT
BRANCH   1   3
ATOM      3  N   GLN d   1      28.765  12.887  70.322  0.00  0.00    -0.346 N 
ATOM      4  C   SEP d   1      27.826  12.181  70.937  0.00  0.00     0.243 C 
ATOM      5  O   SEP d   1      28.054  11.493  71.931  0.00  0.00    -0.271 OA
ATOM      6  H   GLN d   1      28.507  13.475  69.530  0.00  0.00     0.163 HD
BRANCH   4   7
ATOM      7  CA  SEP d   1      26.425  12.256  70.320  0.00  0.00     0.110 C 
ATOM      8  H   SEP d   1      26.524  12.663  69.314  0.00  0.00     0.090 H 
BRANCH   7   9
ATOM      9  N   SEP d   1      25.843  10.923  70.231  0.00  0.00    -0.344 N 
ATOM     10  C   ALA d   1      26.474   9.942  69.593  0.00  0.00     0.240 C 
ATOM     11  O   ALA d   1      27.538  10.111  68.993  0.00  0.00    -0.271 OA
ATOM     12  H   SEP d   1      24.938  10.740  70.665  0.00  0.00     0.163 HD
BRANCH  10  13
ATOM     13  CA  ALA d   1      25.810   8.568  69.635  0.00  0.00     0.086 C 
ATOM     14  H   ALA d   1      24.734   8.718  69.728  0.00  0.00     0.086 H 
BRANCH  13  15
ATOM     15  N   ALA d   1      26.055   7.822  68.405  0.00  0.00    -0.346 N 
ATOM     16  C   GLN d   1      25.458   8.133  67.256  0.00  0.00     0.248 C 
ATOM     17  O   GLN d   1      24.682   9.088  67.137  0.00  0.00    -0.271 OA
ATOM     18  H   ALA d   1      26.705   7.036  68.426  0.00  0.00     0.163 HD
BRANCH  16  19
ATOM     19  CA  GLN d   1      25.809   7.237  66.061  0.00  0.00     0.176 C 
ATOM     20  H   GLN d   1      26.396   6.395  66.428  0.00  0.00     0.099 H 
BRANCH  19  21
ATOM     21  N   GLN d   1      24.615   6.681  65.429  0.00  0.00    -0.066 N 
ATOM     22  H   GLN d   1      24.078   6.159  66.121  0.00  0.00     0.275 HD
ATOM     23  H   GLN d   1      24.045   7.440  65.056  0.00  0.00     0.275 HD
ATOM     24  H   GLN d   1      24.892   6.058  64.671  0.00  0.00     0.275 HD
ENDBRANCH  19  21
BRANCH  19  25
ATOM     25  CB  GLN d   1      26.642   8.030  65.048  0.00  0.00    -0.022 C 
ATOM     26  H   GLN d   1      26.924   7.339  64.254  0.00  0.00     0.037 H 
ATOM     27  H   GLN d   1      27.485   8.457  65.591  0.00  0.00     0.037 H 
BRANCH  25  28
ATOM     28  CG  GLN d   1      25.898   9.185  64.394  0.00  0.00     0.011 C 
ATOM     29  H   GLN d   1      26.626   9.782  63.844  0.00  0.00     0.047 H 
ATOM     30  H   GLN d   1      25.398   9.748  65.182  0.00  0.00     0.047 H 
BRANCH  28  31
ATOM     31  CD  GLN d   1      24.839   8.721  63.410  0.00  0.00     0.215 C 
ATOM     32  OE1 GLN d   1      24.858   7.579  62.949  0.00  0.00    -0.274 OA
ATOM     33  NE2 GLN d   1      23.908   9.609  63.085  0.00  0.00    -0.370 N 
ATOM     34  H   GLN d   1      23.169   9.356  62.429  0.00  0.00     0.159 HD
ATOM     35  H   GLN d   1      23.931  10.544  63.492  0.00  0.00     0.159 HD
ENDBRANCH  28  31
ENDBRANCH  25  28
ENDBRANCH  19  25
ENDBRANCH  16  19
ENDBRANCH  13  15
BRANCH  13  36
ATOM     36  CB  ALA d   1      26.309   7.778  70.839  0.00  0.00    -0.049 C 
ATOM     37  H   ALA d   1      25.784   6.824  70.889  0.00  0.00     0.030 H 
ATOM     38  H   ALA d   1      27.379   7.600  70.737  0.00  0.00     0.030 H 
ATOM     39  H   ALA d   1      26.119   8.347  71.749  0.00  0.00     0.030 H 
ENDBRANCH  13  36
ENDBRANCH  10  13
ENDBRANCH   7   9
BRANCH   7  40
ATOM     40  CB  SEP d   1      25.508  13.207  71.097  0.00  0.00     0.059 C 
ATOM     41  H   SEP d   1      25.984  14.185  71.168  0.00  0.00     0.079 H 
ATOM     42  H   SEP d   1      25.334  12.802  72.094  0.00  0.00     0.079 H 
BRANCH  40  43
ATOM     43  OG  SEP d   1      24.268  13.341  70.427  0.00  0.00    -0.280 OA
BRANCH  43  44
ATOM     44  P   SEP d   1      23.035  13.892  71.327  0.00  0.00     0.422 P 
ATOM     45  O1P SEP d   1      23.501  15.179  72.185  0.00  0.00    -0.617 OA
ATOM     46  O2P SEP d   1      22.554  12.730  72.306  0.00  0.00    -0.617 OA
ATOM     47  O3P SEP d   1      21.859  14.326  70.323  0.00  0.00    -0.617 OA
ENDBRANCH  43  44
ENDBRANCH  40  43
ENDBRANCH   7  40
ENDBRANCH   4   7
ENDBRANCH   1   3
BRANCH   1  48
ATOM     48  C   GLN d   1      30.258  13.479  72.122  0.00  0.00     0.241 C 
ATOM     49  O   GLN d   1      29.522  14.416  72.451  0.00  0.00    -0.271 OA
ATOM     50  N   GLU d   1      31.154  12.930  72.926  0.00  0.00    -0.346 N 
ATOM     51  H   GLU d   1      31.615  12.070  72.630  0.00  0.00     0.163 HD
BRANCH  50  52
ATOM     52  CA  GLU d   1      31.505  13.501  74.207  0.00  0.00     0.090 C 
ATOM     53  H   GLU d   1      30.717  14.172  74.549  0.00  0.00     0.087 H 
BRANCH  52  54
ATOM     54  C   GLU d   1      32.816  14.297  74.068  0.00  0.00     0.241 C 
ATOM     55  O   GLU d   1      33.838  13.773  73.627  0.00  0.00    -0.271 OA
ATOM     56  N   TYR d   1      32.786  15.568  74.441  0.00  0.00    -0.344 N 
ATOM     57  H   TYR d   1      31.902  15.980  74.741  0.00  0.00     0.163 HD
BRANCH  56  58
ATOM     58  CA  TYR d   1      33.993  16.391  74.431  0.00  0.00     0.100 C 
ATOM     59  H   TYR d   1      34.756  15.855  73.867  0.00  0.00     0.090 H 
BRANCH  58  60
ATOM     60  C   TYR d   1      34.548  16.621  75.829  0.00  0.00     0.197 C 
ATOM     61  O   TYR d   1      35.622  17.190  75.973  0.00  0.00    -0.646 OA
ATOM     62  OXT TYR d   1      33.957  16.267  76.850  0.00  0.00    -0.646 OA
ENDBRANCH  58  60
BRANCH  58  63
ATOM     63  CB  TYR d   1      33.689  17.724  73.767  0.00  0.00    -0.013 C 
ATOM     64  H   TYR d   1      34.617  18.296  73.738  0.00  0.00     0.043 H 
ATOM     65  H   TYR d   1      32.901  18.207  74.345  0.00  0.00     0.043 H 
BRANCH  63  66
ATOM     66  CG  TYR d   1      33.195  17.588  72.351  0.00  0.00    -0.056 A 
ATOM     67  CD1 TYR d   1      31.826  17.557  72.064  0.00  0.00    -0.074 A 
ATOM     68  CE1 TYR d   1      31.354  17.436  70.739  0.00  0.00    -0.051 A 
ATOM     69  H   TYR d   1      31.108  17.628  72.881  0.00  0.00     0.084 H 
ATOM     70  CZ  TYR d   1      32.260  17.327  69.692  0.00  0.00     0.065 A 
ATOM     71  H   TYR d   1      30.283  17.428  70.538  0.00  0.00     0.087 H 
ATOM     72  CE2 TYR d   1      33.630  17.352  69.959  0.00  0.00    -0.051 A 
ATOM     73  CD2 TYR d   1      34.088  17.479  71.292  0.00  0.00    -0.074 A 
ATOM     74  H   TYR d   1      34.346  17.274  69.141  0.00  0.00     0.087 H 
ATOM     75  H   TYR d   1      35.160  17.491  71.491  0.00  0.00     0.084 H 
BRANCH  70  76
ATOM     76  OH  TYR d   1      31.802  17.216  68.386  0.00  0.00    -0.361 OA
ATOM     77  H   TYR d   1      32.126  16.397  68.003  0.00  0.00     0.217 HD
ENDBRANCH  70  76
ENDBRANCH  63  66
ENDBRANCH  58  63
ENDBRANCH  56  58
ENDBRANCH  52  54
BRANCH  52  78
ATOM     78  CB  GLU d   1      31.687  12.373  75.210  0.00  0.00    -0.029 C 
ATOM     79  H   GLU d   1      32.516  11.761  74.855  0.00  0.00     0.037 H 
ATOM     80  H   GLU d   1      30.734  11.848  75.276  0.00  0.00     0.037 H 
BRANCH  78  81
ATOM     81  CG  GLU d   1      32.042  12.830  76.615  0.00  0.00     0.018 C 
ATOM     82  H   GLU d   1      31.206  13.416  76.998  0.00  0.00     0.049 H 
ATOM     83  H   GLU d   1      32.966  13.405  76.556  0.00  0.00     0.049 H 
BRANCH  81  84
ATOM     84  CD  GLU d   1      32.275  11.663  77.574  0.00  0.00     0.172 C 
ATOM     85  OE1 GLU d   1      32.770  10.590  77.130  0.00  0.00    -0.648 OA
ATOM     86  OE2 GLU d   1      31.946  11.828  78.772  0.00  0.00    -0.648 OA
ENDBRANCH  81  84
ENDBRANCH  78  81
ENDBRANCH  52  78
ENDBRANCH  50  52
ENDBRANCH   1  48
BRANCH   1  87
ATOM     87  CB  GLN d   1      31.052  13.542  69.721  0.00  0.00    -0.030 C 
ATOM     88  H   GLN d   1      30.821  14.606  69.763  0.00  0.00     0.037 H 
ATOM     89  H   GLN d   1      30.855  13.079  68.754  0.00  0.00     0.037 H 
BRANCH  87  90
ATOM     90  CG  GLN d   1      32.525  13.397  69.991  0.00  0.00     0.011 C 
ATOM     91  H   GLN d   1      32.739  12.337  70.130  0.00  0.00     0.047 H 
ATOM     92  H   GLN d   1      32.766  13.990  70.873  0.00  0.00     0.047 H 
BRANCH  90  93
ATOM     93  CD  GLN d   1      33.379  13.901  68.839  0.00  0.00     0.215 C 
ATOM     94  OE1 GLN d   1      32.864  14.227  67.764  0.00  0.00    -0.274 OA
ATOM     95  NE2 GLN d   1      34.697  13.969  69.061  0.00  0.00    -0.370 N 
ATOM     96  H   GLN d   1      35.322  14.301  68.326  0.00  0.00     0.159 HD
ATOM     97  H   GLN d   1      35.077  13.689  69.965  0.00  0.00     0.159 HD
ENDBRANCH  90  93
ENDBRANCH  87  90
ENDBRANCH   1  87
TORSDOF 28
