REMARK  7 active torsions:
REMARK  status: ('A' for Active; 'I' for Inactive)
REMARK    1  A    between atoms: OAO_15  and  CAA_1 
REMARK    2  A    between atoms: CAQ_17  and  CAB_2 
REMARK    3  A    between atoms: CAF_6  and  CAT_20 
REMARK    4  A    between atoms: CAX_24  and  CAF_6 
REMARK    5  A    between atoms: CAN_14  and  CAS_19 
REMARK    6  A    between atoms: NAY_25  and  CAN_14 
REMARK    7  A    between atoms: CAU_21  and  OAO_15 
ROOT
ATOM      1  OAC 3T0 d   1     -18.708  26.406 -10.338  0.00  0.00    -0.260 OA
ATOM      2  OAD 3T0 d   1     -19.764  22.448 -12.804  0.00  0.00    -0.175 OA
ATOM      3  SAP 3T0 d   1     -18.626  26.105 -12.991  0.00  0.00    -0.055 SA
ATOM      4  CAV 3T0 d   1     -18.910  25.691 -11.291  0.00  0.00     0.288 A 
ATOM      5  CAW 3T0 d   1     -19.414  23.672 -12.518  0.00  0.00     0.175 A 
ATOM      6  CAX 3T0 d   1     -19.153  24.585 -13.589  0.00  0.00     0.069 A 
ATOM      7  NAY 3T0 d   1     -19.314  24.323 -11.288  0.00  0.00    -0.285 N 
ATOM      8  H18 3T0 d   1     -20.183  24.970 -13.613  0.00  0.00     0.070 H 
ENDROOT
BRANCH   6   9
ATOM      9  CAF 3T0 d   1     -19.375  23.998 -14.916  0.00  0.00    -0.019 C 
ATOM     10  H7  3T0 d   1     -18.450  23.459 -15.168  0.00  0.00     0.042 H 
ATOM     11  H8  3T0 d   1     -20.198  23.278 -14.795  0.00  0.00     0.042 H 
BRANCH   9  12
ATOM     12  CAT 3T0 d   1     -19.712  24.806 -16.105  0.00  0.00    -0.022 A 
ATOM     13  CAM 3T0 d   1     -20.480  26.029 -16.487  0.00  0.00    -0.057 A 
ATOM     14  CAR 3T0 d   1     -20.390  26.430 -18.010  0.00  0.00     0.011 A 
ATOM     15  H15 3T0 d   1     -21.058  26.600 -15.769  0.00  0.00     0.086 H 
ATOM     16 BRAE 3T0 d   1     -21.458  27.898 -18.752  0.00  0.00    -0.051 Br
ATOM     17  CAI 3T0 d   1     -19.487  25.714 -18.904  0.00  0.00    -0.064 A 
ATOM     18  CAL 3T0 d   1     -18.729  24.537 -18.493  0.00  0.00    -0.049 A 
ATOM     19  H11 3T0 d   1     -19.374  26.073 -19.921  0.00  0.00     0.085 H 
ATOM     20  CAU 3T0 d   1     -18.822  24.103 -17.069  0.00  0.00     0.074 A 
ATOM     21  H14 3T0 d   1     -18.116  23.993 -19.202  0.00  0.00     0.087 H 
BRANCH  20  22
ATOM     22  OAO 3T0 d   1     -18.071  23.063 -16.594  0.00  0.00    -0.355 OA
BRANCH  22  23
ATOM     23  CAA 3T0 d   1     -17.741  22.029 -17.440  0.00  0.00     0.010 C 
ATOM     24  H1  3T0 d   1     -17.140  21.287 -16.895  0.00  0.00     0.066 H 
ATOM     25  H2  3T0 d   1     -17.160  22.420 -18.288  0.00  0.00     0.066 H 
ATOM     26  H3  3T0 d   1     -18.660  21.553 -17.814  0.00  0.00     0.066 H 
ENDBRANCH  22  23
ENDBRANCH  20  22
ENDBRANCH   9  12
ENDBRANCH   6   9
BRANCH   7  27
ATOM     27  CAN 3T0 d   1     -19.644  23.526 -10.113  0.00  0.00     0.029 C 
ATOM     28  H16 3T0 d   1     -19.991  24.203  -9.319  0.00  0.00     0.072 H 
ATOM     29  H17 3T0 d   1     -20.452  22.829 -10.380  0.00  0.00     0.072 H 
BRANCH  27  30
ATOM     30  CAS 3T0 d   1     -18.502  22.744  -9.596  0.00  0.00    -0.040 A 
ATOM     31  CAJ 3T0 d   1     -17.565  22.015 -10.488  0.00  0.00    -0.075 A 
ATOM     32  CAG 3T0 d   1     -16.481  21.216  -9.876  0.00  0.00    -0.077 A 
ATOM     33  H12 3T0 d   1     -17.673  22.067 -11.565  0.00  0.00     0.084 H 
ATOM     34  CAQ 3T0 d   1     -16.288  21.143  -8.390  0.00  0.00    -0.062 A 
ATOM     35  H9  3T0 d   1     -15.805  20.666 -10.521  0.00  0.00     0.084 H 
ATOM     36  CAH 3T0 d   1     -17.254  21.864  -7.554  0.00  0.00    -0.077 A 
ATOM     37  CAK 3T0 d   1     -18.379  22.662  -8.160  0.00  0.00    -0.075 A 
ATOM     38  H10 3T0 d   1     -17.156  21.822  -6.475  0.00  0.00     0.084 H 
ATOM     39  H13 3T0 d   1     -19.092  23.172  -7.522  0.00  0.00     0.084 H 
BRANCH  34  40
ATOM     40  CAB 3T0 d   1     -15.142  20.389  -7.701  0.00  0.00    -0.051 C 
ATOM     41  H4  3T0 d   1     -14.512  19.905  -8.462  0.00  0.00     0.033 H 
ATOM     42  H5  3T0 d   1     -15.558  19.624  -7.029  0.00  0.00     0.033 H 
ATOM     43  H6  3T0 d   1     -14.535  21.098  -7.118  0.00  0.00     0.033 H 
ENDBRANCH  34  40
ENDBRANCH  27  30
ENDBRANCH   7  27
TORSDOF 7
