REMARK  2 active torsions:
REMARK  status: ('A' for Active; 'I' for Inactive)
REMARK    1  A    between atoms: C2_4  and  C16_23 
REMARK    2  A    between atoms: C12_19  and  C15_22 
ROOT
ATOM      1  C1  09C d   1      -9.476   1.163   3.115  0.00  0.00     0.247 C 
ATOM      2  N1  09C d   1     -11.435   1.170   1.863  0.00  0.00    -0.272 NA
ATOM      3  O1  09C d   1      -8.882   1.509   4.137  0.00  0.00    -0.271 OA
ATOM      4  C2  09C d   1     -10.565   2.059   2.593  0.00  0.00     0.137 C 
ATOM      5  N2  09C d   1      -9.142  -0.041   2.398  0.00  0.00    -0.353 N 
ATOM      6  C11 09C d   1      -9.846  -0.494   1.139  0.00  0.00     0.035 C 
ATOM      7  C12 09C d   1     -11.263   0.007   1.261  0.00  0.00     0.060 C 
ATOM      8  H   09C d   1     -10.063   2.898   2.111  0.00  0.00     0.098 H 
ATOM      9  H   09C d   1      -8.386  -0.622   2.761  0.00  0.00     0.162 HD
ATOM     10  H   09C d   1      -9.815  -1.579   1.035  0.00  0.00     0.073 H 
ATOM     11  H   09C d   1      -9.360  -0.098   0.247  0.00  0.00     0.073 H 
ENDROOT
BRANCH   4  12
ATOM     12  C16 09C d   1     -11.605   2.527   3.658  0.00  0.00     0.004 A 
ATOM     13  C8  09C d   1     -12.779   1.888   3.706  0.00  0.00    -0.013 A 
ATOM     14  N4  09C d   1     -13.571   2.407   4.624  0.00  0.00    -0.365 N 
ATOM     15  H   09C d   1     -13.047   1.046   3.068  0.00  0.00     0.112 H 
ATOM     16  C18 09C d   1     -12.941   3.431   5.175  0.00  0.00     0.044 A 
ATOM     17  H   09C d   1     -14.505   2.077   4.866  0.00  0.00     0.165 HD
ATOM     18  C10 09C d   1     -13.395   4.266   6.169  0.00  0.00    -0.040 A 
ATOM     19  C20 09C d   1     -11.669   3.576   4.598  0.00  0.00     0.001 A 
ATOM     20  C14 09C d   1     -12.607   5.287   6.638  0.00  0.00     0.013 A 
ATOM     21  H   09C d   1     -14.390   4.115   6.588  0.00  0.00     0.089 H 
ATOM     22 BR2  09C d   1     -13.404   6.334   8.021  0.00  0.00    -0.051 Br
ATOM     23  C4  09C d   1     -11.327   5.464   6.084  0.00  0.00    -0.065 A 
ATOM     24  C6  09C d   1     -10.849   4.613   5.063  0.00  0.00    -0.069 A 
ATOM     25  H   09C d   1     -10.693   6.272   6.449  0.00  0.00     0.085 H 
ATOM     26  H   09C d   1      -9.855   4.761   4.642  0.00  0.00     0.085 H 
ENDBRANCH   4  12
BRANCH   7  27
ATOM     27  C15 09C d   1     -12.544  -0.502   1.039  0.00  0.00     0.018 A 
ATOM     28  C7  09C d   1     -13.546  -0.072   1.822  0.00  0.00    -0.010 A 
ATOM     29  N3  09C d   1     -14.708  -0.624   1.521  0.00  0.00    -0.364 N 
ATOM     30  H   09C d   1     -13.415   0.656   2.622  0.00  0.00     0.112 H 
ATOM     31  C17 09C d   1     -14.475  -1.446   0.524  0.00  0.00     0.044 A 
ATOM     32  H   09C d   1     -15.605  -0.447   1.972  0.00  0.00     0.165 HD
ATOM     33  C9  09C d   1     -15.394  -2.222  -0.106  0.00  0.00    -0.040 A 
ATOM     34  C19 09C d   1     -13.105  -1.433   0.164  0.00  0.00     0.004 A 
ATOM     35  C13 09C d   1     -14.948  -3.016  -1.119  0.00  0.00     0.013 A 
ATOM     36  H   09C d   1     -16.444  -2.210   0.186  0.00  0.00     0.089 H 
ATOM     37 BR1  09C d   1     -16.339  -4.004  -1.869  0.00  0.00    -0.051 Br
ATOM     38  C3  09C d   1     -13.602  -3.048  -1.522  0.00  0.00    -0.065 A 
ATOM     39  C5  09C d   1     -12.649  -2.243  -0.877  0.00  0.00    -0.069 A 
ATOM     40  H   09C d   1     -13.296  -3.701  -2.339  0.00  0.00     0.085 H 
ATOM     41  H   09C d   1     -11.601  -2.251  -1.176  0.00  0.00     0.085 H 
ENDBRANCH   7  27
TORSDOF 2
