REMARK  9 active torsions:
REMARK  status: ('A' for Active; 'I' for Inactive)
REMARK    1  A    between atoms: OAP_16  and  CAA_1 
REMARK    2  A    between atoms: OAQ_17  and  CAB_2 
REMARK    3  A    between atoms: OAR_18  and  CAN_14 
REMARK    4  A    between atoms: CAN_14  and  CAS_19 
REMARK       I    between atoms: CAS_19  and  NAO_15 
REMARK    5  A    between atoms: NAO_15  and  CAU_21 
REMARK    6  A    between atoms: CAT_20  and  OAP_16 
REMARK    7  A    between atoms: CAV_22  and  OAQ_17 
REMARK    8  A    between atoms: CAW_23  and  OAR_18 
REMARK    9  A    between atoms: CAX_24  and  PAY_25 
ROOT
ATOM      1  OAC 2CT d   1      25.255   9.442  -8.561  0.00  0.00    -0.271 OA
ATOM      2  NAO 2CT d   1      23.404   9.996  -9.800  0.00  0.00    -0.323 N 
ATOM      3  CAS 2CT d   1      24.668  10.171  -9.382  0.00  0.00     0.246 C 
ATOM      4  H16 2CT d   1      23.032  10.554 -10.542  0.00  0.00     0.169 HD
ENDROOT
BRANCH   2   5
ATOM      5  CAU 2CT d   1      22.655   9.068  -9.211  0.00  0.00     0.071 A 
ATOM      6  CAM 2CT d   1      22.405   9.192  -7.854  0.00  0.00    -0.022 A 
ATOM      7  CAT 2CT d   1      21.628   8.268  -7.196  0.00  0.00     0.070 A 
ATOM      8  H13 2CT d   1      22.826  10.026  -7.305  0.00  0.00     0.091 H 
ATOM      9  CAJ 2CT d   1      21.085   7.197  -7.900  0.00  0.00    -0.048 A 
ATOM     10  CAL 2CT d   1      21.303   7.079  -9.269  0.00  0.00    -0.046 A 
ATOM     11  H10 2CT d   1      20.491   6.454  -7.381  0.00  0.00     0.087 H 
ATOM     12  CAV 2CT d   1      22.104   8.026  -9.907  0.00  0.00     0.095 A 
ATOM     13  H12 2CT d   1      20.858   6.265  -9.830  0.00  0.00     0.087 H 
BRANCH   7  14
ATOM     14  OAP 2CT d   1      21.436   8.456  -5.857  0.00  0.00    -0.356 OA
BRANCH  14  15
ATOM     15  CAA 2CT d   1      21.189   7.243  -5.204  0.00  0.00     0.010 C 
ATOM     16  H1  2CT d   1      21.039   7.429  -4.130  0.00  0.00     0.066 H 
ATOM     17  H2  2CT d   1      22.048   6.570  -5.343  0.00  0.00     0.066 H 
ATOM     18  H3  2CT d   1      20.286   6.777  -5.625  0.00  0.00     0.066 H 
ENDBRANCH  14  15
ENDBRANCH   7  14
BRANCH  12  19
ATOM     19  OAQ 2CT d   1      22.329   7.917 -11.211  0.00  0.00    -0.354 OA
BRANCH  19  20
ATOM     20  CAB 2CT d   1      21.342   6.905 -11.464  0.00  0.00     0.010 C 
ATOM     21  H4  2CT d   1      21.349   6.645 -12.533  0.00  0.00     0.066 H 
ATOM     22  H5  2CT d   1      20.348   7.285 -11.185  0.00  0.00     0.066 H 
ATOM     23  H6  2CT d   1      21.573   6.010 -10.868  0.00  0.00     0.066 H 
ENDBRANCH  19  20
ENDBRANCH  12  19
ENDBRANCH   2   5
BRANCH   3  24
ATOM     24  CAN 2CT d   1      25.428  11.310 -10.033  0.00  0.00     0.100 C 
ATOM     25  H14 2CT d   1      26.137  11.748  -9.314  0.00  0.00     0.089 H 
ATOM     26  H15 2CT d   1      25.978  10.941 -10.912  0.00  0.00     0.089 H 
BRANCH  24  27
ATOM     27  OAR 2CT d   1      24.446  12.317 -10.444  0.00  0.00    -0.341 OA
BRANCH  27  28
ATOM     28  CAW 2CT d   1      24.695  13.673 -10.366  0.00  0.00     0.089 A 
ATOM     29  CAI 2CT d   1      25.991  14.223 -10.395  0.00  0.00    -0.050 A 
ATOM     30  CAG 2CT d   1      26.121  15.627 -10.304  0.00  0.00    -0.080 A 
ATOM     31  H9  2CT d   1      26.864  13.587 -10.485  0.00  0.00     0.087 H 
ATOM     32  CAH 2CT d   1      24.996  16.444 -10.175  0.00  0.00    -0.082 A 
ATOM     33  H7  2CT d   1      27.107  16.076 -10.335  0.00  0.00     0.083 H 
ATOM     34  CAK 2CT d   1      23.707  15.877 -10.177  0.00  0.00    -0.061 A 
ATOM     35  H8  2CT d   1      25.115  17.517 -10.073  0.00  0.00     0.083 H 
ATOM     36  CAX 2CT d   1      23.578  14.496 -10.224  0.00  0.00     0.101 A 
ATOM     37  H11 2CT d   1      22.828  16.510 -10.142  0.00  0.00     0.085 H 
BRANCH  36  38
ATOM     38  PAY 2CT d   1      21.879  13.688 -10.203  0.00  0.00     0.298 P 
ATOM     39  OAD 2CT d   1      21.832  12.520  -9.215  0.00  0.00    -0.636 OA
ATOM     40  OAE 2CT d   1      20.876  14.754  -9.638  0.00  0.00    -0.636 OA
ATOM     41  OAF 2CT d   1      21.729  13.178 -11.687  0.00  0.00    -0.636 OA
ENDBRANCH  36  38
ENDBRANCH  27  28
ENDBRANCH  24  27
ENDBRANCH   3  24
TORSDOF 9
