REMARK  10 active torsions:
REMARK  status: ('A' for Active; 'I' for Inactive)
REMARK    1  A    between atoms: N7_4  and  C29_26 
REMARK    2  A    between atoms: C8_5  and  C10_7 
REMARK    3  A    between atoms: C9_6  and  C27_24 
REMARK    4  A    between atoms: C9_6  and  C28_25 
REMARK    5  A    between atoms: C10_7  and  C11_8 
REMARK    6  A    between atoms: C12_9  and  C13_10 
REMARK    7  A    between atoms: N16_13  and  C23_20 
REMARK    8  A    between atoms: C23_20  and  C24_21 
REMARK    9  A    between atoms: C24_21  and  C25_22 
REMARK   10  A    between atoms: C25_22  and  S26_23 
ROOT
ATOM      1  C11 DIW d   1     -22.159  -0.619 -12.412  0.00  0.00    -0.097 C 
ATOM      2  C12 DIW d   1     -23.360  -0.544 -11.821  0.00  0.00    -0.075 C 
ATOM      3  H   DIW d   1     -21.228  -0.609 -11.845  0.00  0.00     0.077 H 
ATOM      4  H   DIW d   1     -24.256  -0.569 -12.442  0.00  0.00     0.084 H 
ENDROOT
BRANCH   2   5
ATOM      5  C13 DIW d   1     -23.509  -0.428 -10.353  0.00  0.00    -0.023 A 
ATOM      6  C14 DIW d   1     -24.759  -0.426  -9.727  0.00  0.00     0.001 A 
ATOM      7  C15 DIW d   1     -24.823  -0.309  -8.341  0.00  0.00     0.045 A 
ATOM      8  C22 DIW d   1     -25.937  -0.558 -10.460  0.00  0.00    -0.070 A 
ATOM      9  N16 DIW d   1     -23.704  -0.183  -7.611  0.00  0.00    -0.356 N 
ATOM     10  C19 DIW d   1     -26.060  -0.314  -7.698  0.00  0.00    -0.056 A 
ATOM     11  C17 DIW d   1     -22.499  -0.175  -8.192  0.00  0.00    -0.019 A 
ATOM     12  C18 DIW d   1     -22.369  -0.299  -9.571  0.00  0.00    -0.057 A 
ATOM     13  H   DIW d   1     -21.606  -0.070  -7.576  0.00  0.00     0.111 H 
ATOM     14  H   DIW d   1     -21.382  -0.295 -10.033  0.00  0.00     0.086 H 
ATOM     15  C20 DIW d   1     -27.232  -0.438  -8.434  0.00  0.00    -0.081 A 
ATOM     16  H   DIW d   1     -26.108  -0.220  -6.613  0.00  0.00     0.087 H 
ATOM     17  C21 DIW d   1     -27.174  -0.563  -9.819  0.00  0.00    -0.082 A 
ATOM     18  H   DIW d   1     -28.197  -0.437  -7.927  0.00  0.00     0.083 H 
ATOM     19  H   DIW d   1     -28.091  -0.664 -10.399  0.00  0.00     0.083 H 
ATOM     20  H   DIW d   1     -25.890  -0.658 -11.544  0.00  0.00     0.084 H 
BRANCH   9  21
ATOM     21  C23 DIW d   1     -23.796  -0.057  -6.150  0.00  0.00     0.001 C 
ATOM     22  H   DIW d   1     -24.665   0.550  -5.897  0.00  0.00     0.064 H 
ATOM     23  H   DIW d   1     -22.888   0.414  -5.774  0.00  0.00     0.064 H 
BRANCH  21  24
ATOM     24  C24 DIW d   1     -23.946  -1.436  -5.513  0.00  0.00    -0.035 C 
ATOM     25  H   DIW d   1     -23.158  -2.078  -5.906  0.00  0.00     0.036 H 
ATOM     26  H   DIW d   1     -24.941  -1.812  -5.750  0.00  0.00     0.036 H 
BRANCH  24  27
ATOM     27  C25 DIW d   1     -23.806  -1.388  -3.992  0.00  0.00     0.047 C 
ATOM     28  H   DIW d   1     -22.887  -0.859  -3.740  0.00  0.00     0.060 H 
ATOM     29  H   DIW d   1     -23.783  -2.408  -3.609  0.00  0.00     0.060 H 
BRANCH  27  30
ATOM     30  S26 DIW d   1     -25.091  -0.586  -3.306  0.00  0.00     0.101 S 
ATOM     31  O30 DIW d   1     -25.299  -1.088  -1.927  0.00  0.00    -0.595 OA
ATOM     32  O31 DIW d   1     -26.316  -0.823  -4.100  0.00  0.00    -0.595 OA
ATOM     33  O32 DIW d   1     -24.793   0.861  -3.286  0.00  0.00    -0.595 OA
ENDBRANCH  27  30
ENDBRANCH  24  27
ENDBRANCH  21  24
ENDBRANCH   9  21
ENDBRANCH   2   5
BRANCH   1  34
ATOM     34  C10 DIW d   1     -22.187  -0.718 -13.918  0.00  0.00    -0.014 C 
ATOM     35  H   DIW d   1     -22.735  -1.641 -14.105  0.00  0.00     0.047 H 
ATOM     36  H   DIW d   1     -22.570   0.253 -14.233  0.00  0.00     0.047 H 
BRANCH  34  37
ATOM     37  C8  DIW d   1     -20.915  -0.884 -14.735  0.00  0.00     0.005 A 
ATOM     38  N7  DIW d   1     -20.871  -0.949 -16.078  0.00  0.00    -0.357 N 
ATOM     39  C3  DIW d   1     -19.612  -1.094 -16.529  0.00  0.00     0.041 A 
ATOM     40  C   DIW d   1     -19.091  -1.214 -17.812  0.00  0.00    -0.057 A 
ATOM     41  C2  DIW d   1     -18.775  -1.118 -15.425  0.00  0.00    -0.018 A 
ATOM     42  C30 DIW d   1     -17.721  -1.359 -17.995  0.00  0.00    -0.081 A 
ATOM     43  H   DIW d   1     -19.757  -1.194 -18.675  0.00  0.00     0.086 H 
ATOM     44  C31 DIW d   1     -16.877  -1.374 -16.892  0.00  0.00    -0.082 A 
ATOM     45  H   DIW d   1     -17.311  -1.460 -19.000  0.00  0.00     0.083 H 
ATOM     46  C32 DIW d   1     -17.403  -1.258 -15.604  0.00  0.00    -0.074 A 
ATOM     47  H   DIW d   1     -15.801  -1.477 -17.032  0.00  0.00     0.083 H 
ATOM     48  H   DIW d   1     -16.739  -1.277 -14.740  0.00  0.00     0.084 H 
ATOM     49  C9  DIW d   1     -19.531  -0.963 -14.149  0.00  0.00     0.021 A 
BRANCH  38  50
ATOM     50  C29 DIW d   1     -22.083  -0.887 -16.931  0.00  0.00    -0.014 C 
ATOM     51  H   DIW d   1     -22.746  -1.715 -16.679  0.00  0.00     0.057 H 
ATOM     52  H   DIW d   1     -22.598   0.058 -16.760  0.00  0.00     0.057 H 
ATOM     53  H   DIW d   1     -21.792  -0.959 -17.979  0.00  0.00     0.057 H 
ENDBRANCH  38  50
BRANCH  49  54
ATOM     54  C27 DIW d   1     -19.288  -2.174 -13.257  0.00  0.00    -0.060 C 
ATOM     55  H   DIW d   1     -18.229  -2.231 -13.004  0.00  0.00     0.029 H 
ATOM     56  H   DIW d   1     -19.876  -2.076 -12.345  0.00  0.00     0.029 H 
ATOM     57  H   DIW d   1     -19.585  -3.079 -13.787  0.00  0.00     0.029 H 
ENDBRANCH  49  54
BRANCH  49  58
ATOM     58  C28 DIW d   1     -19.132   0.334 -13.457  0.00  0.00    -0.060 C 
ATOM     59  H   DIW d   1     -19.719   0.454 -12.546  0.00  0.00     0.029 H 
ATOM     60  H   DIW d   1     -18.072   0.299 -13.206  0.00  0.00     0.029 H 
ATOM     61  H   DIW d   1     -19.320   1.174 -14.126  0.00  0.00     0.029 H 
ENDBRANCH  49  58
ENDBRANCH  34  37
ENDBRANCH   1  34
TORSDOF 10
