REMARK  6 active torsions:
REMARK  status: ('A' for Active; 'I' for Inactive)
REMARK    1  A    between atoms: N_2  and  C14_20 
REMARK    2  A    between atoms: O_3  and  C5_11 
REMARK    3  A    between atoms: C7_13  and  O_3 
REMARK    4  A    between atoms: C9_15  and  C24_30 
REMARK    5  A    between atoms: C14_20  and  C15_21 
REMARK    6  A    between atoms: C24_30  and  N26_31 
ROOT
ATOM      1  C   5MA d   1      11.387  12.361  15.365  0.00  0.00     0.070 A 
ATOM      2  N   5MA d   1       7.307  12.543  15.180  0.00  0.00    -0.243 N 
ATOM      3  C1  5MA d   1      10.863  12.653  14.086  0.00  0.00    -0.057 A 
ATOM      4 CL1  5MA d   1      13.079  12.225  15.589  0.00  0.00    -0.081 Cl
ATOM      5  C2  5MA d   1       9.463  12.680  13.896  0.00  0.00    -0.051 A 
ATOM      6  C3  5MA d   1       8.653  12.521  15.001  0.00  0.00     0.088 A 
ATOM      7  C4  5MA d   1       9.141  12.294  16.268  0.00  0.00     0.144 A 
ATOM      8  C5  5MA d   1      10.551  12.223  16.472  0.00  0.00     0.130 A 
ATOM      9  N12 5MA d   1       6.979  12.350  16.509  0.00  0.00    -0.065 NA
ATOM     10  N13 5MA d   1       8.108  12.173  17.164  0.00  0.00    -0.127 NA
ATOM     11  H   5MA d   1      11.534  12.856  13.251  0.00  0.00     0.086 H 
ATOM     12  H   5MA d   1       9.035  12.822  12.904  0.00  0.00     0.087 H 
ENDROOT
BRANCH   8  13
ATOM     13  O   5MA d   1      11.193  11.996  17.697  0.00  0.00    -0.305 OA
BRANCH  13  14
ATOM     14  C7  5MA d   1      10.792  12.711  18.812  0.00  0.00     0.100 A 
ATOM     15  C6  5MA d   1      10.925  14.077  18.844  0.00  0.00    -0.028 A 
ATOM     16  C11 5MA d   1      10.519  14.749  20.018  0.00  0.00     0.037 A 
ATOM     17  H   5MA d   1      11.330  14.624  17.993  0.00  0.00     0.090 H 
ATOM     18 CL2  5MA d   1      10.690  16.466  19.980  0.00  0.00    -0.084 Cl
ATOM     19  C10 5MA d   1       9.993  14.070  21.162  0.00  0.00    -0.052 A 
ATOM     20  C9  5MA d   1       9.856  12.662  21.100  0.00  0.00    -0.007 A 
ATOM     21  H   5MA d   1       9.706  14.621  22.057  0.00  0.00     0.087 H 
ATOM     22  C8  5MA d   1      10.264  12.012  19.918  0.00  0.00     0.075 A 
ATOM     23 CL3  5MA d   1      10.138  10.305  19.797  0.00  0.00    -0.081 Cl
BRANCH  20  24
ATOM     24  C24 5MA d   1       9.265  11.887  22.250  0.00  0.00     0.105 C 
ATOM     25  H   5MA d   1       8.728  11.061  21.785  0.00  0.00     0.082 H 
ATOM     26  H   5MA d   1       8.706  12.624  22.827  0.00  0.00     0.082 H 
BRANCH  24  27
ATOM     27  N26 5MA d   1      10.172  11.249  23.226  0.00  0.00    -0.075 N 
ATOM     28  H   5MA d   1       9.621  10.768  23.936  0.00  0.00     0.274 HD
ATOM     29  H   5MA d   1      10.769  10.577  22.744  0.00  0.00     0.274 HD
ATOM     30  H   5MA d   1      10.750  11.963  23.669  0.00  0.00     0.274 HD
ENDBRANCH  24  27
ENDBRANCH  20  24
ENDBRANCH  13  14
ENDBRANCH   8  13
BRANCH   2  31
ATOM     31  C14 5MA d   1       6.236  12.606  14.144  0.00  0.00     0.059 C 
ATOM     32  H   5MA d   1       6.394  13.272  13.296  0.00  0.00     0.077 H 
ATOM     33  H   5MA d   1       5.286  13.059  14.428  0.00  0.00     0.077 H 
BRANCH  31  34
ATOM     34  C15 5MA d   1       6.249  11.076  13.869  0.00  0.00     0.062 A 
ATOM     35  N16 5MA d   1       6.675  10.638  12.672  0.00  0.00    -0.278 N 
ATOM     36  N17 5MA d   1       6.655   9.284  12.759  0.00  0.00    -0.154 NA
ATOM     37  H   5MA d   1       6.954  11.203  11.870  0.00  0.00     0.189 HD
ATOM     38  C18 5MA d   1       6.267   8.794  13.966  0.00  0.00     0.181 A 
ATOM     39  C19 5MA d   1       5.972   9.929  14.746  0.00  0.00     0.039 A 
ATOM     40  N20 5MA d   1       6.170   7.462  14.364  0.00  0.00    -0.239 NA
ATOM     41  C23 5MA d   1       5.522   9.645  16.110  0.00  0.00    -0.066 A 
ATOM     42  C22 5MA d   1       5.398   8.307  16.600  0.00  0.00    -0.065 A 
ATOM     43  H   5MA d   1       5.275  10.476  16.770  0.00  0.00     0.085 H 
ATOM     44  C21 5MA d   1       5.746   7.268  15.698  0.00  0.00     0.005 A 
ATOM     45  H   5MA d   1       5.054   8.096  17.613  0.00  0.00     0.085 H 
ATOM     46  H   5MA d   1       5.681   6.242  16.062  0.00  0.00     0.114 H 
ENDBRANCH  31  34
ENDBRANCH   2  31
TORSDOF 6
