REMARK  18 active torsions:
REMARK  status: ('A' for Active; 'I' for Inactive)
REMARK    1  A    between atoms: N_1  and  CA_2 
REMARK    2  A    between atoms: CA_2  and  CB_3 
REMARK    3  A    between atoms: CA_2  and  C_5 
REMARK    4  A    between atoms: CB_3  and  OG_4 
REMARK    5  A    between atoms: OG_4  and  P_7 
REMARK       I    between atoms: C_5  and  N_11 
REMARK    6  A    between atoms: N_11  and  CA_12 
REMARK    7  A    between atoms: CA_12  and  C_13 
REMARK    8  A    between atoms: CA_12  and  CB_15 
REMARK       I    between atoms: C_13  and  N_19 
REMARK    9  A    between atoms: CB_15  and  CG_16 
REMARK   10  A    between atoms: N_19  and  CA_20 
REMARK   11  A    between atoms: CA_20  and  C_21 
REMARK   12  A    between atoms: CA_20  and  CB_23 
REMARK       I    between atoms: C_21  and  N_28 
REMARK   13  A    between atoms: CB_23  and  CG_24 
REMARK   14  A    between atoms: CG_24  and  CD_25 
REMARK   15  A    between atoms: N_28  and  CA_29 
REMARK   16  A    between atoms: CA_29  and  C_30 
REMARK   17  A    between atoms: CA_29  and  CB_32 
REMARK   18  A    between atoms: CB_32  and  CG_33 
ROOT
ATOM      1  CA  GLU d   1       0.160  -5.349  18.112  0.00  0.00     0.090 C 
ATOM      2  H   GLU d   1       0.245  -4.678  17.257  0.00  0.00     0.087 H 
ENDROOT
BRANCH   1   3
ATOM      3  N   GLU d   1      -1.208  -5.830  18.211  0.00  0.00    -0.346 N 
ATOM      4  C   ASP d   1      -1.952  -6.046  17.131  0.00  0.00     0.241 C 
ATOM      5  O   ASP d   1      -1.576  -5.778  15.990  0.00  0.00    -0.271 OA
ATOM      6  H   GLU d   1      -1.607  -6.006  19.133  0.00  0.00     0.163 HD
BRANCH   4   7
ATOM      7  CA  ASP d   1      -3.324  -6.660  17.384  0.00  0.00     0.098 C 
ATOM      8  H   ASP d   1      -3.588  -6.444  18.419  0.00  0.00     0.088 H 
BRANCH   7   9
ATOM      9  N   ASP d   1      -4.367  -6.079  16.549  0.00  0.00    -0.345 N 
ATOM     10  C   SEP d   1      -4.630  -4.778  16.552  0.00  0.00     0.251 C 
ATOM     11  O   SEP d   1      -3.966  -3.939  17.215  0.00  0.00    -0.271 OA
ATOM     12  H   ASP d   1      -4.912  -6.692  15.943  0.00  0.00     0.163 HD
BRANCH  10  13
ATOM     13  CA  SEP d   1      -5.787  -4.346  15.715  0.00  0.00     0.196 C 
ATOM     14  H   SEP d   1      -6.129  -5.204  15.137  0.00  0.00     0.102 H 
BRANCH  13  15
ATOM     15  N   SEP d   1      -6.827  -3.859  16.574  0.00  0.00    -0.064 N 
ATOM     16  H   SEP d   1      -7.622  -3.562  16.008  0.00  0.00     0.275 HD
ATOM     17  H   SEP d   1      -7.119  -4.603  17.208  0.00  0.00     0.275 HD
ATOM     18  H   SEP d   1      -6.477  -3.067  17.114  0.00  0.00     0.275 HD
ENDBRANCH  13  15
BRANCH  13  19
ATOM     19  CB  SEP d   1      -5.401  -3.265  14.765  0.00  0.00     0.067 C 
ATOM     20  H   SEP d   1      -4.358  -3.440  14.500  0.00  0.00     0.079 H 
ATOM     21  H   SEP d   1      -5.600  -2.320  15.270  0.00  0.00     0.079 H 
BRANCH  19  22
ATOM     22  OG  SEP d   1      -6.110  -3.239  13.584  0.00  0.00    -0.280 OA
BRANCH  22  23
ATOM     23  P   SEP d   1      -6.357  -1.898  12.833  0.00  0.00     0.422 P 
ATOM     24  O1P SEP d   1      -7.597  -2.046  11.986  0.00  0.00    -0.617 OA
ATOM     25  O2P SEP d   1      -6.583  -0.789  13.833  0.00  0.00    -0.617 OA
ATOM     26  O3P SEP d   1      -5.169  -1.578  11.956  0.00  0.00    -0.617 OA
ENDBRANCH  22  23
ENDBRANCH  19  22
ENDBRANCH  13  19
ENDBRANCH  10  13
ENDBRANCH   7   9
BRANCH   7  27
ATOM     27  CB  ASP d   1      -3.258  -8.168  17.153  0.00  0.00     0.043 C 
ATOM     28  H   ASP d   1      -2.368  -8.547  17.655  0.00  0.00     0.052 H 
ATOM     29  H   ASP d   1      -3.236  -8.343  16.077  0.00  0.00     0.052 H 
BRANCH  27  30
ATOM     30  CG  ASP d   1      -4.457  -8.892  17.720  0.00  0.00     0.175 C 
ATOM     31  OD1 ASP d   1      -4.791  -8.648  18.899  0.00  0.00    -0.648 OA
ATOM     32  OD2 ASP d   1      -5.074  -9.693  16.988  0.00  0.00    -0.648 OA
ENDBRANCH  27  30
ENDBRANCH   7  27
ENDBRANCH   4   7
ENDBRANCH   1   3
BRANCH   1  33
ATOM     33  C   GLU d   1       1.095  -6.539  17.924  0.00  0.00     0.241 C 
ATOM     34  O   GLU d   1       0.734  -7.674  18.239  0.00  0.00    -0.271 OA
ATOM     35  N   PHE d   1       2.289  -6.282  17.403  0.00  0.00    -0.344 N 
ATOM     36  H   PHE d   1       2.526  -5.323  17.148  0.00  0.00     0.163 HD
BRANCH  35  37
ATOM     37  CA  PHE d   1       3.268  -7.340  17.188  0.00  0.00     0.100 C 
ATOM     38  H   PHE d   1       3.108  -8.106  17.946  0.00  0.00     0.090 H 
BRANCH  37  39
ATOM     39  C   PHE d   1       4.690  -6.810  17.337  0.00  0.00     0.197 C 
ATOM     40  O   PHE d   1       4.922  -5.677  17.762  0.00  0.00    -0.646 OA
ATOM     41  OXT PHE d   1       5.649  -7.521  17.046  0.00  0.00    -0.646 OA
ENDBRANCH  37  39
BRANCH  37  42
ATOM     42  CB  PHE d   1       3.082  -7.962  15.801  0.00  0.00    -0.013 C 
ATOM     43  H   PHE d   1       3.858  -8.718  15.677  0.00  0.00     0.043 H 
ATOM     44  H   PHE d   1       3.135  -7.153  15.073  0.00  0.00     0.043 H 
BRANCH  42  45
ATOM     45  CG  PHE d   1       1.753  -8.648  15.614  0.00  0.00    -0.056 A 
ATOM     46  CD1 PHE d   1       1.508  -9.888  16.184  0.00  0.00    -0.077 A 
ATOM     47  CE1 PHE d   1       0.289 -10.518  16.010  0.00  0.00    -0.082 A 
ATOM     48  H   PHE d   1       2.285 -10.372  16.776  0.00  0.00     0.084 H 
ATOM     49  CZ  PHE d   1      -0.698  -9.915  15.258  0.00  0.00    -0.083 A 
ATOM     50  H   PHE d   1       0.108 -11.491  16.467  0.00  0.00     0.083 H 
ATOM     51  CE2 PHE d   1      -0.466  -8.684  14.682  0.00  0.00    -0.082 A 
ATOM     52  H   PHE d   1      -1.659 -10.411  15.120  0.00  0.00     0.083 H 
ATOM     53  CD2 PHE d   1       0.753  -8.056  14.859  0.00  0.00    -0.077 A 
ATOM     54  H   PHE d   1      -1.244  -8.206  14.087  0.00  0.00     0.083 H 
ATOM     55  H   PHE d   1       0.930  -7.084  14.399  0.00  0.00     0.084 H 
ENDBRANCH  42  45
ENDBRANCH  37  42
ENDBRANCH  35  37
ENDBRANCH   1  33
BRANCH   1  56
ATOM     56  CB  GLU d   1       0.544  -4.574  19.372  0.00  0.00    -0.029 C 
ATOM     57  H   GLU d   1       0.734  -5.308  20.155  0.00  0.00     0.037 H 
ATOM     58  H   GLU d   1      -0.275  -3.889  19.590  0.00  0.00     0.037 H 
BRANCH  56  59
ATOM     59  CG  GLU d   1       1.803  -3.735  19.230  0.00  0.00     0.018 C 
ATOM     60  H   GLU d   1       1.552  -2.845  18.653  0.00  0.00     0.049 H 
ATOM     61  H   GLU d   1       2.562  -4.345  18.741  0.00  0.00     0.049 H 
BRANCH  59  62
ATOM     62  CD  GLU d   1       2.351  -3.288  20.570  0.00  0.00     0.172 C 
ATOM     63  OE1 GLU d   1       1.871  -3.793  21.607  0.00  0.00    -0.648 OA
ATOM     64  OE2 GLU d   1       3.261  -2.432  20.589  0.00  0.00    -0.648 OA
ENDBRANCH  59  62
ENDBRANCH  56  59
ENDBRANCH   1  56
TORSDOF 18
