REMARK  9 active torsions:
REMARK  status: ('A' for Active; 'I' for Inactive)
REMARK    1  A    between atoms: C1_1  and  S1_12 
REMARK    2  A    between atoms: C2_2  and  O2_3 
REMARK    3  A    between atoms: C3_4  and  O3_5 
REMARK    4  A    between atoms: C4_6  and  O4_7 
REMARK    5  A    between atoms: C5_8  and  C6_10 
REMARK    6  A    between atoms: C6_10  and  O6_11 
REMARK    7  A    between atoms: S1_12  and  C1'_13 
REMARK    8  A    between atoms: C1'_13  and  C2'_14 
REMARK    9  A    between atoms: C1'_13  and  C3'_15 
ROOT
ATOM      1  C1  IPT d   1     -14.245 -28.220 -26.362  0.00  0.00     0.110 C 
ATOM      2  C2  IPT d   1     -12.998 -27.994 -25.510  0.00  0.00     0.096 C 
ATOM      3  C3  IPT d   1     -11.756 -27.799 -26.390  0.00  0.00     0.090 C 
ATOM      4  C4  IPT d   1     -11.649 -28.822 -27.524  0.00  0.00     0.089 C 
ATOM      5  C5  IPT d   1     -13.001 -28.939 -28.234  0.00  0.00     0.087 C 
ATOM      6  O5  IPT d   1     -13.987 -29.294 -27.267  0.00  0.00    -0.363 OA
ATOM      7  H   IPT d   1     -14.476 -27.304 -26.906  0.00  0.00     0.104 H 
ATOM      8  H   IPT d   1     -12.838 -28.875 -24.888  0.00  0.00     0.092 H 
ATOM      9  H   IPT d   1     -11.851 -26.820 -26.859  0.00  0.00     0.091 H 
ATOM     10  H   IPT d   1     -10.906 -28.495 -28.252  0.00  0.00     0.091 H 
ATOM     11  H   IPT d   1     -13.164 -27.964 -28.693  0.00  0.00     0.090 H 
ENDROOT
BRANCH   1  12
ATOM     12  S1  IPT d   1     -15.631 -28.630 -25.353  0.00  0.00    -0.131 SA
BRANCH  12  13
ATOM     13  C1' IPT d   1     -17.079 -28.258 -26.305  0.00  0.00    -0.014 C 
ATOM     14  H   IPT d   1     -16.964 -27.267 -26.745  0.00  0.00     0.055 H 
BRANCH  13  15
ATOM     15  C2' IPT d   1     -17.262 -29.251 -27.454  0.00  0.00    -0.065 C 
ATOM     16  H   IPT d   1     -16.394 -29.207 -28.112  0.00  0.00     0.028 H 
ATOM     17  H   IPT d   1     -17.363 -30.258 -27.049  0.00  0.00     0.028 H 
ATOM     18  H   IPT d   1     -18.159 -28.993 -28.016  0.00  0.00     0.028 H 
ENDBRANCH  13  15
BRANCH  13  19
ATOM     19  C3' IPT d   1     -18.300 -28.278 -25.386  0.00  0.00    -0.065 C 
ATOM     20  H   IPT d   1     -18.399 -29.266 -24.937  0.00  0.00     0.028 H 
ATOM     21  H   IPT d   1     -18.175 -27.532 -24.601  0.00  0.00     0.028 H 
ATOM     22  H   IPT d   1     -19.194 -28.050 -25.966  0.00  0.00     0.028 H 
ENDBRANCH  13  19
ENDBRANCH  12  13
ENDBRANCH   1  12
BRANCH   2  23
ATOM     23  O2  IPT d   1     -13.191 -26.841 -24.682  0.00  0.00    -0.389 OA
ATOM     24  H   IPT d   1     -12.407 -26.698 -24.146  0.00  0.00     0.210 HD
ENDBRANCH   2  23
BRANCH   3  25
ATOM     25  O3  IPT d   1     -10.579 -27.862 -25.574  0.00  0.00    -0.390 OA
ATOM     26  H   IPT d   1      -9.802 -27.740 -26.125  0.00  0.00     0.210 HD
ENDBRANCH   3  25
BRANCH   5  27
ATOM     27  C6  IPT d   1     -13.080 -29.947 -29.378  0.00  0.00     0.043 C 
ATOM     28  H   IPT d   1     -13.951 -29.703 -29.986  0.00  0.00     0.078 H 
ATOM     29  H   IPT d   1     -13.148 -30.946 -28.947  0.00  0.00     0.078 H 
BRANCH  27  30
ATOM     30  O6  IPT d   1     -11.918 -29.900 -30.220  0.00  0.00    -0.398 OA
ATOM     31  H   IPT d   1     -11.834 -29.022 -30.599  0.00  0.00     0.209 HD
ENDBRANCH  27  30
ENDBRANCH   5  27
BRANCH   4  32
ATOM     32  O4  IPT d   1     -11.228 -30.088 -26.994  0.00  0.00    -0.390 OA
ATOM     33  H   IPT d   1     -11.162 -30.727 -27.708  0.00  0.00     0.210 HD
ENDBRANCH   4  32
TORSDOF 9
