REMARK  12 active torsions:
REMARK  status: ('A' for Active; 'I' for Inactive)
REMARK    1  A    between atoms: C1_1  and  O1_2 
REMARK    2  A    between atoms: O1_2  and  CAS_25 
REMARK    3  A    between atoms: C2_3  and  O2_4 
REMARK    4  A    between atoms: O2_4  and  CAN_22 
REMARK    5  A    between atoms: C3_5  and  O3_6 
REMARK    6  A    between atoms: O3_6  and  CAB_14 
REMARK    7  A    between atoms: C4_7  and  O4_8 
REMARK    8  A    between atoms: C5_9  and  C6_11 
REMARK    9  A    between atoms: C6_11  and  O6_12 
REMARK   10  A    between atoms: CAB_14  and  CAC_15 
REMARK   11  A    between atoms: CAF_18  and  CAG_19 
REMARK   12  A    between atoms: CAN_22  and  CAP_24 
ROOT
ATOM      1  C1  MQT d   1      23.404   0.660  19.045  0.00  0.00     0.158 C 
ATOM      2  C2  MQT d   1      23.897   1.793  18.168  0.00  0.00     0.117 C 
ATOM      3  C3  MQT d   1      22.945   2.983  18.134  0.00  0.00     0.105 C 
ATOM      4  C4  MQT d   1      21.474   2.574  18.105  0.00  0.00     0.090 C 
ATOM      5  C5  MQT d   1      21.159   1.281  18.847  0.00  0.00     0.089 C 
ATOM      6  O5  MQT d   1      22.129   0.284  18.531  0.00  0.00    -0.349 OA
ATOM      7  H1  MQT d   1      23.302   0.995  20.088  0.00  0.00     0.133 H 
ATOM      8  H2  MQT d   1      24.872   2.133  18.548  0.00  0.00     0.095 H 
ATOM      9  H3  MQT d   1      23.120   3.621  19.013  0.00  0.00     0.092 H 
ATOM     10  H4  MQT d   1      20.879   3.385  18.550  0.00  0.00     0.091 H 
ATOM     11  H6  MQT d   1      21.180   1.479  19.929  0.00  0.00     0.090 H 
ENDROOT
BRANCH   3  12
ATOM     12  O3  MQT d   1      23.258   3.689  16.938  0.00  0.00    -0.306 OA
BRANCH  12  13
ATOM     13  CAB MQT d   1      22.967   5.101  17.001  0.00  0.00     0.293 C 
ATOM     14  OAA MQT d   1      22.475   5.570  18.015  0.00  0.00    -0.259 OA
BRANCH  13  15
ATOM     15  CAC MQT d   1      23.304   5.924  15.795  0.00  0.00     0.039 A 
ATOM     16  CAD MQT d   1      23.361   7.306  15.863  0.00  0.00    -0.067 A 
ATOM     17  CAE MQT d   1      23.684   8.032  14.725  0.00  0.00    -0.076 A 
ATOM     18  H10 MQT d   1      23.155   7.816  16.797  0.00  0.00     0.085 H 
ATOM     19  CAF MQT d   1      23.954   7.386  13.524  0.00  0.00    -0.062 A 
ATOM     20  H11 MQT d   1      23.726   9.114  14.773  0.00  0.00     0.084 H 
ATOM     21  CAH MQT d   1      23.899   6.001  13.459  0.00  0.00    -0.076 A 
ATOM     22  CAI MQT d   1      23.571   5.276  14.594  0.00  0.00    -0.067 A 
ATOM     23  H15 MQT d   1      24.111   5.489  12.527  0.00  0.00     0.084 H 
ATOM     24  H16 MQT d   1      23.522   4.194  14.545  0.00  0.00     0.085 H 
BRANCH  19  25
ATOM     25  CAG MQT d   1      24.299   8.179  12.291  0.00  0.00    -0.051 C 
ATOM     26  H12 MQT d   1      24.477   7.492  11.451  0.00  0.00     0.033 H 
ATOM     27  H13 MQT d   1      25.206   8.772  12.478  0.00  0.00     0.033 H 
ATOM     28  H14 MQT d   1      23.466   8.853  12.043  0.00  0.00     0.033 H 
ENDBRANCH  19  25
ENDBRANCH  13  15
ENDBRANCH  12  13
ENDBRANCH   3  12
BRANCH   2  29
ATOM     29  O2  MQT d   1      24.047   1.299  16.839  0.00  0.00    -0.336 OA
BRANCH  29  30
ATOM     30  CAN MQT d   1      25.344   1.738  16.356  0.00  0.00     0.253 C 
ATOM     31  OAO MQT d   1      25.695   3.013  16.513  0.00  0.00    -0.192 OA
BRANCH  30  32
ATOM     32  CAP MQT d   1      26.175   0.881  15.794  0.00  0.00    -0.017 C 
ATOM     33  H17 MQT d   1      27.096   1.404  15.498  0.00  0.00     0.035 H 
ATOM     34  H18 MQT d   1      25.701   0.441  14.904  0.00  0.00     0.035 H 
ATOM     35  H19 MQT d   1      26.420   0.084  16.511  0.00  0.00     0.035 H 
ENDBRANCH  30  32
ENDBRANCH  29  30
ENDBRANCH   2  29
BRANCH   4  36
ATOM     36  O4  MQT d   1      21.099   2.390  16.739  0.00  0.00    -0.390 OA
ATOM     37  H5  MQT d   1      21.225   3.204  16.265  0.00  0.00     0.210 HD
ENDBRANCH   4  36
BRANCH   1  38
ATOM     38  O1  MQT d   1      24.350  -0.412  18.981  0.00  0.00    -0.363 OA
BRANCH  38  39
ATOM     39  CAS MQT d   1      23.781  -1.682  19.307  0.00  0.00     0.007 C 
ATOM     40  H20 MQT d   1      24.556  -2.459  19.239  0.00  0.00     0.066 H 
ATOM     41  H21 MQT d   1      22.969  -1.912  18.602  0.00  0.00     0.066 H 
ATOM     42  H22 MQT d   1      23.380  -1.652  20.331  0.00  0.00     0.066 H 
ENDBRANCH  38  39
ENDBRANCH   1  38
BRANCH   5  43
ATOM     43  C6  MQT d   1      19.778   0.752  18.461  0.00  0.00     0.043 C 
ATOM     44  H7  MQT d   1      19.796   0.409  17.416  0.00  0.00     0.078 H 
ATOM     45  H8  MQT d   1      19.034   1.554  18.571  0.00  0.00     0.078 H 
BRANCH  43  46
ATOM     46  O6  MQT d   1      19.430  -0.343  19.317  0.00  0.00    -0.398 OA
ATOM     47  H9  MQT d   1      20.073  -1.036  19.221  0.00  0.00     0.209 HD
ENDBRANCH  43  46
ENDBRANCH   5  43
TORSDOF 12
