REMARK  6 active torsions:
REMARK  status: ('A' for Active; 'I' for Inactive)
REMARK    1  A    between atoms: N1_2  and  C1'_10 
REMARK    2  A    between atoms: C2'_11  and  O2'_12 
REMARK    3  A    between atoms: C3'_13  and  O3'_14 
REMARK    4  A    between atoms: C4'_15  and  O4'_16 
REMARK    5  A    between atoms: C5'_17  and  C6'_19 
REMARK    6  A    between atoms: C6'_19  and  O6'_20 
ROOT
ATOM      1  C1' GPV d   1      33.189  22.702  27.867  0.00  0.00     0.141 C 
ATOM      2  C2' GPV d   1      33.651  23.025  26.416  0.00  0.00     0.105 C 
ATOM      3  C3' GPV d   1      32.646  22.338  25.478  0.00  0.00     0.091 C 
ATOM      4  C4' GPV d   1      32.399  20.890  25.826  0.00  0.00     0.089 C 
ATOM      5  C5' GPV d   1      32.126  20.719  27.329  0.00  0.00     0.088 C 
ATOM      6  O5' GPV d   1      33.228  21.273  27.959  0.00  0.00    -0.353 OA
ATOM      7  H3  GPV d   1      32.141  23.018  27.975  0.00  0.00     0.123 H 
ATOM      8  H4  GPV d   1      34.656  22.612  26.247  0.00  0.00     0.093 H 
ATOM      9  H6  GPV d   1      31.689  22.858  25.631  0.00  0.00     0.091 H 
ATOM     10  H8  GPV d   1      33.261  20.273  25.532  0.00  0.00     0.091 H 
ATOM     11  H10 GPV d   1      31.182  21.219  27.591  0.00  0.00     0.090 H 
ENDROOT
BRANCH   1  12
ATOM     12  N1  GPV d   1      33.957  23.442  28.909  0.00  0.00    -0.278 N 
ATOM     13  C2  GPV d   1      33.299  24.350  29.732  0.00  0.00     0.331 A 
ATOM     14  O2  GPV d   1      32.087  24.535  29.610  0.00  0.00    -0.246 OA
ATOM     15  N3  GPV d   1      34.029  25.086  30.681  0.00  0.00    -0.274 N 
ATOM     16  C4  GPV d   1      35.410  24.885  30.816  0.00  0.00     0.267 A 
ATOM     17  H1  GPV d   1      33.563  25.754  31.261  0.00  0.00     0.173 HD
ATOM     18  O4  GPV d   1      36.010  25.532  31.660  0.00  0.00    -0.267 OA
ATOM     19  C5  GPV d   1      36.070  23.976  29.992  0.00  0.00     0.090 A 
ATOM     20  I   GPV d   1      38.154  23.560  30.155  0.00  0.00    -0.037 I 
ATOM     21  C6  GPV d   1      35.323  23.264  29.043  0.00  0.00     0.008 A 
ATOM     22  H2  GPV d   1      35.831  22.552  28.394  0.00  0.00     0.114 H 
ENDBRANCH   1  12
BRANCH   2  23
ATOM     23  O2' GPV d   1      33.692  24.460  26.184  0.00  0.00    -0.388 OA
ATOM     24  H5  GPV d   1      33.976  24.628  25.293  0.00  0.00     0.210 HD
ENDBRANCH   2  23
BRANCH   3  25
ATOM     25  O3' GPV d   1      32.963  22.494  24.116  0.00  0.00    -0.390 OA
ATOM     26  H7  GPV d   1      32.974  23.419  23.898  0.00  0.00     0.210 HD
ENDBRANCH   3  25
BRANCH   5  27
ATOM     27  C6' GPV d   1      32.155  19.283  27.909  0.00  0.00     0.043 C 
ATOM     28  H11 GPV d   1      31.153  18.838  27.821  0.00  0.00     0.078 H 
ATOM     29  H12 GPV d   1      32.445  19.328  28.969  0.00  0.00     0.078 H 
BRANCH  27  30
ATOM     30  O6' GPV d   1      33.089  18.473  27.203  0.00  0.00    -0.398 OA
ATOM     31  H13 GPV d   1      32.840  18.430  26.287  0.00  0.00     0.209 HD
ENDBRANCH  27  30
ENDBRANCH   5  27
BRANCH   4  32
ATOM     32  O4' GPV d   1      31.228  20.507  25.100  0.00  0.00    -0.390 OA
ATOM     33  H9  GPV d   1      30.499  21.055  25.366  0.00  0.00     0.210 HD
ENDBRANCH   4  32
TORSDOF 6
