REMARK  7 active torsions:
REMARK  status: ('A' for Active; 'I' for Inactive)
REMARK    1  A    between atoms: N1_2  and  C1'_13 
REMARK    2  A    between atoms: C5_10  and  C7_12 
REMARK    3  A    between atoms: C2'_14  and  O2'_15 
REMARK    4  A    between atoms: C3'_16  and  O3'_17 
REMARK    5  A    between atoms: C4'_18  and  O4'_19 
REMARK    6  A    between atoms: C5'_20  and  C6'_22 
REMARK    7  A    between atoms: C6'_22  and  O6'_23 
ROOT
ATOM      1  C1' GPW d   1      33.359  22.826  28.045  0.00  0.00     0.141 C 
ATOM      2  C2' GPW d   1      33.812  23.072  26.567  0.00  0.00     0.105 C 
ATOM      3  C3' GPW d   1      32.776  22.431  25.595  0.00  0.00     0.091 C 
ATOM      4  C4' GPW d   1      32.527  20.955  25.973  0.00  0.00     0.089 C 
ATOM      5  C5' GPW d   1      32.329  20.752  27.513  0.00  0.00     0.088 C 
ATOM      6  O5' GPW d   1      33.317  21.415  28.310  0.00  0.00    -0.353 OA
ATOM      7  H3  GPW d   1      32.326  23.196  28.117  0.00  0.00     0.123 H 
ATOM      8  H4  GPW d   1      34.777  22.567  26.413  0.00  0.00     0.093 H 
ATOM      9  H6  GPW d   1      31.831  22.982  25.709  0.00  0.00     0.091 H 
ATOM     10  H8  GPW d   1      33.403  20.365  25.665  0.00  0.00     0.091 H 
ATOM     11  H10 GPW d   1      31.330  21.145  27.752  0.00  0.00     0.090 H 
ENDROOT
BRANCH   1  12
ATOM     12  N1  GPW d   1      34.136  23.576  29.084  0.00  0.00    -0.279 N 
ATOM     13  C2  GPW d   1      33.432  24.421  29.976  0.00  0.00     0.331 A 
ATOM     14  O2  GPW d   1      32.203  24.515  29.880  0.00  0.00    -0.246 OA
ATOM     15  N3  GPW d   1      34.126  25.169  30.952  0.00  0.00    -0.275 N 
ATOM     16  C4  GPW d   1      35.535  25.047  31.026  0.00  0.00     0.265 A 
ATOM     17  H1  GPW d   1      33.633  25.773  31.578  0.00  0.00     0.173 HD
ATOM     18  O4  GPW d   1      36.146  25.691  31.873  0.00  0.00    -0.267 OA
ATOM     19  C5  GPW d   1      36.237  24.202  30.139  0.00  0.00     0.131 A 
ATOM     20  C6  GPW d   1      35.532  23.471  29.169  0.00  0.00     0.007 A 
ATOM     21  H2  GPW d   1      36.071  22.821  28.481  0.00  0.00     0.113 H 
BRANCH  19  22
ATOM     22  C7  GPW d   1      37.774  24.021  30.248  0.00  0.00     0.424 C 
ATOM     23  F1  GPW d   1      38.463  25.080  29.908  0.00  0.00    -0.166 F 
ATOM     24  F2  GPW d   1      38.088  23.676  31.496  0.00  0.00    -0.166 F 
ATOM     25  F3  GPW d   1      38.147  22.995  29.523  0.00  0.00    -0.166 F 
ENDBRANCH  19  22
ENDBRANCH   1  12
BRANCH   2  26
ATOM     26  O2' GPW d   1      34.013  24.484  26.324  0.00  0.00    -0.388 OA
ATOM     27  H5  GPW d   1      34.287  24.613  25.424  0.00  0.00     0.210 HD
ENDBRANCH   2  26
BRANCH   3  28
ATOM     28  O3' GPW d   1      33.163  22.504  24.209  0.00  0.00    -0.390 OA
ATOM     29  H7  GPW d   1      33.264  23.414  23.957  0.00  0.00     0.210 HD
ENDBRANCH   3  28
BRANCH   5  30
ATOM     30  C6' GPW d   1      32.449  19.346  28.063  0.00  0.00     0.043 C 
ATOM     31  H11 GPW d   1      31.439  18.967  28.279  0.00  0.00     0.078 H 
ATOM     32  H12 GPW d   1      33.034  19.382  28.994  0.00  0.00     0.078 H 
BRANCH  30  33
ATOM     33  O6' GPW d   1      33.086  18.450  27.162  0.00  0.00    -0.398 OA
ATOM     34  H13 GPW d   1      32.585  18.404  26.356  0.00  0.00     0.209 HD
ENDBRANCH  30  33
ENDBRANCH   5  30
BRANCH   4  35
ATOM     35  O4' GPW d   1      31.375  20.492  25.240  0.00  0.00    -0.390 OA
ATOM     36  H9  GPW d   1      30.620  21.021  25.471  0.00  0.00     0.210 HD
ENDBRANCH   4  35
TORSDOF 7
