REMARK  7 active torsions:
REMARK  status: ('A' for Active; 'I' for Inactive)
REMARK    1  A    between atoms: C6_6  and  NAD_10 
REMARK    2  A    between atoms: OAO_18  and  CAA_7 
REMARK    3  A    between atoms: CAX_24  and  CAB_8 
REMARK    4  A    between atoms: CAX_24  and  CAC_9 
REMARK    5  A    between atoms: CAP_19  and  OAO_18 
REMARK    6  A    between atoms: CAS_21  and  CAQ_20 
REMARK    7  A    between atoms: CAX_24  and  NAY_25 
ROOT
ATOM      1  N1  BK4 d   1      16.686  11.623  62.700  0.00  0.00    -0.224 NA
ATOM      2  C2  BK4 d   1      17.885  12.117  62.369  0.00  0.00     0.091 A 
ATOM      3  N3  BK4 d   1      18.017  13.435  62.237  0.00  0.00    -0.222 NA
ATOM      4  C4  BK4 d   1      16.971  14.270  62.446  0.00  0.00     0.164 A 
ATOM      5  C5  BK4 d   1      15.724  13.778  62.807  0.00  0.00     0.088 A 
ATOM      6  C6  BK4 d   1      15.597  12.392  62.925  0.00  0.00     0.139 A 
ATOM      7  NAN BK4 d   1      15.694  15.970  62.659  0.00  0.00    -0.169 NA
ATOM      8  CAS BK4 d   1      14.931  14.912  62.947  0.00  0.00     0.105 A 
ATOM      9  NAY BK4 d   1      16.849  15.599  62.393  0.00  0.00    -0.247 N 
ATOM     10  H   BK4 d   1      18.736  11.454  62.211  0.00  0.00     0.146 H 
ENDROOT
BRANCH   8  11
ATOM     11  CAQ BK4 d   1      13.581  14.903  63.296  0.00  0.00    -0.004 A 
ATOM     12  CAG BK4 d   1      12.677  15.635  62.524  0.00  0.00    -0.070 A 
ATOM     13  CAI BK4 d   1      11.318  15.660  62.848  0.00  0.00    -0.071 A 
ATOM     14  H   BK4 d   1      13.035  16.193  61.659  0.00  0.00     0.084 H 
ATOM     15  CAT BK4 d   1      10.848  14.959  63.955  0.00  0.00    -0.023 A 
ATOM     16  H   BK4 d   1      10.623  16.231  62.232  0.00  0.00     0.084 H 
ATOM     17  CAJ BK4 d   1       9.492  14.973  64.282  0.00  0.00    -0.040 A 
ATOM     18  CAU BK4 d   1      11.754  14.235  64.737  0.00  0.00    -0.025 A 
ATOM     19  CAP BK4 d   1       9.044  14.253  65.379  0.00  0.00     0.069 A 
ATOM     20  H   BK4 d   1       8.789  15.547  63.678  0.00  0.00     0.089 H 
ATOM     21  CAF BK4 d   1       9.948  13.540  66.159  0.00  0.00    -0.050 A 
ATOM     22  CAH BK4 d   1      11.290  13.547  65.839  0.00  0.00    -0.070 A 
ATOM     23  H   BK4 d   1       9.596  12.976  67.023  0.00  0.00     0.087 H 
ATOM     24  H   BK4 d   1      11.994  13.001  66.466  0.00  0.00     0.085 H 
ATOM     25  CAK BK4 d   1      13.113  14.208  64.413  0.00  0.00    -0.060 A 
ATOM     26  H   BK4 d   1      13.809  13.643  65.033  0.00  0.00     0.086 H 
BRANCH  19  27
ATOM     27  OAO BK4 d   1       7.734  14.236  65.728  0.00  0.00    -0.356 OA
BRANCH  27  28
ATOM     28  CAA BK4 d   1       6.855  14.748  64.684  0.00  0.00     0.010 C 
ATOM     29  H   BK4 d   1       7.123  15.780  64.459  0.00  0.00     0.066 H 
ATOM     30  H   BK4 d   1       6.965  14.139  63.787  0.00  0.00     0.066 H 
ATOM     31  H   BK4 d   1       5.822  14.706  65.028  0.00  0.00     0.066 H 
ENDBRANCH  27  28
ENDBRANCH  19  27
ENDBRANCH   8  11
BRANCH   6  32
ATOM     32  NAD BK4 d   1      14.459  11.796  63.255  0.00  0.00    -0.383 N 
ATOM     33  H   BK4 d   1      13.625  12.354  63.436  0.00  0.00     0.157 HD
ATOM     34  H   BK4 d   1      14.418  10.779  63.328  0.00  0.00     0.157 HD
ENDBRANCH   6  32
BRANCH   9  35
ATOM     35  CAX BK4 d   1      17.982  16.492  62.038  0.00  0.00     0.029 C 
ATOM     36  H   BK4 d   1      18.896  16.030  62.411  0.00  0.00     0.074 H 
BRANCH  35  37
ATOM     37  CAB BK4 d   1      17.885  17.865  62.701  0.00  0.00    -0.056 C 
ATOM     38  H   BK4 d   1      18.759  18.459  62.434  0.00  0.00     0.030 H 
ATOM     39  H   BK4 d   1      16.982  18.370  62.357  0.00  0.00     0.030 H 
ATOM     40  H   BK4 d   1      17.845  17.742  63.783  0.00  0.00     0.030 H 
ENDBRANCH  35  37
BRANCH  35  41
ATOM     41  CAC BK4 d   1      18.040  16.646  60.513  0.00  0.00    -0.056 C 
ATOM     42  H   BK4 d   1      17.138  17.149  60.165  0.00  0.00     0.030 H 
ATOM     43  H   BK4 d   1      18.915  17.238  60.242  0.00  0.00     0.030 H 
ATOM     44  H   BK4 d   1      18.109  15.661  60.052  0.00  0.00     0.030 H 
ENDBRANCH  35  41
ENDBRANCH   9  35
TORSDOF 7
