REMARK  4 active torsions:
REMARK  status: ('A' for Active; 'I' for Inactive)
REMARK    1  A    between atoms: CA_4  and  C_1 
REMARK    2  A    between atoms: N_2  and  CA_4 
REMARK       I    between atoms: C3_7  and  N_2 
REMARK    3  A    between atoms: C3_7  and  C4_9 
REMARK    4  A    between atoms: C8_14  and  O4_10 
ROOT
ATOM      1  N2  MD6 d   1      -1.596   2.428   4.261  0.00  0.00    -0.253 NA
ATOM      2  C4  MD6 d   1      -2.039   2.883   3.084  0.00  0.00     0.159 A 
ATOM      3  C5  MD6 d   1      -0.713   3.139   4.965  0.00  0.00     0.003 A 
ATOM      4  C6  MD6 d   1      -0.272   4.359   4.489  0.00  0.00    -0.063 A 
ATOM      5  C7  MD6 d   1      -0.740   4.856   3.264  0.00  0.00    -0.047 A 
ATOM      6  C8  MD6 d   1      -1.643   4.090   2.544  0.00  0.00     0.100 A 
ATOM      7  H   MD6 d   1      -0.340   2.757   5.915  0.00  0.00     0.114 H 
ATOM      8  H   MD6 d   1       0.445   4.939   5.070  0.00  0.00     0.085 H 
ATOM      9  H   MD6 d   1      -0.402   5.821   2.887  0.00  0.00     0.087 H 
ENDROOT
BRANCH   2  10
ATOM     10  C3  MD6 d   1      -2.992   2.036   2.355  0.00  0.00     0.298 C 
ATOM     11  N   MD6 d   1      -3.351   2.333   1.015  0.00  0.00    -0.214 NA
ATOM     12  O3  MD6 d   1      -3.466   1.041   2.888  0.00  0.00    -0.264 OA
BRANCH  11  13
ATOM     13  CA  MD6 d   1      -4.254   1.501   0.352  0.00  0.00     0.079 C 
ATOM     14  H   MD6 d   1      -4.686   0.597   0.780  0.00  0.00     0.125 H 
BRANCH  13  15
ATOM     15  C   MD6 d   1      -4.555   2.015  -1.034  0.00  0.00     0.217 C 
ATOM     16  O   MD6 d   1      -4.346   3.290  -1.302  0.00  0.00    -0.643 OA
ATOM     17  OXT MD6 d   1      -4.961   1.246  -1.895  0.00  0.00    -0.643 OA
ENDBRANCH  13  15
ENDBRANCH  11  13
ENDBRANCH   2  10
BRANCH   6  18
ATOM     18  O4  MD6 d   1      -2.136   4.509   1.348  0.00  0.00    -0.358 OA
ATOM     19  H   MD6 d   1      -1.755   5.362   1.127  0.00  0.00     0.217 HD
ENDBRANCH   6  18
TORSDOF 4
