REMARK  8 active torsions:
REMARK  status: ('A' for Active; 'I' for Inactive)
REMARK    1  A    between atoms: O3A_8  and  PB_1 
REMARK    2  A    between atoms: PA_5  and  O3A_8 
REMARK    3  A    between atoms: PA_5  and  O5'_9 
REMARK    4  A    between atoms: O5'_9  and  C5'_10 
REMARK    5  A    between atoms: C5'_10  and  C4'_11 
REMARK    6  A    between atoms: C3'_13  and  O3'_14 
REMARK    7  A    between atoms: C2'_15  and  O2'_16 
REMARK    8  A    between atoms: C1'_17  and  N9_18 
ROOT
ATOM      1  C4' ADP d   1     -25.791  68.485  -0.607  0.00  0.00     0.089 C 
ATOM      2  O4' ADP d   1     -25.216  69.037  -1.800  0.00  0.00    -0.353 OA
ATOM      3  C3' ADP d   1     -27.024  69.328  -0.315  0.00  0.00     0.091 C 
ATOM      4  C2' ADP d   1     -27.414  69.903  -1.663  0.00  0.00     0.105 C 
ATOM      5  C1' ADP d   1     -26.087  70.000  -2.402  0.00  0.00     0.139 C 
ATOM      6  H   ADP d   1     -25.111  68.522   0.244  0.00  0.00     0.090 H 
ATOM      7  H   ADP d   1     -27.827  68.755   0.149  0.00  0.00     0.091 H 
ATOM      8  H   ADP d   1     -28.154  69.282  -2.169  0.00  0.00     0.093 H 
ATOM      9  H   ADP d   1     -25.709  71.020  -2.326  0.00  0.00     0.122 H 
ENDROOT
BRANCH   5  10
ATOM     10  N9  ADP d   1     -26.212  69.701  -3.852  0.00  0.00    -0.294 N 
ATOM     11  C8  ADP d   1     -27.032  68.807  -4.452  0.00  0.00     0.071 A 
ATOM     12  N7  ADP d   1     -26.859  68.815  -5.797  0.00  0.00    -0.236 NA
ATOM     13  H   ADP d   1     -27.738  68.166  -3.924  0.00  0.00     0.144 H 
ATOM     14  C5  ADP d   1     -25.909  69.730  -6.067  0.00  0.00     0.149 A 
ATOM     15  C6  ADP d   1     -25.231  70.245  -7.277  0.00  0.00     0.155 A 
ATOM     16  C4  ADP d   1     -25.483  70.311  -4.784  0.00  0.00     0.167 A 
ATOM     17  N6  ADP d   1     -25.559  69.765  -8.497  0.00  0.00    -0.382 N 
ATOM     18  N1  ADP d   1     -24.283  71.203  -7.118  0.00  0.00    -0.222 NA
ATOM     19  H   ADP d   1     -26.276  69.045  -8.586  0.00  0.00     0.157 HD
ATOM     20  H   ADP d   1     -25.089  70.123  -9.329  0.00  0.00     0.157 HD
ATOM     21  C2  ADP d   1     -23.951  71.696  -5.907  0.00  0.00     0.091 A 
ATOM     22  N3  ADP d   1     -24.519  71.271  -4.763  0.00  0.00    -0.222 NA
ATOM     23  H   ADP d   1     -23.189  72.473  -5.852  0.00  0.00     0.146 H 
ENDBRANCH   5  10
BRANCH   4  24
ATOM     24  O2' ADP d   1     -28.038  71.186  -1.562  0.00  0.00    -0.388 OA
ATOM     25  H   ADP d   1     -28.836  71.112  -1.033  0.00  0.00     0.210 HD
ENDBRANCH   4  24
BRANCH   1  26
ATOM     26  C5' ADP d   1     -26.100  66.994  -0.799  0.00  0.00     0.058 C 
ATOM     27  H   ADP d   1     -25.182  66.415  -0.695  0.00  0.00     0.079 H 
ATOM     28  H   ADP d   1     -26.818  66.671  -0.046  0.00  0.00     0.079 H 
BRANCH  26  29
ATOM     29  O5' ADP d   1     -26.650  66.788  -2.104  0.00  0.00    -0.287 OA
BRANCH  29  30
ATOM     30  PA  ADP d   1     -27.515  65.497  -2.528  0.00  0.00     0.418 P 
ATOM     31  O1A ADP d   1     -28.035  65.710  -3.925  0.00  0.00    -0.624 OA
ATOM     32  O2A ADP d   1     -26.686  64.271  -2.252  0.00  0.00    -0.624 OA
BRANCH  30  33
ATOM     33  O3A ADP d   1     -28.784  65.609  -1.541  0.00  0.00    -0.173 OA
BRANCH  33  34
ATOM     34  PB  ADP d   1     -29.196  64.498  -0.453  0.00  0.00     0.431 P 
ATOM     35  O1B ADP d   1     -30.382  65.105   0.252  0.00  0.00    -0.616 OA
ATOM     36  O2B ADP d   1     -27.954  64.382   0.399  0.00  0.00    -0.616 OA
ATOM     37  O3B ADP d   1     -29.527  63.288  -1.291  0.00  0.00    -0.616 OA
ENDBRANCH  33  34
ENDBRANCH  30  33
ENDBRANCH  29  30
ENDBRANCH  26  29
ENDBRANCH   1  26
BRANCH   3  38
ATOM     38  O3' ADP d   1     -26.670  70.396   0.571  0.00  0.00    -0.390 OA
ATOM     39  H   ADP d   1     -27.447  70.928   0.756  0.00  0.00     0.210 HD
ENDBRANCH   3  38
TORSDOF 8
