REMARK  18 active torsions:
REMARK  status: ('A' for Active; 'I' for Inactive)
REMARK    1  A    between atoms: N_1  and  CA_2 
REMARK    2  A    between atoms: CA_2  and  C_3 
REMARK    3  A    between atoms: CA_2  and  CB_5 
REMARK       I    between atoms: C_3  and  N_9 
REMARK    4  A    between atoms: CB_5  and  CG_6 
REMARK    5  A    between atoms: N_9  and  CA_10 
REMARK    6  A    between atoms: CA_10  and  C_11 
REMARK    7  A    between atoms: CA_10  and  CB_13 
REMARK       I    between atoms: C_11  and  N_23 
REMARK    8  A    between atoms: CB_13  and  CG_14 
REMARK    9  A    between atoms: N_23  and  CA_24 
REMARK   10  A    between atoms: CA_24  and  C_25 
REMARK   11  A    between atoms: CA_24  and  CB_27 
REMARK       I    between atoms: C_25  and  N_29 
REMARK   12  A    between atoms: CB_27  and  OG_28 
REMARK   13  A    between atoms: N_29  and  CA_30 
REMARK   14  A    between atoms: CA_30  and  C_31 
REMARK   15  A    between atoms: CA_30  and  CB_33 
REMARK   16  A    between atoms: CB_33  and  CG1_34 
REMARK   17  A    between atoms: CB_33  and  CG2_35 
REMARK   18  A    between atoms: CG1_34  and  CD1_36 
ROOT
ATOM      1  CA  TRP d   1     -19.718   1.840   8.619  0.00  0.00     0.093 C 
ATOM      2  H   TRP d   1     -19.314   0.838   8.473  0.00  0.00     0.088 H 
ENDROOT
BRANCH   1   3
ATOM      3  N   TRP d   1     -20.268   1.782   9.971  0.00  0.00    -0.346 N 
ATOM      4  C   ASP d   1     -19.689   0.903  10.808  0.00  0.00     0.249 C 
ATOM      5  O   ASP d   1     -18.436   0.827  10.961  0.00  0.00    -0.271 OA
ATOM      6  H   TRP d   1     -21.046   2.374  10.263  0.00  0.00     0.163 HD
BRANCH   4   7
ATOM      7  CA  ASP d   1     -20.669  -0.031  11.595  0.00  0.00     0.185 C 
ATOM      8  H   ASP d   1     -20.680  -1.013  11.122  0.00  0.00     0.100 H 
BRANCH   7   9
ATOM      9  N   ASP d   1     -20.206  -0.204  13.013  0.00  0.00    -0.066 N 
ATOM     10  H   ASP d   1     -19.263  -0.593  13.017  0.00  0.00     0.275 HD
ATOM     11  H   ASP d   1     -20.203   0.702  13.482  0.00  0.00     0.275 HD
ATOM     12  H   ASP d   1     -20.838  -0.839  13.501  0.00  0.00     0.275 HD
ENDBRANCH   7   9
BRANCH   7  13
ATOM     13  CB  ASP d   1     -22.119   0.566  11.553  0.00  0.00     0.050 C 
ATOM     14  H   ASP d   1     -22.029   1.652  11.552  0.00  0.00     0.052 H 
ATOM     15  H   ASP d   1     -22.660   0.180  12.417  0.00  0.00     0.052 H 
BRANCH  13  16
ATOM     16  CG  ASP d   1     -22.912   0.159  10.283  0.00  0.00     0.175 C 
ATOM     17  OD1 ASP d   1     -22.378   0.171   9.150  0.00  0.00    -0.648 OA
ATOM     18  OD2 ASP d   1     -24.092  -0.197  10.415  0.00  0.00    -0.648 OA
ENDBRANCH  13  16
ENDBRANCH   7  13
ENDBRANCH   4   7
ENDBRANCH   1   3
BRANCH   1  19
ATOM     19  C   TRP d   1     -18.553   2.749   8.469  0.00  0.00     0.241 C 
ATOM     20  O   TRP d   1     -18.373   3.729   9.236  0.00  0.00    -0.271 OA
ATOM     21  N   SER d   1     -17.702   2.324   7.544  0.00  0.00    -0.344 N 
ATOM     22  H   SER d   1     -17.953   1.539   6.943  0.00  0.00     0.163 HD
BRANCH  21  23
ATOM     23  CA  SER d   1     -16.454   2.956   7.391  0.00  0.00     0.109 C 
ATOM     24  H   SER d   1     -16.419   3.941   7.856  0.00  0.00     0.090 H 
BRANCH  23  25
ATOM     25  C   SER d   1     -16.244   3.021   5.882  0.00  0.00     0.243 C 
ATOM     26  O   SER d   1     -15.912   1.995   5.258  0.00  0.00    -0.271 OA
ATOM     27  N   ILE d   1     -16.513   4.192   5.314  0.00  0.00    -0.344 N 
ATOM     28  H   ILE d   1     -16.686   5.015   5.891  0.00  0.00     0.163 HD
BRANCH  27  29
ATOM     29  CA  ILE d   1     -16.560   4.295   3.802  0.00  0.00     0.099 C 
ATOM     30  H   ILE d   1     -16.040   3.452   3.348  0.00  0.00     0.090 H 
BRANCH  29  31
ATOM     31  C   ILE d   1     -15.856   5.643   3.397  0.00  0.00     0.197 C 
ATOM     32  O   ILE d   1     -16.346   6.748   3.818  0.00  0.00    -0.646 OA
ATOM     33  OXT ILE d   1     -14.844   5.573   2.616  0.00  0.00    -0.646 OA
ENDBRANCH  29  31
BRANCH  29  34
ATOM     34  CB  ILE d   1     -18.057   4.233   3.267  0.00  0.00    -0.029 C 
ATOM     35  H   ILE d   1     -18.651   4.976   3.800  0.00  0.00     0.043 H 
BRANCH  34  36
ATOM     36  CG1 ILE d   1     -18.685   2.840   3.540  0.00  0.00    -0.063 C 
ATOM     37  H   ILE d   1     -18.605   2.661   4.612  0.00  0.00     0.033 H 
ATOM     38  H   ILE d   1     -18.150   2.123   2.917  0.00  0.00     0.033 H 
BRANCH  36  39
ATOM     39  CD1 ILE d   1     -20.249   2.718   3.159  0.00  0.00    -0.076 C 
ATOM     40  H   ILE d   1     -20.821   3.441   3.740  0.00  0.00     0.027 H 
ATOM     41  H   ILE d   1     -20.380   2.920   2.096  0.00  0.00     0.027 H 
ATOM     42  H   ILE d   1     -20.599   1.711   3.384  0.00  0.00     0.027 H 
ENDBRANCH  36  39
ENDBRANCH  34  36
BRANCH  34  43
ATOM     43  CG2 ILE d   1     -18.084   4.569   1.698  0.00  0.00    -0.070 C 
ATOM     44  H   ILE d   1     -17.682   5.569   1.535  0.00  0.00     0.028 H 
ATOM     45  H   ILE d   1     -17.477   3.840   1.161  0.00  0.00     0.028 H 
ATOM     46  H   ILE d   1     -19.111   4.525   1.336  0.00  0.00     0.028 H 
ENDBRANCH  34  43
ENDBRANCH  29  34
ENDBRANCH  27  29
ENDBRANCH  23  25
BRANCH  23  47
ATOM     47  CB  SER d   1     -15.366   2.113   8.041  0.00  0.00     0.044 C 
ATOM     48  H   SER d   1     -15.298   1.138   7.558  0.00  0.00     0.077 H 
ATOM     49  H   SER d   1     -15.594   1.941   9.093  0.00  0.00     0.077 H 
BRANCH  47  50
ATOM     50  OG  SER d   1     -14.156   2.813   7.908  0.00  0.00    -0.398 OA
ATOM     51  H   SER d   1     -14.230   3.664   8.347  0.00  0.00     0.209 HD
ENDBRANCH  47  50
ENDBRANCH  23  47
ENDBRANCH  21  23
ENDBRANCH   1  19
BRANCH   1  52
ATOM     52  CB  TRP d   1     -20.752   1.994   7.513  0.00  0.00    -0.012 C 
ATOM     53  H   TRP d   1     -21.374   1.100   7.476  0.00  0.00     0.044 H 
ATOM     54  H   TRP d   1     -20.241   2.131   6.560  0.00  0.00     0.044 H 
BRANCH  52  55
ATOM     55  CG  TRP d   1     -21.563   3.113   7.769  0.00  0.00    -0.028 A 
ATOM     56  CD1 TRP d   1     -22.679   3.180   8.621  0.00  0.00    -0.015 A 
ATOM     57  NE1 TRP d   1     -23.157   4.461   8.636  0.00  0.00    -0.365 N 
ATOM     58  H   TRP d   1     -23.097   2.344   9.181  0.00  0.00     0.112 H 
ATOM     59  CE2 TRP d   1     -22.354   5.244   7.833  0.00  0.00     0.042 A 
ATOM     60  H   TRP d   1     -23.973   4.784   9.155  0.00  0.00     0.165 HD
ATOM     61  CD2 TRP d   1     -21.333   4.418   7.291  0.00  0.00    -0.002 A 
ATOM     62  CZ2 TRP d   1     -22.435   6.598   7.551  0.00  0.00    -0.056 A 
ATOM     63  CE3 TRP d   1     -20.387   4.977   6.419  0.00  0.00    -0.070 A 
ATOM     64  CZ3 TRP d   1     -20.470   6.309   6.144  0.00  0.00    -0.082 A 
ATOM     65  H   TRP d   1     -19.606   4.362   5.973  0.00  0.00     0.084 H 
ATOM     66  CH2 TRP d   1     -21.495   7.112   6.690  0.00  0.00    -0.081 A 
ATOM     67  H   TRP d   1     -19.729   6.765   5.488  0.00  0.00     0.083 H 
ATOM     68  H   TRP d   1     -21.542   8.167   6.422  0.00  0.00     0.083 H 
ATOM     69  H   TRP d   1     -23.209   7.227   7.992  0.00  0.00     0.086 H 
ENDBRANCH  52  55
ENDBRANCH   1  52
TORSDOF 18
