REMARK  7 active torsions:
REMARK  status: ('A' for Active; 'I' for Inactive)
REMARK       I    between atoms: N_2  and  C02_7 
REMARK    1  A    between atoms: CA_9  and  N_2 
REMARK    2  A    between atoms: SG_4  and  CB_13 
REMARK    3  A    between atoms: C06_14  and  SG_4 
REMARK    4  A    between atoms: C02_7  and  C01_5 
REMARK    5  A    between atoms: CA_9  and  C_11 
REMARK    6  A    between atoms: CB_13  and  CA_9 
REMARK    7  A    between atoms: C07_15  and  C06_14 
ROOT
ATOM      1  C06 MD3 d   1      -2.668   4.944   1.522  0.00  0.00     0.001 C 
ATOM      2  H6  MD3 d   1      -3.598   5.444   1.831  0.00  0.00     0.056 H 
ATOM      3  H7  MD3 d   1      -1.956   5.694   1.147  0.00  0.00     0.056 H 
ENDROOT
BRANCH   1   4
ATOM      4  SG  MD3 d   1      -3.086   3.908   0.140  0.00  0.00    -0.162 SA
BRANCH   4   5
ATOM      5  CB  MD3 d   1      -4.341   2.865   0.849  0.00  0.00     0.005 C 
ATOM      6  H4  MD3 d   1      -5.311   3.297   0.562  0.00  0.00     0.052 H 
ATOM      7  H5  MD3 d   1      -4.222   2.923   1.941  0.00  0.00     0.052 H 
BRANCH   5   8
ATOM      8  CA  MD3 d   1      -4.395   1.406   0.496  0.00  0.00     0.104 C 
ATOM      9  H3  MD3 d   1      -5.347   1.030   0.899  0.00  0.00     0.090 H 
BRANCH   8  10
ATOM     10  N   MD3 d   1      -3.365   0.585   1.033  0.00  0.00    -0.337 N 
ATOM     11  C02 MD3 d   1      -3.246   0.230   2.401  0.00  0.00     0.319 C 
ATOM     12  O03 MD3 d   1      -4.012   0.634   3.228  0.00  0.00    -0.261 OA
ATOM     13  H2  MD3 d   1      -2.675   0.233   0.401  0.00  0.00     0.164 HD
BRANCH  11  14
ATOM     14  C01 MD3 d   1      -2.151  -0.686   2.779  0.00  0.00     0.270 C 
ATOM     15  O05 MD3 d   1      -1.500  -1.209   1.832  0.00  0.00    -0.640 OA
ATOM     16  O04 MD3 d   1      -1.918  -0.955   3.997  0.00  0.00    -0.640 OA
ENDBRANCH  11  14
ENDBRANCH   8  10
BRANCH   8  17
ATOM     17  C   MD3 d   1      -4.407   1.196  -0.984  0.00  0.00     0.197 C 
ATOM     18  OXT MD3 d   1      -4.127   0.062  -1.430  0.00  0.00    -0.646 OA
ATOM     19  O   MD3 d   1      -4.706   2.122  -1.770  0.00  0.00    -0.646 OA
ENDBRANCH   8  17
ENDBRANCH   5   8
ENDBRANCH   4   5
ENDBRANCH   1   4
BRANCH   1  20
ATOM     20  C07 MD3 d   1      -2.063   4.364   2.762  0.00  0.00    -0.048 A 
ATOM     21  C08 MD3 d   1      -1.328   3.183   2.708  0.00  0.00    -0.075 A 
ATOM     22  C09 MD3 d   1      -0.740   2.694   3.868  0.00  0.00    -0.072 A 
ATOM     23  H8  MD3 d   1      -1.216   2.650   1.771  0.00  0.00     0.084 H 
ATOM     24  C10 MD3 d   1      -0.874   3.353   5.091  0.00  0.00    -0.026 A 
ATOM     25  H9  MD3 d   1      -0.163   1.778   3.822  0.00  0.00     0.084 H 
ATOM     26  C12 MD3 d   1      -1.594   4.539   5.139  0.00  0.00    -0.025 A 
ATOM     27  C13 MD3 d   1      -0.289   2.832   6.263  0.00  0.00    -0.072 A 
ATOM     28  C16 MD3 d   1      -1.734   5.205   6.360  0.00  0.00    -0.072 A 
ATOM     29  C11 MD3 d   1      -2.191   5.038   3.970  0.00  0.00    -0.065 A 
ATOM     30  C15 MD3 d   1      -1.155   4.701   7.518  0.00  0.00    -0.082 A 
ATOM     31  H1  MD3 d   1      -2.302   6.127   6.404  0.00  0.00     0.084 H 
ATOM     32  C14 MD3 d   1      -0.414   3.512   7.473  0.00  0.00    -0.082 A 
ATOM     33  H13 MD3 d   1      -1.276   5.228   8.457  0.00  0.00     0.083 H 
ATOM     34  H12 MD3 d   1       0.057   3.126   8.370  0.00  0.00     0.083 H 
ATOM     35  H10 MD3 d   1      -2.759   5.960   4.011  0.00  0.00     0.085 H 
ATOM     36  H11 MD3 d   1       0.260   1.898   6.223  0.00  0.00     0.084 H 
ENDBRANCH   1  20
TORSDOF 7
