REMARK  14 active torsions:
REMARK  status: ('A' for Active; 'I' for Inactive)
REMARK    1  A    between atoms: N_1  and  CA_2 
REMARK    2  A    between atoms: CA_2  and  C_3 
REMARK    3  A    between atoms: CA_2  and  CB_5 
REMARK       I    between atoms: C_3  and  N_7 
REMARK    4  A    between atoms: CB_5  and  OG_6 
REMARK    5  A    between atoms: N_7  and  CA_8 
REMARK    6  A    between atoms: CA_8  and  C_9 
REMARK    7  A    between atoms: CA_8  and  CB_11 
REMARK       I    between atoms: C_9  and  N_13 
REMARK    8  A    between atoms: CB_11  and  OG_12 
REMARK    9  A    between atoms: N_13  and  CA_14 
REMARK   10  A    between atoms: CA_14  and  C_15 
REMARK   11  A    between atoms: CA_14  and  CB_17 
REMARK   12  A    between atoms: C_15  and  OXT_19 
REMARK   13  A    between atoms: CB_17  and  SG_18 
REMARK   14  A    between atoms: OXT_19  and  C1_20 
ROOT
ATOM      1  CA  SER d   1      33.833 -13.010  15.669  0.00  0.00     0.109 C 
ATOM      2  H   SER d   1      32.813 -13.347  15.851  0.00  0.00     0.090 H 
ENDROOT
BRANCH   1   3
ATOM      3  N   SER d   1      33.771 -11.865  14.769  0.00  0.00    -0.344 N 
ATOM      4  C   SER d   1      32.748 -11.016  14.788  0.00  0.00     0.251 C 
ATOM      5  O   SER d   1      31.793 -11.134  15.556  0.00  0.00    -0.271 OA
ATOM      6  H   SER d   1      34.532 -11.711  14.108  0.00  0.00     0.163 HD
BRANCH   4   7
ATOM      7  CA  SER d   1      32.812  -9.862  13.793  0.00  0.00     0.195 C 
ATOM      8  H   SER d   1      32.425  -8.968  14.282  0.00  0.00     0.102 H 
BRANCH   7   9
ATOM      9  N   SER d   1      34.186  -9.589  13.390  0.00  0.00    -0.064 N 
ATOM     10  H   SER d   1      34.747  -9.384  14.217  0.00  0.00     0.275 HD
ATOM     11  H   SER d   1      34.568 -10.405  12.912  0.00  0.00     0.275 HD
ATOM     12  H   SER d   1      34.201  -8.787  12.760  0.00  0.00     0.275 HD
ENDBRANCH   7   9
BRANCH   7  13
ATOM     13  CB  SER d   1      31.946 -10.173  12.571  0.00  0.00     0.051 C 
ATOM     14  H   SER d   1      31.431  -9.262  12.267  0.00  0.00     0.077 H 
ATOM     15  H   SER d   1      31.235 -10.955  12.837  0.00  0.00     0.077 H 
BRANCH  13  16
ATOM     16  OG  SER d   1      32.738 -10.629  11.488  0.00  0.00    -0.398 OA
ATOM     17  H   SER d   1      32.172 -10.817  10.736  0.00  0.00     0.209 HD
ENDBRANCH  13  16
ENDBRANCH   7  13
ENDBRANCH   4   7
ENDBRANCH   1   3
BRANCH   1  18
ATOM     18  C   SER d   1      34.454 -12.626  17.007  0.00  0.00     0.243 C 
ATOM     19  O   SER d   1      34.381 -13.382  17.976  0.00  0.00    -0.271 OA
ATOM     20  N   CMT d   1      35.019 -11.465  17.066  0.00  0.00    -0.345 N 
ATOM     21  H   CMT d   1      35.005 -10.875  16.234  0.00  0.00     0.163 HD
BRANCH  20  22
ATOM     22  CA  CMT d   1      35.681 -10.955  18.276  0.00  0.00     0.104 C 
ATOM     23  H   CMT d   1      35.429 -11.611  19.109  0.00  0.00     0.089 H 
BRANCH  22  24
ATOM     24  C   CMT d   1      35.193  -9.533  18.564  0.00  0.00     0.282 C 
ATOM     25  O   CMT d   1      35.117  -8.696  17.666  0.00  0.00    -0.263 OA
BRANCH  24  26
ATOM     26  OXT CMT d   1      34.861  -9.291  19.860  0.00  0.00    -0.325 OA
BRANCH  26  27
ATOM     27  C1  CMT d   1      34.066  -8.104  19.935  0.00  0.00     0.013 C 
ATOM     28  H   CMT d   1      34.635  -7.262  19.542  0.00  0.00     0.067 H 
ATOM     29  H   CMT d   1      33.159  -8.238  19.346  0.00  0.00     0.067 H 
ATOM     30  H   CMT d   1      33.800  -7.911  20.974  0.00  0.00     0.067 H 
ENDBRANCH  26  27
ENDBRANCH  24  26
ENDBRANCH  22  24
BRANCH  22  31
ATOM     31  CB  CMT d   1      37.201 -10.948  18.108  0.00  0.00     0.002 C 
ATOM     32  H   CMT d   1      37.429 -10.434  17.174  0.00  0.00     0.052 H 
ATOM     33  H   CMT d   1      37.541 -11.984  18.119  0.00  0.00     0.052 H 
BRANCH  31  34
ATOM     34  SG  CMT d   1      38.066 -10.063  19.457  0.00  0.00    -0.180 SA
ATOM     35  H   CMT d   1      39.378 -10.101  19.240  0.00  0.00     0.101 HD
ENDBRANCH  31  34
ENDBRANCH  22  31
ENDBRANCH  20  22
ENDBRANCH   1  18
BRANCH   1  36
ATOM     36  CB  SER d   1      34.626 -14.151  15.029  0.00  0.00     0.044 C 
ATOM     37  H   SER d   1      34.617 -14.018  13.947  0.00  0.00     0.077 H 
ATOM     38  H   SER d   1      34.165 -15.097  15.312  0.00  0.00     0.077 H 
BRANCH  36  39
ATOM     39  OG  SER d   1      35.971 -14.151  15.475  0.00  0.00    -0.398 OA
ATOM     40  H   SER d   1      36.385 -13.318  15.238  0.00  0.00     0.209 HD
ENDBRANCH  36  39
ENDBRANCH   1  36
TORSDOF 14
