REMARK  20 active torsions:
REMARK  status: ('A' for Active; 'I' for Inactive)
REMARK    1  A    between atoms: N_1  and  CA_2 
REMARK    2  A    between atoms: CA_2  and  C_3 
REMARK    3  A    between atoms: CA_2  and  CB_5 
REMARK       I    between atoms: C_3  and  N_8 
REMARK    4  A    between atoms: CB_5  and  CG1_6 
REMARK    5  A    between atoms: CB_5  and  CG2_7 
REMARK    6  A    between atoms: N_8  and  CA_9 
REMARK    7  A    between atoms: CA_9  and  C_10 
REMARK    8  A    between atoms: CA_9  and  CB_12 
REMARK       I    between atoms: C_10  and  N_15 
REMARK    9  A    between atoms: CB_12  and  CG1_13 
REMARK   10  A    between atoms: CB_12  and  CG2_14 
REMARK   11  A    between atoms: N_15  and  CA_16 
REMARK   12  A    between atoms: CA_16  and  C_17 
REMARK   13  A    between atoms: CA_16  and  CB_19 
REMARK       I    between atoms: C_17  and  N_27 
REMARK   14  A    between atoms: CB_19  and  CG_20 
REMARK   15  A    between atoms: CZ_25  and  OH_26 
REMARK   16  A    between atoms: CA_28  and  C_29 
REMARK       I    between atoms: C_29  and  N_34 
REMARK   17  A    between atoms: N_34  and  CA_35 
REMARK   18  A    between atoms: CA_35  and  C_36 
REMARK   19  A    between atoms: CA_35  and  CB_38 
REMARK   20  A    between atoms: CB_38  and  CG_39 
ROOT
ATOM      1  CA  TYR d   1     -40.336 -20.785  20.761  0.00  0.00     0.093 C 
ATOM      2  H   TYR d   1     -39.556 -21.391  20.300  0.00  0.00     0.088 H 
ENDROOT
BRANCH   1   3
ATOM      3  N   TYR d   1     -39.772 -19.531  21.244  0.00  0.00    -0.346 N 
ATOM      4  C   VAL d   1     -38.504 -19.184  21.046  0.00  0.00     0.241 C 
ATOM      5  O   VAL d   1     -37.615 -19.988  20.779  0.00  0.00    -0.271 OA
ATOM      6  H   TYR d   1     -40.378 -18.890  21.757  0.00  0.00     0.163 HD
BRANCH   4   7
ATOM      7  CA  VAL d   1     -38.202 -17.694  21.203  0.00  0.00     0.092 C 
ATOM      8  H   VAL d   1     -39.012 -17.290  21.810  0.00  0.00     0.088 H 
BRANCH   7   9
ATOM      9  N   VAL d   1     -37.003 -17.351  21.961  0.00  0.00    -0.346 N 
ATOM     10  C   VAL d   1     -37.002 -17.264  23.285  0.00  0.00     0.249 C 
ATOM     11  O   VAL d   1     -37.884 -17.751  23.993  0.00  0.00    -0.271 OA
ATOM     12  H   VAL d   1     -36.136 -17.172  21.455  0.00  0.00     0.163 HD
BRANCH  10  13
ATOM     13  CA  VAL d   1     -35.815 -16.527  23.900  0.00  0.00     0.178 C 
ATOM     14  H   VAL d   1     -35.400 -15.844  23.159  0.00  0.00     0.099 H 
BRANCH  13  15
ATOM     15  N   VAL d   1     -36.257 -15.739  25.041  0.00  0.00    -0.066 N 
ATOM     16  H   VAL d   1     -36.999 -15.104  24.747  0.00  0.00     0.275 HD
ATOM     17  H   VAL d   1     -36.609 -16.363  25.767  0.00  0.00     0.275 HD
ATOM     18  H   VAL d   1     -35.471 -15.200  25.405  0.00  0.00     0.275 HD
ENDBRANCH  13  15
BRANCH  13  19
ATOM     19  CB  VAL d   1     -34.689 -17.511  24.281  0.00  0.00    -0.025 C 
ATOM     20  H   VAL d   1     -33.941 -16.973  24.864  0.00  0.00     0.042 H 
BRANCH  19  21
ATOM     21  CG1 VAL d   1     -35.234 -18.639  25.140  0.00  0.00    -0.071 C 
ATOM     22  H   VAL d   1     -35.965 -19.209  24.567  0.00  0.00     0.028 H 
ATOM     23  H   VAL d   1     -34.416 -19.293  25.440  0.00  0.00     0.028 H 
ATOM     24  H   VAL d   1     -35.711 -18.221  26.027  0.00  0.00     0.028 H 
ENDBRANCH  19  21
BRANCH  19  25
ATOM     25  CG2 VAL d   1     -34.015 -18.057  23.032  0.00  0.00    -0.071 C 
ATOM     26  H   VAL d   1     -33.190 -18.708  23.321  0.00  0.00     0.028 H 
ATOM     27  H   VAL d   1     -34.740 -18.624  22.448  0.00  0.00     0.028 H 
ATOM     28  H   VAL d   1     -33.634 -17.229  22.435  0.00  0.00     0.028 H 
ENDBRANCH  19  25
ENDBRANCH  13  19
ENDBRANCH  10  13
ENDBRANCH   7   9
BRANCH   7  29
ATOM     29  CB  VAL d   1     -38.147 -17.060  19.797  0.00  0.00    -0.033 C 
ATOM     30  H   VAL d   1     -37.157 -17.232  19.375  0.00  0.00     0.042 H 
BRANCH  29  31
ATOM     31  CG1 VAL d   1     -39.160 -17.714  18.869  0.00  0.00    -0.071 C 
ATOM     32  H   VAL d   1     -38.939 -18.778  18.784  0.00  0.00     0.028 H 
ATOM     33  H   VAL d   1     -40.162 -17.581  19.276  0.00  0.00     0.028 H 
ATOM     34  H   VAL d   1     -39.102 -17.250  17.884  0.00  0.00     0.028 H 
ENDBRANCH  29  31
BRANCH  29  35
ATOM     35  CG2 VAL d   1     -38.367 -15.557  19.887  0.00  0.00    -0.071 C 
ATOM     36  H   VAL d   1     -39.344 -15.360  20.329  0.00  0.00     0.028 H 
ATOM     37  H   VAL d   1     -37.589 -15.114  20.509  0.00  0.00     0.028 H 
ATOM     38  H   VAL d   1     -38.325 -15.124  18.887  0.00  0.00     0.028 H 
ENDBRANCH  29  35
ENDBRANCH   7  29
ENDBRANCH   4   7
ENDBRANCH   1   3
BRANCH   1  39
ATOM     39  C   TYR d   1     -41.425 -20.432  19.758  0.00  0.00     0.243 C 
ATOM     40  O   TYR d   1     -42.427 -19.819  20.126  0.00  0.00    -0.271 OA
ATOM     41  N   PRO d   1     -41.241 -20.819  18.486  0.00  0.00    -0.337 N 
ATOM     42  CA  PRO d   1     -42.129 -20.353  17.417  0.00  0.00     0.091 C 
ATOM     43  CD  PRO d   1     -40.298 -21.836  17.999  0.00  0.00    -0.001 C 
ATOM     44  CB  PRO d   1     -41.260 -20.495  16.166  0.00  0.00    -0.036 C 
ATOM     45  H   PRO d   1     -42.491 -19.343  17.609  0.00  0.00     0.087 H 
ATOM     46  CG  PRO d   1     -40.224 -21.553  16.517  0.00  0.00    -0.048 C 
ATOM     47  H   PRO d   1     -40.792 -19.549  15.892  0.00  0.00     0.036 H 
ATOM     48  H   PRO d   1     -41.851 -20.784  15.297  0.00  0.00     0.036 H 
ATOM     49  H   PRO d   1     -39.228 -21.194  16.259  0.00  0.00     0.035 H 
ATOM     50  H   PRO d   1     -40.425 -22.466  15.957  0.00  0.00     0.035 H 
ATOM     51  H   PRO d   1     -40.624 -22.853  18.218  0.00  0.00     0.064 H 
ATOM     52  H   PRO d   1     -39.326 -21.778  18.488  0.00  0.00     0.064 H 
BRANCH  42  53
ATOM     53  C   PRO d   1     -43.396 -21.192  17.273  0.00  0.00     0.241 C 
ATOM     54  O   PRO d   1     -43.565 -22.193  17.970  0.00  0.00    -0.271 OA
ATOM     55  N   TRP d   1     -44.269 -20.782  16.358  0.00  0.00    -0.344 N 
ATOM     56  H   TRP d   1     -44.052 -19.956  15.800  0.00  0.00     0.163 HD
BRANCH  55  57
ATOM     57  CA  TRP d   1     -45.528 -21.480  16.130  0.00  0.00     0.100 C 
ATOM     58  H   TRP d   1     -45.744 -22.061  17.026  0.00  0.00     0.090 H 
BRANCH  57  59
ATOM     59  C   TRP d   1     -45.430 -22.453  14.960  0.00  0.00     0.197 C 
ATOM     60  O   TRP d   1     -44.342 -22.735  14.457  0.00  0.00    -0.646 OA
ATOM     61  OXT TRP d   1     -46.441 -22.988  14.502  0.00  0.00    -0.646 OA
ENDBRANCH  57  59
BRANCH  57  62
ATOM     62  CB  TRP d   1     -46.671 -20.485  15.907  0.00  0.00    -0.011 C 
ATOM     63  H   TRP d   1     -46.917 -20.056  16.879  0.00  0.00     0.044 H 
ATOM     64  H   TRP d   1     -47.488 -21.035  15.439  0.00  0.00     0.044 H 
BRANCH  62  65
ATOM     65  CG  TRP d   1     -46.328 -19.342  14.994  0.00  0.00    -0.028 A 
ATOM     66  CD1 TRP d   1     -45.760 -18.155  15.351  0.00  0.00    -0.015 A 
ATOM     67  NE1 TRP d   1     -45.602 -17.354  14.246  0.00  0.00    -0.365 N 
ATOM     68  H   TRP d   1     -45.473 -17.881  16.366  0.00  0.00     0.112 H 
ATOM     69  CE2 TRP d   1     -46.075 -18.017  13.145  0.00  0.00     0.042 A 
ATOM     70  H   TRP d   1     -45.198 -16.417  14.246  0.00  0.00     0.165 HD
ATOM     71  CD2 TRP d   1     -46.544 -19.274  13.578  0.00  0.00    -0.002 A 
ATOM     72  CZ2 TRP d   1     -46.130 -17.619  11.809  0.00  0.00    -0.056 A 
ATOM     73  CE3 TRP d   1     -47.085 -20.153  12.634  0.00  0.00    -0.070 A 
ATOM     74  CZ3 TRP d   1     -47.138 -19.755  11.308  0.00  0.00    -0.082 A 
ATOM     75  H   TRP d   1     -47.458 -21.132  12.936  0.00  0.00     0.084 H 
ATOM     76  CH2 TRP d   1     -46.663 -18.499  10.909  0.00  0.00    -0.081 A 
ATOM     77  H   TRP d   1     -47.557 -20.431  10.562  0.00  0.00     0.083 H 
ATOM     78  H   TRP d   1     -46.720 -18.217   9.858  0.00  0.00     0.083 H 
ATOM     79  H   TRP d   1     -45.762 -16.642  11.495  0.00  0.00     0.086 H 
ENDBRANCH  62  65
ENDBRANCH  57  62
ENDBRANCH  55  57
ENDBRANCH  42  53
ENDBRANCH   1  39
BRANCH   1  80
ATOM     80  CB  TYR d   1     -40.926 -21.607  21.907  0.00  0.00    -0.014 C 
ATOM     81  H   TYR d   1     -41.734 -21.022  22.346  0.00  0.00     0.043 H 
ATOM     82  H   TYR d   1     -40.117 -21.825  22.604  0.00  0.00     0.043 H 
BRANCH  80  83
ATOM     83  CG  TYR d   1     -41.513 -22.933  21.463  0.00  0.00    -0.056 A 
ATOM     84  CD1 TYR d   1     -40.699 -24.041  21.255  0.00  0.00    -0.074 A 
ATOM     85  CE1 TYR d   1     -41.228 -25.254  20.849  0.00  0.00    -0.051 A 
ATOM     86  H   TYR d   1     -39.624 -23.953  21.415  0.00  0.00     0.084 H 
ATOM     87  CZ  TYR d   1     -42.587 -25.371  20.645  0.00  0.00     0.065 A 
ATOM     88  H   TYR d   1     -40.574 -26.112  20.691  0.00  0.00     0.087 H 
ATOM     89  CE2 TYR d   1     -43.418 -24.287  20.843  0.00  0.00    -0.051 A 
ATOM     90  CD2 TYR d   1     -42.878 -23.076  21.251  0.00  0.00    -0.074 A 
ATOM     91  H   TYR d   1     -44.492 -24.382  20.680  0.00  0.00     0.087 H 
ATOM     92  H   TYR d   1     -43.537 -22.222  21.408  0.00  0.00     0.084 H 
BRANCH  87  93
ATOM     93  OH  TYR d   1     -43.114 -26.576  20.239  0.00  0.00    -0.361 OA
ATOM     94  H   TYR d   1     -42.407 -27.219  20.149  0.00  0.00     0.217 HD
ENDBRANCH  87  93
ENDBRANCH  80  83
ENDBRANCH   1  80
TORSDOF 20
