REMARK  26 active torsions:
REMARK  status: ('A' for Active; 'I' for Inactive)
REMARK    1  A    between atoms: N_1  and  CA_2 
REMARK    2  A    between atoms: CA_2  and  C_3 
REMARK    3  A    between atoms: CA_2  and  CB_5 
REMARK       I    between atoms: C_3  and  N_6 
REMARK    4  A    between atoms: N_6  and  CA_7 
REMARK    5  A    between atoms: CA_7  and  C_8 
REMARK    6  A    between atoms: CA_7  and  CB_10 
REMARK       I    between atoms: C_8  and  N_17 
REMARK    7  A    between atoms: CB_10  and  CG_11 
REMARK    8  A    between atoms: CG_11  and  CD_12 
REMARK    9  A    between atoms: CD_12  and  NE_13 
REMARK       I    between atoms: NE_13  and  CZ_14 
REMARK       I    between atoms: CZ_14  and  NH1_15 
REMARK   10  A    between atoms: N_17  and  CA_18 
REMARK   11  A    between atoms: CA_18  and  C_19 
REMARK   12  A    between atoms: CA_18  and  CB_21 
REMARK       I    between atoms: C_19  and  N_24 
REMARK   13  A    between atoms: CB_21  and  OG1_22 
REMARK   14  A    between atoms: CB_21  and  CG2_23 
REMARK   15  A    between atoms: N_24  and  CA_25 
REMARK   16  A    between atoms: CA_25  and  C_26 
REMARK   17  A    between atoms: CA_25  and  CB_28 
REMARK       I    between atoms: C_26  and  N_33 
REMARK   18  A    between atoms: CB_28  and  CG_29 
REMARK   19  A    between atoms: CG_29  and  CD_30 
REMARK   20  A    between atoms: CD_30  and  CE_31 
REMARK   21  A    between atoms: CE_31  and  NZ_32 
REMARK   22  A    between atoms: N_33  and  CA_34 
REMARK   23  A    between atoms: CA_34  and  C_35 
REMARK   24  A    between atoms: CA_34  and  CB_37 
REMARK   25  A    between atoms: CB_37  and  CG_38 
REMARK   26  A    between atoms: CG_38  and  CD_39 
REMARK       I    between atoms: CD_39  and  NE2_41 
ROOT
ATOM      1  CA  THR d   1     -13.953  18.309  79.628  0.00  0.00     0.113 C 
ATOM      2  H   THR d   1     -14.390  17.311  79.590  0.00  0.00     0.091 H 
ENDROOT
BRANCH   1   3
ATOM      3  N   THR d   1     -12.638  18.132  80.238  0.00  0.00    -0.344 N 
ATOM      4  C   ARG d   1     -12.121  16.926  80.483  0.00  0.00     0.241 C 
ATOM      5  O   ARG d   1     -12.770  15.875  80.407  0.00  0.00    -0.271 OA
ATOM      6  H   THR d   1     -12.095  18.959  80.486  0.00  0.00     0.163 HD
BRANCH   4   7
ATOM      7  CA  ARG d   1     -10.640  16.887  80.880  0.00  0.00     0.089 C 
ATOM      8  H   ARG d   1     -10.347  17.860  81.275  0.00  0.00     0.087 H 
BRANCH   7   9
ATOM      9  N   ARG d   1     -10.402  15.891  81.933  0.00  0.00    -0.346 N 
ATOM     10  C   ALA d   1     -10.573  16.173  83.222  0.00  0.00     0.248 C 
ATOM     11  O   ALA d   1     -10.930  17.291  83.640  0.00  0.00    -0.271 OA
ATOM     12  H   ARG d   1     -10.096  14.955  81.668  0.00  0.00     0.163 HD
BRANCH  10  13
ATOM     13  CA  ALA d   1     -10.322  15.050  84.205  0.00  0.00     0.172 C 
ATOM     14  H   ALA d   1      -9.613  14.329  83.797  0.00  0.00     0.098 H 
BRANCH  13  15
ATOM     15  N   ALA d   1      -9.786  15.674  85.460  0.00  0.00    -0.067 N 
ATOM     16  H   ALA d   1      -8.917  16.165  85.250  0.00  0.00     0.275 HD
ATOM     17  H   ALA d   1     -10.470  16.334  85.829  0.00  0.00     0.275 HD
ATOM     18  H   ALA d   1      -9.608  14.945  86.151  0.00  0.00     0.275 HD
ENDBRANCH  13  15
BRANCH  13  19
ATOM     19  CB  ALA d   1     -11.621  14.312  84.500  0.00  0.00    -0.042 C 
ATOM     20  H   ALA d   1     -12.343  15.007  84.927  0.00  0.00     0.030 H 
ATOM     21  H   ALA d   1     -12.019  13.896  83.575  0.00  0.00     0.030 H 
ATOM     22  H   ALA d   1     -11.427  13.507  85.208  0.00  0.00     0.030 H 
ENDBRANCH  13  19
ENDBRANCH  10  13
ENDBRANCH   7   9
BRANCH   7  23
ATOM     23  CB  ARG d   1      -9.814  16.552  79.639  0.00  0.00    -0.036 C 
ATOM     24  H   ARG d   1     -10.043  17.318  78.898  0.00  0.00     0.036 H 
ATOM     25  H   ARG d   1     -10.077  15.532  79.358  0.00  0.00     0.036 H 
BRANCH  23  26
ATOM     26  CG  ARG d   1      -8.312  16.572  79.829  0.00  0.00    -0.048 C 
ATOM     27  H   ARG d   1      -8.062  15.921  80.666  0.00  0.00     0.035 H 
ATOM     28  H   ARG d   1      -8.002  17.600  80.015  0.00  0.00     0.035 H 
BRANCH  26  29
ATOM     29  CD  ARG d   1      -7.577  16.060  78.577  0.00  0.00     0.009 C 
ATOM     30  H   ARG d   1      -6.507  16.070  78.786  0.00  0.00     0.064 H 
ATOM     31  H   ARG d   1      -7.843  16.707  77.741  0.00  0.00     0.064 H 
BRANCH  29  32
ATOM     32  NE  ARG d   1      -7.957  14.691  78.228  0.00  0.00    -0.227 N 
ATOM     33  CZ  ARG d   1      -8.517  14.349  77.069  0.00  0.00     0.665 C 
ATOM     34  NH1 ARG d   1      -8.838  13.079  76.825  0.00  0.00    -0.235 N 
ATOM     35  NH2 ARG d   1      -8.762  15.286  76.147  0.00  0.00    -0.235 N 
ATOM     36  H   ARG d   1      -8.655  12.363  77.528  0.00  0.00     0.174 HD
ATOM     37  H   ARG d   1      -9.267  12.823  75.936  0.00  0.00     0.174 HD
ATOM     38  H   ARG d   1      -8.520  16.259  76.332  0.00  0.00     0.174 HD
ATOM     39  H   ARG d   1      -9.191  15.027  75.258  0.00  0.00     0.174 HD
ATOM     40  H   ARG d   1      -7.783  13.955  78.913  0.00  0.00     0.177 HD
ENDBRANCH  29  32
ENDBRANCH  26  29
ENDBRANCH  23  26
ENDBRANCH   7  23
ENDBRANCH   4   7
ENDBRANCH   1   3
BRANCH   1  41
ATOM     41  C   THR d   1     -13.830  18.882  78.215  0.00  0.00     0.243 C 
ATOM     42  O   THR d   1     -12.770  19.415  77.819  0.00  0.00    -0.271 OA
ATOM     43  N   LYS d   1     -14.910  18.771  77.448  0.00  0.00    -0.346 N 
ATOM     44  H   LYS d   1     -15.761  18.358  77.830  0.00  0.00     0.163 HD
BRANCH  43  45
ATOM     45  CA  LYS d   1     -14.889  19.232  76.071  0.00  0.00     0.089 C 
ATOM     46  H   LYS d   1     -14.038  18.769  75.571  0.00  0.00     0.087 H 
BRANCH  45  47
ATOM     47  C   LYS d   1     -14.683  20.754  76.002  0.00  0.00     0.241 C 
ATOM     48  O   LYS d   1     -14.001  21.221  75.108  0.00  0.00    -0.271 OA
ATOM     49  N   GLN d   1     -15.265  21.506  76.940  0.00  0.00    -0.345 N 
ATOM     50  H   GLN d   1     -15.951  21.076  77.560  0.00  0.00     0.163 HD
BRANCH  49  51
ATOM     51  CA  GLN d   1     -14.949  22.944  77.112  0.00  0.00     0.096 C 
ATOM     52  H   GLN d   1     -14.238  23.172  76.318  0.00  0.00     0.089 H 
BRANCH  51  53
ATOM     53  C   GLN d   1     -14.288  23.258  78.459  0.00  0.00     0.196 C 
ATOM     54  O   GLN d   1     -14.863  22.989  79.524  0.00  0.00    -0.646 OA
ATOM     55  O   GLN d   1     -13.149  23.795  78.484  0.00  0.00    -0.646 OA
ENDBRANCH  51  53
BRANCH  51  56
ATOM     56  CB  GLN d   1     -16.190  23.823  76.959  0.00  0.00    -0.029 C 
ATOM     57  H   GLN d   1     -16.122  24.595  77.726  0.00  0.00     0.037 H 
ATOM     58  H   GLN d   1     -17.053  23.161  77.038  0.00  0.00     0.037 H 
BRANCH  56  59
ATOM     59  CG  GLN d   1     -16.317  24.551  75.613  0.00  0.00     0.011 C 
ATOM     60  H   GLN d   1     -16.517  23.806  74.843  0.00  0.00     0.047 H 
ATOM     61  H   GLN d   1     -15.389  25.093  75.433  0.00  0.00     0.047 H 
BRANCH  59  62
ATOM     62  CD  GLN d   1     -17.469  25.564  75.606  0.00  0.00     0.215 C 
ATOM     63  OE1 GLN d   1     -17.969  25.975  76.669  0.00  0.00    -0.274 OA
ATOM     64  NE2 GLN d   1     -17.899  25.965  74.411  0.00  0.00    -0.370 N 
ATOM     65  H   GLN d   1     -18.666  26.634  74.343  0.00  0.00     0.159 HD
ATOM     66  H   GLN d   1     -17.461  25.603  73.564  0.00  0.00     0.159 HD
ENDBRANCH  59  62
ENDBRANCH  56  59
ENDBRANCH  51  56
ENDBRANCH  49  51
ENDBRANCH  45  47
BRANCH  45  67
ATOM     67  CB  LYS d   1     -16.152  18.785  75.317  0.00  0.00    -0.038 C 
ATOM     68  H   LYS d   1     -17.011  19.135  75.890  0.00  0.00     0.036 H 
ATOM     69  H   LYS d   1     -16.100  17.701  75.213  0.00  0.00     0.036 H 
BRANCH  67  70
ATOM     70  CG  LYS d   1     -16.276  19.367  73.917  0.00  0.00    -0.061 C 
ATOM     71  H   LYS d   1     -15.315  19.245  73.418  0.00  0.00     0.033 H 
ATOM     72  H   LYS d   1     -16.571  20.412  74.015  0.00  0.00     0.033 H 
BRANCH  70  73
ATOM     73  CD  LYS d   1     -17.332  18.660  73.075  0.00  0.00    -0.043 C 
ATOM     74  H   LYS d   1     -17.624  19.330  72.266  0.00  0.00     0.035 H 
ATOM     75  H   LYS d   1     -18.170  18.408  73.725  0.00  0.00     0.035 H 
BRANCH  73  76
ATOM     76  CE  LYS d   1     -16.809  17.372  72.457  0.00  0.00     0.080 C 
ATOM     77  H   LYS d   1     -16.366  16.742  73.228  0.00  0.00     0.075 H 
ATOM     78  H   LYS d   1     -16.043  17.599  71.715  0.00  0.00     0.075 H 
BRANCH  76  79
ATOM     79  NZ  LYS d   1     -17.937  16.669  71.818  0.00  0.00    -0.079 N 
ATOM     80  H   LYS d   1     -17.602  15.802  71.398  0.00  0.00     0.274 HD
ATOM     81  H   LYS d   1     -18.645  16.456  72.520  0.00  0.00     0.274 HD
ATOM     82  H   LYS d   1     -18.341  17.264  71.095  0.00  0.00     0.274 HD
ENDBRANCH  76  79
ENDBRANCH  73  76
ENDBRANCH  70  73
ENDBRANCH  67  70
ENDBRANCH  45  67
ENDBRANCH  43  45
ENDBRANCH   1  41
BRANCH   1  83
ATOM     83  CB  THR d   1     -14.925  19.210  80.472  0.00  0.00     0.060 C 
ATOM     84  H   THR d   1     -15.862  19.323  79.927  0.00  0.00     0.086 H 
BRANCH  83  85
ATOM     85  OG1 THR d   1     -14.345  20.514  80.672  0.00  0.00    -0.393 OA
ATOM     86  H   THR d   1     -14.191  20.929  79.820  0.00  0.00     0.210 HD
ENDBRANCH  83  85
BRANCH  83  87
ATOM     87  CG2 THR d   1     -15.214  18.549  81.821  0.00  0.00    -0.050 C 
ATOM     88  H   THR d   1     -15.679  17.577  81.656  0.00  0.00     0.031 H 
ATOM     89  H   THR d   1     -14.280  18.419  82.368  0.00  0.00     0.031 H 
ATOM     90  H   THR d   1     -15.889  19.182  82.397  0.00  0.00     0.031 H 
ENDBRANCH  83  87
ENDBRANCH   1  83
TORSDOF 26
