REMARK  8 active torsions:
REMARK  status: ('A' for Active; 'I' for Inactive)
REMARK    1  A    between atoms: C1'_9  and  N1_1 
REMARK    2  A    between atoms: C17_10  and  C18_11 
REMARK    3  A    between atoms: C17_10  and  C24_18 
REMARK    4  A    between atoms: N5'_29  and  C17_10 
REMARK    5  A    between atoms: N28_22  and  C29_23 
REMARK    6  A    between atoms: C3'_24  and  O41_27 
REMARK    7  A    between atoms: C5'_28  and  C4'_25 
REMARK    8  A    between atoms: C5'_28  and  N5'_29 
ROOT
ATOM      1  N5' DU2 d   1      -9.258  26.584  -3.749  0.00  0.00    -0.057 N 
ATOM      2  H23 DU2 d   1      -8.789  25.759  -3.409  0.00  0.00     0.278 HD
ATOM      3  H24 DU2 d   1     -10.255  26.439  -3.722  0.00  0.00     0.278 HD
ENDROOT
BRANCH   1   4
ATOM      4  C17 DU2 d   1      -8.874  26.745  -5.196  0.00  0.00     0.183 C 
ATOM      5  H5  DU2 d   1      -9.255  27.769  -5.324  0.00  0.00     0.104 H 
BRANCH   4   6
ATOM      6  C18 DU2 d   1      -7.532  27.090  -5.384  0.00  0.00    -0.020 A 
ATOM      7  C19 DU2 d   1      -6.640  26.094  -4.948  0.00  0.00    -0.074 A 
ATOM      8  C20 DU2 d   1      -5.271  26.200  -4.984  0.00  0.00    -0.082 A 
ATOM      9  H6  DU2 d   1      -7.063  25.177  -4.555  0.00  0.00     0.084 H 
ATOM     10  C21 DU2 d   1      -4.754  27.358  -5.511  0.00  0.00    -0.083 A 
ATOM     11  H9  DU2 d   1      -4.630  25.408  -4.614  0.00  0.00     0.083 H 
ATOM     12  C22 DU2 d   1      -5.624  28.346  -5.966  0.00  0.00    -0.082 A 
ATOM     13  H10 DU2 d   1      -3.681  27.502  -5.572  0.00  0.00     0.083 H 
ATOM     14  C23 DU2 d   1      -7.013  28.249  -5.906  0.00  0.00    -0.074 A 
ATOM     15  H11 DU2 d   1      -5.194  29.245  -6.393  0.00  0.00     0.083 H 
ATOM     16  H12 DU2 d   1      -7.654  29.051  -6.255  0.00  0.00     0.084 H 
ENDBRANCH   4   6
BRANCH   4  17
ATOM     17  C24 DU2 d   1      -9.761  26.176  -6.163  0.00  0.00     0.141 A 
ATOM     18  N25 DU2 d   1     -10.930  25.663  -5.742  0.00  0.00    -0.243 NA
ATOM     19  C26 DU2 d   1     -11.834  25.276  -6.847  0.00  0.00     0.019 A 
ATOM     20  C27 DU2 d   1     -11.028  25.600  -8.093  0.00  0.00    -0.003 A 
ATOM     21  H13 DU2 d   1     -12.838  24.858  -6.783  0.00  0.00     0.117 H 
ATOM     22  N28 DU2 d   1      -9.800  26.163  -7.528  0.00  0.00    -0.346 N 
ATOM     23  H14 DU2 d   1     -11.295  25.452  -9.138  0.00  0.00     0.113 H 
BRANCH  22  24
ATOM     24  C29 DU2 d   1      -8.865  26.652  -8.451  0.00  0.00    -0.013 C 
ATOM     25  H15 DU2 d   1      -7.991  27.047  -7.913  0.00  0.00     0.057 H 
ATOM     26  H16 DU2 d   1      -9.323  27.456  -9.046  0.00  0.00     0.057 H 
ATOM     27  H17 DU2 d   1      -8.548  25.837  -9.118  0.00  0.00     0.057 H 
ENDBRANCH  22  24
ENDBRANCH   4  17
ENDBRANCH   1   4
BRANCH   1  28
ATOM     28  C5' DU2 d   1      -8.947  27.701  -2.783  0.00  0.00     0.109 C 
ATOM     29  H21 DU2 d   1      -7.944  28.104  -2.987  0.00  0.00     0.079 H 
ATOM     30  H22 DU2 d   1      -9.693  28.503  -2.886  0.00  0.00     0.079 H 
BRANCH  28  31
ATOM     31  C4' DU2 d   1      -8.998  27.110  -1.337  0.00  0.00     0.089 C 
ATOM     32  C3' DU2 d   1      -8.253  27.820  -0.214  0.00  0.00     0.066 C 
ATOM     33  C2' DU2 d   1      -7.542  26.769   0.582  0.00  0.00     0.002 C 
ATOM     34  H18 DU2 d   1      -7.613  28.639  -0.573  0.00  0.00     0.087 H 
ATOM     35  C1' DU2 d   1      -7.339  25.651  -0.407  0.00  0.00     0.116 C 
ATOM     36  H7  DU2 d   1      -6.577  27.144   0.954  0.00  0.00     0.043 H 
ATOM     37  H8  DU2 d   1      -8.158  26.436   1.430  0.00  0.00     0.043 H 
ATOM     38  O4' DU2 d   1      -8.405  25.783  -1.403  0.00  0.00    -0.357 OA
ATOM     39  H4  DU2 d   1      -7.426  24.677   0.097  0.00  0.00     0.118 H 
ATOM     40  H19 DU2 d   1     -10.057  27.042  -1.046  0.00  0.00     0.090 H 
BRANCH  32  41
ATOM     41  O41 DU2 d   1      -9.189  28.188   0.727  0.00  0.00    -0.393 OA
ATOM     42  H20 DU2 d   1      -8.756  28.635   1.444  0.00  0.00     0.210 HD
ENDBRANCH  32  41
BRANCH  35  43
ATOM     43  N1  DU2 d   1      -6.001  25.766  -0.990  0.00  0.00    -0.282 N 
ATOM     44  C2  DU2 d   1      -5.483  24.661  -1.551  0.00  0.00     0.331 A 
ATOM     45  O2  DU2 d   1      -6.159  23.641  -1.536  0.00  0.00    -0.246 OA
ATOM     46  N3  DU2 d   1      -4.215  24.696  -2.118  0.00  0.00    -0.275 N 
ATOM     47  C4  DU2 d   1      -3.473  25.892  -2.090  0.00  0.00     0.250 A 
ATOM     48  H1  DU2 d   1      -3.832  23.876  -2.544  0.00  0.00     0.173 HD
ATOM     49  O4  DU2 d   1      -2.343  25.912  -2.583  0.00  0.00    -0.268 OA
ATOM     50  C5  DU2 d   1      -3.983  27.037  -1.499  0.00  0.00    -0.002 A 
ATOM     51  C6  DU2 d   1      -5.240  26.958  -0.937  0.00  0.00    -0.008 A 
ATOM     52  H2  DU2 d   1      -3.413  27.965  -1.479  0.00  0.00     0.094 H 
ATOM     53  H3  DU2 d   1      -5.657  27.833  -0.441  0.00  0.00     0.112 H 
ENDBRANCH  35  43
ENDBRANCH  28  31
ENDBRANCH   1  28
TORSDOF 8
