REMARK WARNING: 32 MAX_TORS EXCEEDED!!!
REMARK  54 active torsions:
REMARK  status: ('A' for Active; 'I' for Inactive)
REMARK    1  A    between atoms: N_1  and  CA_2 
REMARK    2  A    between atoms: CA_2  and  C_3 
REMARK    3  A    between atoms: CA_2  and  CB_5 
REMARK       I    between atoms: C_3  and  N_6 
REMARK    4  A    between atoms: N_6  and  CA_7 
REMARK    5  A    between atoms: CA_7  and  C_8 
REMARK    6  A    between atoms: CA_7  and  CB_10 
REMARK       I    between atoms: C_8  and  N_14 
REMARK    7  A    between atoms: CB_10  and  CG1_11 
REMARK    8  A    between atoms: CB_10  and  CG2_12 
REMARK    9  A    between atoms: CG1_11  and  CD1_13 
REMARK   10  A    between atoms: N_14  and  CA_15 
REMARK   11  A    between atoms: CA_15  and  C_16 
REMARK   12  A    between atoms: CA_15  and  CB_18 
REMARK       I    between atoms: C_16  and  N_19 
REMARK   13  A    between atoms: N_19  and  CA_20 
REMARK   14  A    between atoms: CA_20  and  C_21 
REMARK   15  A    between atoms: CA_20  and  CB_23 
REMARK       I    between atoms: C_21  and  N_24 
REMARK   16  A    between atoms: N_24  and  CA_25 
REMARK   17  A    between atoms: CA_25  and  C_26 
REMARK   18  A    between atoms: CA_25  and  CB_28 
REMARK       I    between atoms: C_26  and  N_32 
REMARK   19  A    between atoms: CB_28  and  CG_29 
REMARK   20  A    between atoms: CG_29  and  CD1_30 
REMARK   21  A    between atoms: CG_29  and  CD2_31 
REMARK   22  A    between atoms: N_32  and  CA_33 
REMARK   23  A    between atoms: CA_33  and  C_34 
REMARK   24  A    between atoms: CA_33  and  CB_36 
REMARK       I    between atoms: C_34  and  N_40 
REMARK   25  A    between atoms: CB_36  and  CG1_37 
REMARK   26  A    between atoms: CB_36  and  CG2_38 
REMARK   27  A    between atoms: CG1_37  and  CD1_39 
REMARK   28  A    between atoms: N_40  and  CA_41 
REMARK   29  A    between atoms: CA_41  and  C_42 
REMARK   30  A    between atoms: CA_41  and  CB_44 
REMARK       I    between atoms: C_42  and  N_45 
REMARK   31  A    between atoms: N_45  and  CA_46 
REMARK   32  A    between atoms: CA_46  and  C_47 
REMARK   33  A    between atoms: CA_46  and  CB_49 
REMARK       I    between atoms: C_47  and  N_53 
REMARK   34  A    between atoms: CB_49  and  CG_50 
REMARK   35  A    between atoms: N_53  and  CA_54 
REMARK   36  A    between atoms: CA_54  and  C_55 
REMARK   37  A    between atoms: CA_54  and  CB_57 
REMARK       I    between atoms: C_55  and  N_61 
REMARK   38  A    between atoms: CB_57  and  CG_58 
REMARK   39  A    between atoms: CG_58  and  SD_59 
REMARK   40  A    between atoms: SD_59  and  CE_60 
REMARK   41  A    between atoms: N_61  and  CA_62 
REMARK   42  A    between atoms: CA_62  and  C_63 
REMARK   43  A    between atoms: CA_62  and  CB_65 
REMARK       I    between atoms: C_63  and  N_70 
REMARK   44  A    between atoms: CB_65  and  CG_66 
REMARK   45  A    between atoms: CG_66  and  CD_67 
REMARK   46  A    between atoms: N_70  and  CA_71 
REMARK   47  A    between atoms: CA_71  and  C_72 
REMARK   48  A    between atoms: CA_71  and  CB_74 
REMARK       I    between atoms: C_72  and  N_78 
REMARK   49  A    between atoms: CB_74  and  CG1_75 
REMARK   50  A    between atoms: CB_74  and  CG2_76 
REMARK   51  A    between atoms: CG1_75  and  CD1_77 
REMARK   52  A    between atoms: N_78  and  CA_79 
REMARK   53  A    between atoms: CA_79  and  C_80 
REMARK   54  A    between atoms: CA_79  and  CB_82 
ROOT
ATOM      1  CA  ILE d   1      29.426 -33.700  20.318  0.00  0.00     0.092 C 
ATOM      2  H   ILE d   1      28.794 -34.425  20.831  0.00  0.00     0.088 H 
ENDROOT
BRANCH   1   3
ATOM      3  N   ILE d   1      30.774 -33.908  20.843  0.00  0.00    -0.346 N 
ATOM      4  C   LEU d   1      31.417 -35.066  20.733  0.00  0.00     0.241 C 
ATOM      5  O   LEU d   1      30.933 -36.048  20.175  0.00  0.00    -0.271 OA
ATOM      6  H   ILE d   1      31.241 -33.132  21.313  0.00  0.00     0.163 HD
BRANCH   4   7
ATOM      7  CA  LEU d   1      32.815 -35.132  21.360  0.00  0.00     0.089 C 
ATOM      8  H   LEU d   1      33.267 -36.072  21.042  0.00  0.00     0.087 H 
BRANCH   7   9
ATOM      9  N   LEU d   1      33.676 -34.042  20.899  0.00  0.00    -0.346 N 
ATOM     10  C   GLU d   1      33.912 -33.817  19.612  0.00  0.00     0.240 C 
ATOM     11  O   GLU d   1      33.453 -34.520  18.714  0.00  0.00    -0.271 OA
ATOM     12  H   LEU d   1      34.111 -33.433  21.592  0.00  0.00     0.163 HD
BRANCH  10  13
ATOM     13  CA  GLU d   1      34.799 -32.613  19.294  0.00  0.00     0.086 C 
ATOM     14  H   GLU d   1      34.688 -32.376  18.236  0.00  0.00     0.086 H 
BRANCH  13  15
ATOM     15  N   GLU d   1      34.387 -31.436  20.057  0.00  0.00    -0.346 N 
ATOM     16  C   ASP d   1      33.247 -30.811  19.792  0.00  0.00     0.240 C 
ATOM     17  O   ASP d   1      32.483 -31.179  18.898  0.00  0.00    -0.271 OA
ATOM     18  H   GLU d   1      34.986 -31.089  20.806  0.00  0.00     0.163 HD
BRANCH  16  19
ATOM     19  CA  ASP d   1      32.900 -29.605  20.671  0.00  0.00     0.086 C 
ATOM     20  H   ASP d   1      31.813 -29.544  20.719  0.00  0.00     0.086 H 
BRANCH  19  21
ATOM     21  N   ASP d   1      33.381 -29.758  22.044  0.00  0.00    -0.346 N 
ATOM     22  C   ILE d   1      32.923 -30.721  22.836  0.00  0.00     0.241 C 
ATOM     23  O   ILE d   1      32.110 -31.562  22.456  0.00  0.00    -0.271 OA
ATOM     24  H   ASP d   1      34.084 -29.111  22.401  0.00  0.00     0.163 HD
BRANCH  22  25
ATOM     25  CA  ILE d   1      33.477 -30.763  24.259  0.00  0.00     0.092 C 
ATOM     26  H   ILE d   1      33.254 -31.746  24.674  0.00  0.00     0.088 H 
BRANCH  25  27
ATOM     27  N   ILE d   1      34.930 -30.629  24.283  0.00  0.00    -0.346 N 
ATOM     28  C   ASP d   1      35.710 -31.467  23.605  0.00  0.00     0.248 C 
ATOM     29  O   ASP d   1      35.260 -32.356  22.878  0.00  0.00    -0.271 OA
ATOM     30  H   ILE d   1      35.355 -29.880  24.829  0.00  0.00     0.163 HD
BRANCH  28  31
ATOM     31  CA  ASP d   1      37.226 -31.271  23.760  0.00  0.00     0.172 C 
ATOM     32  H   ASP d   1      37.533 -30.521  23.032  0.00  0.00     0.098 H 
BRANCH  31  33
ATOM     33  N   ASP d   1      37.587 -30.761  25.081  0.00  0.00    -0.067 N 
ATOM     34  H   ASP d   1      37.091 -29.887  25.254  0.00  0.00     0.275 HD
ATOM     35  H   ASP d   1      37.328 -31.446  25.791  0.00  0.00     0.275 HD
ATOM     36  H   ASP d   1      38.593 -30.595  25.117  0.00  0.00     0.275 HD
ENDBRANCH  31  33
BRANCH  31  37
ATOM     37  CB  ASP d   1      37.958 -32.583  23.477  0.00  0.00    -0.042 C 
ATOM     38  H   ASP d   1      37.622 -33.344  24.181  0.00  0.00     0.030 H 
ATOM     39  H   ASP d   1      37.741 -32.906  22.459  0.00  0.00     0.030 H 
ATOM     40  H   ASP d   1      39.031 -32.431  23.590  0.00  0.00     0.030 H 
ENDBRANCH  31  37
ENDBRANCH  28  31
ENDBRANCH  25  27
BRANCH  25  41
ATOM     41  CB  ILE d   1      32.781 -29.714  25.150  0.00  0.00    -0.030 C 
ATOM     42  H   ILE d   1      33.160 -28.726  24.889  0.00  0.00     0.043 H 
BRANCH  41  43
ATOM     43  CG1 ILE d   1      33.099 -29.979  26.631  0.00  0.00    -0.063 C 
ATOM     44  H   ILE d   1      34.185 -30.002  26.721  0.00  0.00     0.033 H 
ATOM     45  H   ILE d   1      32.595 -30.907  26.900  0.00  0.00     0.033 H 
BRANCH  43  46
ATOM     46  CD1 ILE d   1      32.599 -28.910  27.599  0.00  0.00    -0.076 C 
ATOM     47  H   ILE d   1      33.055 -27.952  27.348  0.00  0.00     0.027 H 
ATOM     48  H   ILE d   1      31.515 -28.830  27.521  0.00  0.00     0.027 H 
ATOM     49  H   ILE d   1      32.872 -29.187  28.617  0.00  0.00     0.027 H 
ENDBRANCH  43  46
ENDBRANCH  41  43
BRANCH  41  50
ATOM     50  CG2 ILE d   1      31.275 -29.722  24.908  0.00  0.00    -0.071 C 
ATOM     51  H   ILE d   1      31.075 -29.488  23.862  0.00  0.00     0.028 H 
ATOM     52  H   ILE d   1      30.876 -30.709  25.144  0.00  0.00     0.028 H 
ATOM     53  H   ILE d   1      30.802 -28.975  25.546  0.00  0.00     0.028 H 
ENDBRANCH  41  50
ENDBRANCH  25  41
ENDBRANCH  22  25
ENDBRANCH  19  21
BRANCH  19  54
ATOM     54  CB  ASP d   1      33.451 -28.313  20.048  0.00  0.00    -0.049 C 
ATOM     55  H   ASP d   1      33.120 -27.457  20.637  0.00  0.00     0.030 H 
ATOM     56  H   ASP d   1      34.540 -28.351  20.040  0.00  0.00     0.030 H 
ATOM     57  H   ASP d   1      33.082 -28.217  19.027  0.00  0.00     0.030 H 
ENDBRANCH  19  54
ENDBRANCH  16  19
ENDBRANCH  13  15
BRANCH  13  58
ATOM     58  CB  GLU d   1      36.267 -32.954  19.575  0.00  0.00    -0.049 C 
ATOM     59  H   GLU d   1      36.896 -32.111  19.290  0.00  0.00     0.030 H 
ATOM     60  H   GLU d   1      36.394 -33.160  20.638  0.00  0.00     0.030 H 
ATOM     61  H   GLU d   1      36.552 -33.833  18.997  0.00  0.00     0.030 H 
ENDBRANCH  13  58
ENDBRANCH  10  13
ENDBRANCH   7   9
BRANCH   7  62
ATOM     62  CB  LEU d   1      32.715 -35.100  22.889  0.00  0.00    -0.035 C 
ATOM     63  H   LEU d   1      32.270 -34.130  23.108  0.00  0.00     0.037 H 
ATOM     64  H   LEU d   1      33.724 -35.337  23.228  0.00  0.00     0.037 H 
BRANCH  62  65
ATOM     65  CG  LEU d   1      31.826 -36.097  23.631  0.00  0.00    -0.059 C 
ATOM     66  H   LEU d   1      32.034 -37.089  23.229  0.00  0.00     0.038 H 
BRANCH  65  67
ATOM     67  CD1 LEU d   1      32.149 -36.050  25.111  0.00  0.00    -0.073 C 
ATOM     68  H   LEU d   1      33.196 -36.311  25.262  0.00  0.00     0.028 H 
ATOM     69  H   LEU d   1      31.966 -35.044  25.490  0.00  0.00     0.028 H 
ATOM     70  H   LEU d   1      31.516 -36.761  25.642  0.00  0.00     0.028 H 
ENDBRANCH  65  67
BRANCH  65  71
ATOM     71  CD2 LEU d   1      30.332 -35.832  23.411  0.00  0.00    -0.073 C 
ATOM     72  H   LEU d   1      30.085 -34.832  23.768  0.00  0.00     0.028 H 
ATOM     73  H   LEU d   1      30.104 -35.906  22.348  0.00  0.00     0.028 H 
ATOM     74  H   LEU d   1      29.748 -36.570  23.961  0.00  0.00     0.028 H 
ENDBRANCH  65  71
ENDBRANCH  62  65
ENDBRANCH   7  62
ENDBRANCH   4   7
ENDBRANCH   1   3
BRANCH   1  75
ATOM     75  C   ILE d   1      29.322 -33.971  18.814  0.00  0.00     0.241 C 
ATOM     76  O   ILE d   1      28.347 -34.566  18.348  0.00  0.00    -0.271 OA
ATOM     77  N   GLN d   1      30.323 -33.518  18.062  0.00  0.00    -0.346 N 
ATOM     78  H   GLN d   1      31.059 -32.967  18.504  0.00  0.00     0.163 HD
BRANCH  77  79
ATOM     79  CA  GLN d   1      30.407 -33.780  16.629  0.00  0.00     0.086 C 
ATOM     80  H   GLN d   1      29.494 -33.386  16.181  0.00  0.00     0.086 H 
BRANCH  79  81
ATOM     81  C   GLN d   1      30.490 -35.273  16.329  0.00  0.00     0.240 C 
ATOM     82  O   GLN d   1      29.843 -35.762  15.406  0.00  0.00    -0.271 OA
ATOM     83  N   ASP d   1      31.305 -35.995  17.098  0.00  0.00    -0.346 N 
ATOM     84  H   ASP d   1      31.822 -35.532  17.846  0.00  0.00     0.163 HD
BRANCH  83  85
ATOM     85  CA  ASP d   1      31.478 -37.436  16.897  0.00  0.00     0.098 C 
ATOM     86  H   ASP d   1      31.715 -37.576  15.842  0.00  0.00     0.088 H 
BRANCH  85  87
ATOM     87  C   ASP d   1      30.193 -38.220  17.213  0.00  0.00     0.241 C 
ATOM     88  O   ASP d   1      30.020 -39.342  16.748  0.00  0.00    -0.271 OA
ATOM     89  N   MET d   1      29.309 -37.626  18.006  0.00  0.00    -0.346 N 
ATOM     90  H   MET d   1      29.488 -36.672  18.320  0.00  0.00     0.163 HD
BRANCH  89  91
ATOM     91  CA  MET d   1      28.085 -38.299  18.443  0.00  0.00     0.090 C 
ATOM     92  H   MET d   1      28.259 -39.365  18.296  0.00  0.00     0.087 H 
BRANCH  91  93
ATOM     93  C   MET d   1      26.855 -37.923  17.617  0.00  0.00     0.241 C 
ATOM     94  O   MET d   1      25.762 -38.474  17.822  0.00  0.00    -0.271 OA
ATOM     95  N   GLU d   1      27.028 -36.977  16.699  0.00  0.00    -0.346 N 
ATOM     96  H   GLU d   1      27.936 -36.522  16.611  0.00  0.00     0.163 HD
BRANCH  95  97
ATOM     97  CA  GLU d   1      25.938 -36.582  15.817  0.00  0.00     0.090 C 
ATOM     98  H   GLU d   1      25.115 -36.283  16.467  0.00  0.00     0.087 H 
BRANCH  97  99
ATOM     99  C   GLU d   1      25.472 -37.736  14.938  0.00  0.00     0.241 C 
ATOM    100  O   GLU d   1      26.274 -38.421  14.317  0.00  0.00    -0.271 OA
ATOM    101  N   ILE d   1      24.164 -37.937  14.881  0.00  0.00    -0.346 N 
ATOM    102  H   ILE d   1      23.540 -37.340  15.424  0.00  0.00     0.163 HD
BRANCH 101 103
ATOM    103  CA  ILE d   1      23.606 -38.994  14.058  0.00  0.00     0.092 C 
ATOM    104  H   ILE d   1      24.444 -39.558  13.649  0.00  0.00     0.088 H 
BRANCH 103 105
ATOM    105  C   ILE d   1      22.798 -38.417  12.903  0.00  0.00     0.241 C 
ATOM    106  O   ILE d   1      22.646 -37.199  12.784  0.00  0.00    -0.271 OA
ATOM    107  N   LYS d   1      22.298 -39.306  12.050  0.00  0.00    -0.345 N 
ATOM    108  H   LYS d   1      22.453 -40.298  12.232  0.00  0.00     0.163 HD
BRANCH 107 109
ATOM    109  CA  LYS d   1      21.538 -38.924  10.867  0.00  0.00     0.093 C 
ATOM    110  H   LYS d   1      21.557 -37.838  10.777  0.00  0.00     0.089 H 
BRANCH 109 111
ATOM    111  C   LYS d   1      20.096 -39.384  11.004  0.00  0.00     0.196 C 
ATOM    112  O   LYS d   1      19.803 -40.311  11.762  0.00  0.00    -0.646 OA
ATOM    113  O   LYS d   1      19.192 -38.813  10.337  0.00  0.00    -0.646 OA
ENDBRANCH 109 111
BRANCH 109 114
ATOM    114  CB  LYS d   1      22.166 -39.528   9.608  0.00  0.00    -0.048 C 
ATOM    115  H   LYS d   1      23.189 -39.166   9.504  0.00  0.00     0.030 H 
ATOM    116  H   LYS d   1      22.170 -40.615   9.691  0.00  0.00     0.030 H 
ATOM    117  H   LYS d   1      21.584 -39.231   8.735  0.00  0.00     0.030 H 
ENDBRANCH 109 114
ENDBRANCH 107 109
ENDBRANCH 103 105
BRANCH 103 118
ATOM    118  CB  ILE d   1      22.745 -39.968  14.883  0.00  0.00    -0.030 C 
ATOM    119  H   ILE d   1      22.338 -40.723  14.210  0.00  0.00     0.043 H 
BRANCH 118 120
ATOM    120  CG1 ILE d   1      21.569 -39.241  15.535  0.00  0.00    -0.063 C 
ATOM    121  H   ILE d   1      21.030 -38.713  14.748  0.00  0.00     0.033 H 
ATOM    122  H   ILE d   1      21.974 -38.577  16.299  0.00  0.00     0.033 H 
BRANCH 120 123
ATOM    123  CD1 ILE d   1      20.586 -40.180  16.216  0.00  0.00    -0.076 C 
ATOM    124  H   ILE d   1      20.178 -40.873  15.480  0.00  0.00     0.027 H 
ATOM    125  H   ILE d   1      21.101 -40.739  16.997  0.00  0.00     0.027 H 
ATOM    126  H   ILE d   1      19.777 -39.599  16.658  0.00  0.00     0.027 H 
ENDBRANCH 120 123
ENDBRANCH 118 120
BRANCH 118 127
ATOM    127  CG2 ILE d   1      23.601 -40.664  15.936  0.00  0.00    -0.071 C 
ATOM    128  H   ILE d   1      24.399 -41.221  15.444  0.00  0.00     0.028 H 
ATOM    129  H   ILE d   1      24.034 -39.917  16.602  0.00  0.00     0.028 H 
ATOM    130  H   ILE d   1      22.980 -41.350  16.512  0.00  0.00     0.028 H 
ENDBRANCH 118 127
ENDBRANCH 103 118
ENDBRANCH 101 103
ENDBRANCH  97  99
BRANCH  97 131
ATOM    131  CB  GLU d   1      26.324 -35.395  14.934  0.00  0.00    -0.029 C 
ATOM    132  H   GLU d   1      27.227 -35.658  14.383  0.00  0.00     0.037 H 
ATOM    133  H   GLU d   1      26.479 -34.528  15.576  0.00  0.00     0.037 H 
BRANCH 131 134
ATOM    134  CG  GLU d   1      25.232 -35.057  13.929  0.00  0.00     0.018 C 
ATOM    135  H   GLU d   1      24.286 -35.020  14.469  0.00  0.00     0.049 H 
ATOM    136  H   GLU d   1      25.252 -35.820  13.150  0.00  0.00     0.049 H 
BRANCH 134 137
ATOM    137  CD  GLU d   1      25.433 -33.710  13.259  0.00  0.00     0.172 C 
ATOM    138  OE1 GLU d   1      24.548 -33.311  12.468  0.00  0.00    -0.648 OA
ATOM    139  OE2 GLU d   1      26.469 -33.059  13.528  0.00  0.00    -0.648 OA
ENDBRANCH 134 137
ENDBRANCH 131 134
ENDBRANCH  97 131
ENDBRANCH  95  97
ENDBRANCH  91  93
BRANCH  91 140
ATOM    140  CB  MET d   1      27.812 -37.997  19.911  0.00  0.00    -0.030 C 
ATOM    141  H   MET d   1      26.825 -38.396  20.146  0.00  0.00     0.037 H 
ATOM    142  H   MET d   1      27.895 -36.918  20.041  0.00  0.00     0.037 H 
BRANCH 140 143
ATOM    143  CG  MET d   1      28.784 -38.633  20.852  0.00  0.00    -0.021 C 
ATOM    144  H   MET d   1      29.733 -38.108  20.745  0.00  0.00     0.049 H 
ATOM    145  H   MET d   1      28.839 -39.692  20.599  0.00  0.00     0.049 H 
BRANCH 143 146
ATOM    146  SD  MET d   1      28.300 -38.518  22.568  0.00  0.00    -0.173 SA
BRANCH 146 147
ATOM    147  CE  MET d   1      26.746 -39.444  22.584  0.00  0.00    -0.035 C 
ATOM    148  H   MET d   1      26.035 -38.970  21.907  0.00  0.00     0.041 H 
ATOM    149  H   MET d   1      26.931 -40.468  22.260  0.00  0.00     0.041 H 
ATOM    150  H   MET d   1      26.338 -39.450  23.595  0.00  0.00     0.041 H 
ENDBRANCH 146 147
ENDBRANCH 143 146
ENDBRANCH 140 143
ENDBRANCH  91 140
ENDBRANCH  89  91
ENDBRANCH  85  87
BRANCH  85 151
ATOM    151  CB  ASP d   1      32.633 -37.981  17.754  0.00  0.00     0.043 C 
ATOM    152  H   ASP d   1      32.708 -39.053  17.571  0.00  0.00     0.052 H 
ATOM    153  H   ASP d   1      32.416 -37.745  18.796  0.00  0.00     0.052 H 
BRANCH 151 154
ATOM    154  CG  ASP d   1      33.967 -37.356  17.404  0.00  0.00     0.175 C 
ATOM    155  OD1 ASP d   1      34.060 -36.654  16.357  0.00  0.00    -0.648 OA
ATOM    156  OD2 ASP d   1      34.954 -37.556  18.163  0.00  0.00    -0.648 OA
ENDBRANCH 151 154
ENDBRANCH  85 151
ENDBRANCH  83  85
ENDBRANCH  79  81
BRANCH  79 157
ATOM    157  CB  GLN d   1      31.634 -33.074  16.017  0.00  0.00    -0.049 C 
ATOM    158  H   GLN d   1      31.549 -31.999  16.175  0.00  0.00     0.030 H 
ATOM    159  H   GLN d   1      32.541 -33.443  16.497  0.00  0.00     0.030 H 
ATOM    160  H   GLN d   1      31.676 -33.283  14.948  0.00  0.00     0.030 H 
ENDBRANCH  79 157
ENDBRANCH  77  79
ENDBRANCH   1  75
BRANCH   1 161
ATOM    161  CB  ILE d   1      28.927 -32.279  20.614  0.00  0.00    -0.030 C 
ATOM    162  H   ILE d   1      29.626 -31.574  20.165  0.00  0.00     0.043 H 
BRANCH 161 163
ATOM    163  CG1 ILE d   1      28.882 -32.035  22.122  0.00  0.00    -0.063 C 
ATOM    164  H   ILE d   1      28.422 -31.060  22.281  0.00  0.00     0.033 H 
ATOM    165  H   ILE d   1      29.904 -32.102  22.494  0.00  0.00     0.033 H 
BRANCH 163 166
ATOM    166  CD1 ILE d   1      28.061 -33.049  22.875  0.00  0.00    -0.076 C 
ATOM    167  H   ILE d   1      27.034 -33.026  22.511  0.00  0.00     0.027 H 
ATOM    168  H   ILE d   1      28.481 -34.043  22.719  0.00  0.00     0.027 H 
ATOM    169  H   ILE d   1      28.076 -32.810  23.938  0.00  0.00     0.027 H 
ENDBRANCH 163 166
ENDBRANCH 161 163
BRANCH 161 170
ATOM    170  CG2 ILE d   1      27.558 -32.044  20.000  0.00  0.00    -0.071 C 
ATOM    171  H   ILE d   1      27.618 -32.176  18.920  0.00  0.00     0.028 H 
ATOM    172  H   ILE d   1      26.847 -32.758  20.416  0.00  0.00     0.028 H 
ATOM    173  H   ILE d   1      27.229 -31.029  20.226  0.00  0.00     0.028 H 
ENDBRANCH 161 170
ENDBRANCH   1 161
TORSDOF 54
