REMARK WARNING: 32 MAX_TORS EXCEEDED!!!
REMARK  35 active torsions:
REMARK  status: ('A' for Active; 'I' for Inactive)
REMARK       I    between atoms: N1_2  and  C6_16 
REMARK    1  A    between atoms: C7_19  and  N1_2 
REMARK    2  A    between atoms: C3_7  and  C2_4 
REMARK    3  A    between atoms: N2_5  and  C11_28 
REMARK       I    between atoms: C12_29  and  N2_5 
REMARK    4  A    between atoms: C4_10  and  C3_7 
REMARK    5  A    between atoms: N3_8  and  C13_30 
REMARK       I    between atoms: C28_45  and  N3_8 
REMARK    6  A    between atoms: C5_13  and  C4_10 
REMARK    7  A    between atoms: N4_11  and  C33_50 
REMARK       I    between atoms: C34_51  and  N4_11 
REMARK    8  A    between atoms: C6_16  and  C5_13 
REMARK    9  A    between atoms: N5_14  and  C35_52 
REMARK       I    between atoms: C47_64  and  N5_14 
REMARK   10  A    between atoms: O5_15  and  C29_46 
REMARK   11  A    between atoms: C30_47  and  O5_15 
REMARK   12  A    between atoms: C49_66  and  N6_17 
REMARK   13  A    between atoms: O6_18  and  C31_48 
REMARK   14  A    between atoms: C32_49  and  O6_18 
REMARK   15  A    between atoms: C8_22  and  C7_19 
REMARK       I    between atoms: C57_74  and  N7_20 
REMARK   16  A    between atoms: C9_24  and  C8_22 
REMARK   17  A    between atoms: C10_26  and  C9_24 
REMARK   18  A    between atoms: C48_65  and  O9_25 
REMARK   19  A    between atoms: C11_28  and  C10_26 
REMARK   20  A    between atoms: C11_28  and  C57_74 
REMARK   21  A    between atoms: C13_30  and  C12_29 
REMARK   22  A    between atoms: C13_30  and  C14_31 
REMARK   23  A    between atoms: C14_31  and  C15_32 
REMARK   24  A    between atoms: C18_35  and  C19_36 
REMARK   25  A    between atoms: C19_36  and  C20_37 
REMARK   26  A    between atoms: C29_46  and  C28_45 
REMARK   27  A    between atoms: C31_48  and  C30_47 
REMARK   28  A    between atoms: C33_50  and  C32_49 
REMARK   29  A    between atoms: C35_52  and  C34_51 
REMARK   30  A    between atoms: C35_52  and  C36_53 
REMARK   31  A    between atoms: C36_53  and  C37_54 
REMARK   32  A    between atoms: C48_65  and  C47_64 
REMARK   33  A    between atoms: C48_65  and  C49_66 
REMARK   34  A    between atoms: C49_66  and  C50_67 
REMARK   35  A    between atoms: C50_67  and  C51_68 
ROOT
ATOM      1  N3  DGZ d   1      91.627  63.614  29.495  0.00  0.00    -0.346 N 
ATOM      2  O4  DGZ d   1      92.597  63.431  27.493  0.00  0.00    -0.271 OA
ATOM      3  C28 DGZ d   1      92.237  64.123  28.429  0.00  0.00     0.242 C 
ATOM      4  H   DGZ d   1      91.329  64.275  30.212  0.00  0.00     0.163 HD
ENDROOT
BRANCH   3   5
ATOM      5  C29 DGZ d   1      92.433  65.632  28.402  0.00  0.00     0.093 C 
ATOM      6  H   DGZ d   1      93.022  65.877  27.518  0.00  0.00     0.089 H 
ATOM      7  H   DGZ d   1      91.447  66.097  28.394  0.00  0.00     0.089 H 
BRANCH   5   8
ATOM      8  O5  DGZ d   1      93.138  66.119  29.547  0.00  0.00    -0.380 OA
BRANCH   8   9
ATOM      9  C30 DGZ d   1      92.288  66.617  30.579  0.00  0.00     0.040 C 
ATOM     10  H   DGZ d   1      92.904  66.925  31.424  0.00  0.00     0.077 H 
ATOM     11  H   DGZ d   1      91.594  65.830  30.873  0.00  0.00     0.077 H 
BRANCH   9  12
ATOM     12  C31 DGZ d   1      91.490  67.817  30.090  0.00  0.00     0.039 C 
ATOM     13  H   DGZ d   1      92.171  68.621  29.810  0.00  0.00     0.077 H 
ATOM     14  H   DGZ d   1      90.897  67.534  29.220  0.00  0.00     0.077 H 
BRANCH  12  15
ATOM     15  O6  DGZ d   1      90.631  68.258  31.132  0.00  0.00    -0.387 OA
BRANCH  15  16
ATOM     16  C32 DGZ d   1      89.284  67.926  30.812  0.00  0.00     0.034 C 
ATOM     17  H   DGZ d   1      88.946  67.160  31.509  0.00  0.00     0.076 H 
ATOM     18  H   DGZ d   1      89.254  67.577  29.780  0.00  0.00     0.076 H 
BRANCH  16  19
ATOM     19  C33 DGZ d   1      88.357  69.131  30.938  0.00  0.00     0.015 C 
ATOM     20  H   DGZ d   1      87.507  68.969  30.275  0.00  0.00     0.067 H 
ATOM     21  H   DGZ d   1      88.065  69.220  31.984  0.00  0.00     0.067 H 
BRANCH  19  22
ATOM     22  N4  DGZ d   1      88.996  70.376  30.547  0.00  0.00    -0.357 N 
ATOM     23  C34 DGZ d   1      89.125  71.413  31.370  0.00  0.00     0.240 C 
ATOM     24  O7  DGZ d   1      88.679  71.441  32.506  0.00  0.00    -0.271 OA
ATOM     25  H   DGZ d   1      89.362  70.459  29.599  0.00  0.00     0.162 HD
BRANCH  23  26
ATOM     26  C35 DGZ d   1      89.795  72.622  30.790  0.00  0.00     0.093 C 
ATOM     27  H   DGZ d   1      90.030  72.445  29.741  0.00  0.00     0.088 H 
BRANCH  26  28
ATOM     28  N5  DGZ d   1      88.886  73.729  30.932  0.00  0.00    -0.345 N 
ATOM     29  C47 DGZ d   1      87.892  73.934  30.073  0.00  0.00     0.249 C 
ATOM     30  O8  DGZ d   1      87.690  73.293  29.052  0.00  0.00    -0.271 OA
ATOM     31  H   DGZ d   1      89.008  74.374  31.713  0.00  0.00     0.163 HD
BRANCH  29  32
ATOM     32  C48 DGZ d   1      87.031  75.102  30.391  0.00  0.00     0.139 C 
ATOM     33  H   DGZ d   1      87.164  75.499  31.398  0.00  0.00     0.101 H 
BRANCH  32  34
ATOM     34  O9  DGZ d   1      87.402  76.122  29.462  0.00  0.00    -0.384 OA
ATOM     35  H   DGZ d   1      87.249  75.809  28.567  0.00  0.00     0.210 HD
ENDBRANCH  32  34
BRANCH  32  36
ATOM     36  C49 DGZ d   1      85.564  74.668  30.332  0.00  0.00     0.136 C 
ATOM     37  H   DGZ d   1      85.410  73.993  29.490  0.00  0.00     0.089 H 
BRANCH  36  38
ATOM     38  N6  DGZ d   1      84.725  75.840  30.211  0.00  0.00    -0.072 N 
ATOM     39  H   DGZ d   1      83.747  75.554  30.172  0.00  0.00     0.274 HD
ATOM     40  H   DGZ d   1      84.871  76.446  31.018  0.00  0.00     0.274 HD
ATOM     41  H   DGZ d   1      84.968  76.344  29.358  0.00  0.00     0.274 HD
ENDBRANCH  36  38
BRANCH  36  42
ATOM     42  C50 DGZ d   1      85.218  74.013  31.667  0.00  0.00    -0.012 C 
ATOM     43  H   DGZ d   1      84.779  74.777  32.308  0.00  0.00     0.043 H 
ATOM     44  H   DGZ d   1      86.135  73.590  32.077  0.00  0.00     0.043 H 
BRANCH  42  45
ATOM     45  C51 DGZ d   1      84.213  72.892  31.531  0.00  0.00    -0.056 A 
ATOM     46  C52 DGZ d   1      83.006  72.947  32.245  0.00  0.00    -0.077 A 
ATOM     47  C53 DGZ d   1      82.084  71.888  32.163  0.00  0.00    -0.082 A 
ATOM     48  H   DGZ d   1      82.782  73.814  32.866  0.00  0.00     0.084 H 
ATOM     49  C54 DGZ d   1      82.382  70.776  31.370  0.00  0.00    -0.083 A 
ATOM     50  H   DGZ d   1      81.144  71.934  32.714  0.00  0.00     0.083 H 
ATOM     51  C55 DGZ d   1      83.607  70.703  30.691  0.00  0.00    -0.082 A 
ATOM     52  H   DGZ d   1      81.661  69.964  31.279  0.00  0.00     0.083 H 
ATOM     53  C56 DGZ d   1      84.519  71.763  30.762  0.00  0.00    -0.077 A 
ATOM     54  H   DGZ d   1      83.850  69.817  30.105  0.00  0.00     0.083 H 
ATOM     55  H   DGZ d   1      85.463  71.709  30.221  0.00  0.00     0.084 H 
ENDBRANCH  42  45
ENDBRANCH  36  42
ENDBRANCH  32  36
ENDBRANCH  29  32
ENDBRANCH  26  28
BRANCH  26  56
ATOM     56  C36 DGZ d   1      91.116  72.922  31.488  0.00  0.00    -0.014 C 
ATOM     57  H   DGZ d   1      91.012  72.744  32.558  0.00  0.00     0.043 H 
ATOM     58  H   DGZ d   1      91.389  73.964  31.322  0.00  0.00     0.043 H 
BRANCH  56  59
ATOM     59  C37 DGZ d   1      92.191  72.022  30.927  0.00  0.00    -0.055 A 
ATOM     60  C38 DGZ d   1      92.328  71.851  29.542  0.00  0.00    -0.076 A 
ATOM     61  C39 DGZ d   1      93.297  70.979  29.045  0.00  0.00    -0.072 A 
ATOM     62  H   DGZ d   1      91.680  72.397  28.857  0.00  0.00     0.084 H 
ATOM     63  C40 DGZ d   1      94.169  70.334  29.920  0.00  0.00    -0.026 A 
ATOM     64  H   DGZ d   1      93.372  70.802  27.972  0.00  0.00     0.084 H 
ATOM     65  C41 DGZ d   1      95.151  69.473  29.414  0.00  0.00    -0.072 A 
ATOM     66  C45 DGZ d   1      94.040  70.516  31.305  0.00  0.00    -0.025 A 
ATOM     67  C42 DGZ d   1      96.007  68.800  30.290  0.00  0.00    -0.082 A 
ATOM     68  H   DGZ d   1      95.248  69.328  28.338  0.00  0.00     0.084 H 
ATOM     69  C43 DGZ d   1      95.893  68.999  31.671  0.00  0.00    -0.082 A 
ATOM     70  H   DGZ d   1      96.763  68.120  29.898  0.00  0.00     0.083 H 
ATOM     71  C44 DGZ d   1      94.892  69.835  32.179  0.00  0.00    -0.072 A 
ATOM     72  H   DGZ d   1      96.585  68.502  32.352  0.00  0.00     0.083 H 
ATOM     73  H   DGZ d   1      94.777  69.955  33.256  0.00  0.00     0.084 H 
ATOM     74  C46 DGZ d   1      93.057  71.374  31.808  0.00  0.00    -0.066 A 
ATOM     75  H   DGZ d   1      92.968  71.535  32.882  0.00  0.00     0.085 H 
ENDBRANCH  56  59
ENDBRANCH  26  56
ENDBRANCH  23  26
ENDBRANCH  19  22
ENDBRANCH  16  19
ENDBRANCH  15  16
ENDBRANCH  12  15
ENDBRANCH   9  12
ENDBRANCH   8   9
ENDBRANCH   5   8
ENDBRANCH   3   5
BRANCH   1  76
ATOM     76  C13 DGZ d   1      91.340  62.201  29.742  0.00  0.00     0.093 C 
ATOM     77  H   DGZ d   1      92.198  61.672  29.326  0.00  0.00     0.088 H 
BRANCH  76  78
ATOM     78  C12 DGZ d   1      90.118  61.652  29.054  0.00  0.00     0.241 C 
ATOM     79  N2  DGZ d   1      89.382  62.500  28.333  0.00  0.00    -0.346 N 
ATOM     80  H   DGZ d   1      89.687  63.470  28.258  0.00  0.00     0.163 HD
ATOM     81  O2  DGZ d   1      89.829  60.472  29.205  0.00  0.00    -0.271 OA
BRANCH  79  82
ATOM     82  C11 DGZ d   1      88.165  62.099  27.651  0.00  0.00     0.089 C 
ATOM     83  H   DGZ d   1      87.683  61.346  28.274  0.00  0.00     0.087 H 
BRANCH  82  84
ATOM     84  C10 DGZ d   1      87.241  63.302  27.499  0.00  0.00    -0.038 C 
ATOM     85  H   DGZ d   1      87.826  64.154  27.153  0.00  0.00     0.036 H 
ATOM     86  H   DGZ d   1      86.457  63.056  26.782  0.00  0.00     0.036 H 
BRANCH  84  87
ATOM     87  C9  DGZ d   1      86.594  63.658  28.834  0.00  0.00    -0.061 C 
ATOM     88  H   DGZ d   1      87.010  63.012  29.607  0.00  0.00     0.033 H 
ATOM     89  H   DGZ d   1      86.795  64.707  29.050  0.00  0.00     0.033 H 
BRANCH  87  90
ATOM     90  C8  DGZ d   1      85.084  63.450  28.785  0.00  0.00    -0.050 C 
ATOM     91  H   DGZ d   1      84.627  64.375  28.434  0.00  0.00     0.035 H 
ATOM     92  H   DGZ d   1      84.881  62.609  28.122  0.00  0.00     0.035 H 
BRANCH  90  93
ATOM     93  C7  DGZ d   1      84.497  63.124  30.156  0.00  0.00    -0.005 C 
ATOM     94  H   DGZ d   1      84.327  62.049  30.215  0.00  0.00     0.064 H 
ATOM     95  H   DGZ d   1      85.198  63.455  30.922  0.00  0.00     0.064 H 
BRANCH  93  96
ATOM     96  N1  DGZ d   1      83.231  63.805  30.361  0.00  0.00    -0.361 N 
ATOM     97  C6  DGZ d   1      82.322  63.463  31.275  0.00  0.00     0.217 C 
ATOM     98  O1  DGZ d   1      82.470  62.525  32.046  0.00  0.00    -0.274 OA
ATOM     99  H   DGZ d   1      83.022  64.604  29.762  0.00  0.00     0.162 HD
BRANCH  97 100
ATOM    100  C5  DGZ d   1      81.077  64.329  31.305  0.00  0.00     0.009 C 
ATOM    101  H   DGZ d   1      81.332  65.270  31.793  0.00  0.00     0.047 H 
ATOM    102  H   DGZ d   1      80.740  64.471  30.278  0.00  0.00     0.047 H 
BRANCH 100 103
ATOM    103  C4  DGZ d   1      79.937  63.683  32.091  0.00  0.00    -0.054 C 
ATOM    104  H   DGZ d   1      80.326  62.802  32.601  0.00  0.00     0.034 H 
ATOM    105  H   DGZ d   1      79.547  64.416  32.797  0.00  0.00     0.034 H 
BRANCH 103 106
ATOM    106  C3  DGZ d   1      78.799  63.245  31.173  0.00  0.00    -0.050 C 
ATOM    107  H   DGZ d   1      78.914  63.723  30.200  0.00  0.00     0.038 H 
ATOM    108  H   DGZ d   1      78.826  62.162  31.054  0.00  0.00     0.038 H 
BRANCH 106 109
ATOM    109  C2  DGZ d   1      77.474  63.651  31.778  0.00  0.00    -0.112 C 
ATOM    110  C1  DGZ d   1      76.563  62.742  32.084  0.00  0.00    -0.125 C 
ATOM    111  H   DGZ d   1      76.763  61.686  31.901  0.00  0.00     0.066 H 
ATOM    112  H   DGZ d   1      75.612  63.049  32.520  0.00  0.00     0.066 H 
ATOM    113  H   DGZ d   1      77.267  64.705  31.964  0.00  0.00     0.075 H 
ENDBRANCH 106 109
ENDBRANCH 103 106
ENDBRANCH 100 103
ENDBRANCH  97 100
ENDBRANCH  93  96
ENDBRANCH  90  93
ENDBRANCH  87  90
ENDBRANCH  84  87
ENDBRANCH  82  84
BRANCH  82 114
ATOM    114  C57 DGZ d   1      88.407  61.421  26.332  0.00  0.00     0.238 C 
ATOM    115  N7  DGZ d   1      89.349  61.895  25.512  0.00  0.00    -0.368 N 
ATOM    116  H   DGZ d   1      89.522  61.439  24.616  0.00  0.00     0.159 HD
ATOM    117  H   DGZ d   1      89.895  62.713  25.781  0.00  0.00     0.159 HD
ATOM    118  O10 DGZ d   1      87.734  60.443  26.042  0.00  0.00    -0.271 OA
ENDBRANCH  82 114
ENDBRANCH  79  82
ENDBRANCH  76  78
BRANCH  76 119
ATOM    119  C14 DGZ d   1      91.159  61.972  31.246  0.00  0.00    -0.014 C 
ATOM    120  H   DGZ d   1      92.113  62.140  31.746  0.00  0.00     0.043 H 
ATOM    121  H   DGZ d   1      90.816  60.950  31.409  0.00  0.00     0.043 H 
BRANCH 119 122
ATOM    122  C15 DGZ d   1      90.128  62.935  31.813  0.00  0.00    -0.056 A 
ATOM    123  C16 DGZ d   1      88.780  62.569  31.925  0.00  0.00    -0.076 A 
ATOM    124  C17 DGZ d   1      87.844  63.480  32.425  0.00  0.00    -0.069 A 
ATOM    125  H   DGZ d   1      88.460  61.572  31.622  0.00  0.00     0.084 H 
ATOM    126  C18 DGZ d   1      88.257  64.757  32.814  0.00  0.00     0.015 A 
ATOM    127  H   DGZ d   1      86.796  63.195  32.511  0.00  0.00     0.085 H 
ATOM    128  C26 DGZ d   1      89.601  65.115  32.722  0.00  0.00    -0.069 A 
ATOM    129  C27 DGZ d   1      90.533  64.213  32.212  0.00  0.00    -0.076 A 
ATOM    130  H   DGZ d   1      89.924  66.103  33.050  0.00  0.00     0.085 H 
ATOM    131  H   DGZ d   1      91.580  64.504  32.124  0.00  0.00     0.084 H 
BRANCH 126 132
ATOM    132  C19 DGZ d   1      87.299  65.748  33.402  0.00  0.00     0.192 C 
ATOM    133  O3  DGZ d   1      87.503  66.115  34.546  0.00  0.00    -0.287 OA
BRANCH 132 134
ATOM    134  C20 DGZ d   1      86.134  66.291  32.614  0.00  0.00     0.015 A 
ATOM    135  C21 DGZ d   1      84.910  66.558  33.241  0.00  0.00    -0.069 A 
ATOM    136  C22 DGZ d   1      83.817  67.045  32.518  0.00  0.00    -0.082 A 
ATOM    137  H   DGZ d   1      84.808  66.383  34.312  0.00  0.00     0.085 H 
ATOM    138  C23 DGZ d   1      83.968  67.321  31.158  0.00  0.00    -0.083 A 
ATOM    139  H   DGZ d   1      82.858  67.207  33.011  0.00  0.00     0.083 H 
ATOM    140  C24 DGZ d   1      85.191  67.079  30.529  0.00  0.00    -0.082 A 
ATOM    141  H   DGZ d   1      83.132  67.725  30.587  0.00  0.00     0.083 H 
ATOM    142  C25 DGZ d   1      86.272  66.566  31.253  0.00  0.00    -0.069 A 
ATOM    143  H   DGZ d   1      85.304  67.291  29.466  0.00  0.00     0.083 H 
ATOM    144  H   DGZ d   1      87.223  66.381  30.754  0.00  0.00     0.085 H 
ENDBRANCH 132 134
ENDBRANCH 126 132
ENDBRANCH 119 122
ENDBRANCH  76 119
ENDBRANCH   1  76
TORSDOF 35
