REMARK  10 active torsions:
REMARK  status: ('A' for Active; 'I' for Inactive)
REMARK    1  A    between atoms: C3_31  and  C7_4 
REMARK    2  A    between atoms: N23_17  and  C24_8 
REMARK    3  A    between atoms: C25_12  and  C26_9 
REMARK    4  A    between atoms: C28_10  and  C29_13 
REMARK       I    between atoms: N23_17  and  C25_12 
REMARK    5  A    between atoms: C29_13  and  N30_14 
REMARK    6  A    between atoms: N30_14  and  C32_15 
REMARK    7  A    between atoms: N30_14  and  C31_16 
REMARK    8  A    between atoms: C14_18  and  N23_17 
REMARK    9  A    between atoms: N8_29  and  C9_28 
REMARK   10  A    between atoms: C2_30  and  N8_29 
ROOT
ATOM      1  C13 IAQ d   1      -8.580   2.660  10.927  0.00  0.00    -0.025 A 
ATOM      2  C15 IAQ d   1      -8.237   4.437  12.533  0.00  0.00     0.145 A 
ATOM      3  C21 IAQ d   1      -7.453   1.260   8.470  0.00  0.00     0.071 A 
ATOM      4  C14 IAQ d   1      -9.007   3.383  12.054  0.00  0.00     0.078 A 
ATOM      5  F22 IAQ d   1      -8.612   5.155  13.608  0.00  0.00    -0.204 F 
ATOM      6  C16 IAQ d   1      -7.030   4.749  11.901  0.00  0.00    -0.013 A 
ATOM      7  C11 IAQ d   1      -6.597   4.029  10.790  0.00  0.00     0.089 A 
ATOM      8  N10 IAQ d   1      -5.409   4.376  10.209  0.00  0.00    -0.227 NA
ATOM      9  C12 IAQ d   1      -7.378   2.984  10.285  0.00  0.00     0.072 A 
ATOM     10  N17 IAQ d   1      -6.898   2.277   9.155  0.00  0.00    -0.299 N 
ATOM     11  N20 IAQ d   1      -6.637   0.918   7.442  0.00  0.00    -0.253 NA
ATOM     12  C19 IAQ d   1      -5.554   1.725   7.465  0.00  0.00     0.033 A 
ATOM     13  C18 IAQ d   1      -5.742   2.604   8.577  0.00  0.00     0.104 A 
ATOM     14  C9  IAQ d   1      -4.945   3.720   9.126  0.00  0.00     0.157 A 
ATOM     15  H   IAQ d   1      -9.190   1.839  10.549  0.00  0.00     0.090 H 
ATOM     16  H   IAQ d   1      -8.406   0.787   8.704  0.00  0.00     0.144 H 
ATOM     17  H   IAQ d   1      -6.419   5.567  12.283  0.00  0.00     0.092 H 
ATOM     18  H   IAQ d   1      -4.709   1.709   6.776  0.00  0.00     0.118 H 
ENDROOT
BRANCH   4  19
ATOM     19  N23 IAQ d   1     -10.227   3.039  12.666  0.00  0.00    -0.316 N 
ATOM     20  C25 IAQ d   1     -10.251   2.552  13.916  0.00  0.00     0.247 C 
ATOM     21  O27 IAQ d   1     -11.289   2.377  14.555  0.00  0.00    -0.268 OA
BRANCH  19  22
ATOM     22  C24 IAQ d   1     -11.435   3.185  11.858  0.00  0.00    -0.011 C 
ATOM     23  H   IAQ d   1     -11.902   2.209  11.726  0.00  0.00     0.057 H 
ATOM     24  H   IAQ d   1     -12.130   3.856  12.363  0.00  0.00     0.057 H 
ATOM     25  H   IAQ d   1     -11.172   3.598  10.884  0.00  0.00     0.057 H 
ENDBRANCH  19  22
BRANCH  20  26
ATOM     26  C26 IAQ d   1      -9.012   2.124  14.589  0.00  0.00    -0.019 C 
ATOM     27  C28 IAQ d   1      -8.585   2.697  15.721  0.00  0.00    -0.071 C 
ATOM     28  H   IAQ d   1      -7.710   2.255  16.198  0.00  0.00     0.079 H 
ATOM     29  H   IAQ d   1      -8.425   1.316  14.152  0.00  0.00     0.091 H 
BRANCH  27  30
ATOM     30  C29 IAQ d   1      -9.198   3.892  16.397  0.00  0.00     0.128 C 
ATOM     31  H   IAQ d   1     -10.274   3.850  16.230  0.00  0.00     0.086 H 
ATOM     32  H   IAQ d   1      -8.734   4.784  15.977  0.00  0.00     0.086 H 
BRANCH  30  33
ATOM     33  N30 IAQ d   1      -8.974   3.913  17.835  0.00  0.00     0.083 N 
BRANCH  33  34
ATOM     34  C32 IAQ d   1     -10.156   3.445  18.546  0.00  0.00     0.095 C 
ATOM     35  H   IAQ d   1     -11.000   4.093  18.311  0.00  0.00     0.071 H 
ATOM     36  H   IAQ d   1     -10.383   2.424  18.239  0.00  0.00     0.071 H 
ATOM     37  H   IAQ d   1      -9.966   3.469  19.619  0.00  0.00     0.071 H 
ENDBRANCH  33  34
BRANCH  33  38
ATOM     38  C31 IAQ d   1      -8.632   5.262  18.269  0.00  0.00     0.095 C 
ATOM     39  H   IAQ d   1      -7.724   5.587  17.760  0.00  0.00     0.071 H 
ATOM     40  H   IAQ d   1      -9.450   5.939  18.024  0.00  0.00     0.071 H 
ATOM     41  H   IAQ d   1      -8.467   5.265  19.346  0.00  0.00     0.071 H 
ENDBRANCH  33  38
ENDBRANCH  30  33
ENDBRANCH  27  30
ENDBRANCH  20  26
ENDBRANCH   4  19
BRANCH  14  42
ATOM     42  N8  IAQ d   1      -3.793   3.997   8.480  0.00  0.00    -0.339 N 
ATOM     43  H   IAQ d   1      -3.571   3.430   7.662  0.00  0.00     0.167 HD
BRANCH  42  44
ATOM     44  C2  IAQ d   1      -2.903   4.964   8.823  0.00  0.00     0.039 A 
ATOM     45  C3  IAQ d   1      -2.846   6.150   8.092  0.00  0.00    -0.035 A 
ATOM     46  C4  IAQ d   1      -1.921   7.139   8.449  0.00  0.00    -0.075 A 
ATOM     47  C5  IAQ d   1      -1.054   6.914   9.517  0.00  0.00    -0.082 A 
ATOM     48  H   IAQ d   1      -1.879   8.077   7.896  0.00  0.00     0.084 H 
ATOM     49  C6  IAQ d   1      -1.105   5.720  10.230  0.00  0.00    -0.081 A 
ATOM     50  H   IAQ d   1      -0.330   7.680   9.796  0.00  0.00     0.083 H 
ATOM     51  C1  IAQ d   1      -2.033   4.733   9.893  0.00  0.00    -0.057 A 
ATOM     52  H   IAQ d   1      -0.415   5.554  11.058  0.00  0.00     0.083 H 
ATOM     53  H   IAQ d   1      -2.079   3.799  10.454  0.00  0.00     0.086 H 
BRANCH  45  54
ATOM     54  C7  IAQ d   1      -3.787   6.400   6.933  0.00  0.00    -0.049 C 
ATOM     55  H   IAQ d   1      -3.642   5.629   6.176  0.00  0.00     0.033 H 
ATOM     56  H   IAQ d   1      -4.816   6.372   7.290  0.00  0.00     0.033 H 
ATOM     57  H   IAQ d   1      -3.578   7.379   6.501  0.00  0.00     0.033 H 
ENDBRANCH  45  54
ENDBRANCH  42  44
ENDBRANCH  14  42
TORSDOF 10
