REMARK  5 active torsions:
REMARK  status: ('A' for Active; 'I' for Inactive)
REMARK    1  A    between atoms: C_1  and  C6_10 
REMARK    2  A    between atoms: C22_26  and  N_2 
REMARK    3  A    between atoms: C4_8  and  O_3 
REMARK    4  A    between atoms: O_3  and  C5_9 
REMARK    5  A    between atoms: C13_17  and  C22_26 
ROOT
ATOM      1 CL   M06 d   1      10.225  15.873  20.546  0.00  0.00    -0.084 Cl
ATOM      2  C5  M06 d   1      10.360  12.191  19.151  0.00  0.00     0.073 A 
ATOM      3  C7  M06 d   1      10.104  11.369  20.257  0.00  0.00    -0.031 A 
ATOM      4  C8  M06 d   1       9.916  11.971  21.502  0.00  0.00     0.049 A 
ATOM      5  C9  M06 d   1       9.946  13.405  21.665  0.00  0.00    -0.042 A 
ATOM      6  C10 M06 d   1      10.185  14.181  20.487  0.00  0.00     0.038 A 
ATOM      7  C11 M06 d   1      10.402  13.583  19.226  0.00  0.00    -0.030 A 
ATOM      8  C23 M06 d   1       9.683  11.146  22.600  0.00  0.00     0.099 C 
ATOM      9  N24 M06 d   1       9.495  10.475  23.492  0.00  0.00    -0.191 NA
ATOM     10  H   M06 d   1      10.053  10.286  20.147  0.00  0.00     0.090 H 
ATOM     11  H   M06 d   1       9.794  13.873  22.637  0.00  0.00     0.088 H 
ATOM     12  H   M06 d   1      10.596  14.189  18.341  0.00  0.00     0.090 H 
ENDROOT
BRANCH   2  13
ATOM     13  O   M06 d   1      10.601  11.528  17.994  0.00  0.00    -0.332 OA
BRANCH  13  14
ATOM     14  C4  M06 d   1      10.044  11.913  16.801  0.00  0.00     0.143 A 
ATOM     15  C   M06 d   1      10.892  12.274  15.808  0.00  0.00    -0.048 A 
ATOM     16  C1  M06 d   1      10.326  12.732  14.560  0.00  0.00    -0.081 A 
ATOM     17  C2  M06 d   1       8.973  12.760  14.394  0.00  0.00     0.013 A 
ATOM     18  H   M06 d   1      10.981  13.055  13.751  0.00  0.00     0.079 H 
ATOM     19  N   M06 d   1       8.065  12.424  15.374  0.00  0.00    -0.341 N 
ATOM     20  H   M06 d   1       8.774  13.820  14.238  0.00  0.00     0.070 H 
ATOM     21  H   M06 d   1       8.809  11.988  13.642  0.00  0.00     0.070 H 
ATOM     22  C3  M06 d   1       8.507  11.954  16.647  0.00  0.00     0.254 A 
ATOM     23  O12 M06 d   1       7.748  11.594  17.580  0.00  0.00    -0.270 OA
ATOM     24  H   M06 d   1       9.291  11.664  16.053  0.00  0.00     0.106 H 
BRANCH  15  25
ATOM     25  C6  M06 d   1      12.396  12.256  15.891  0.00  0.00    -0.052 C 
ATOM     26  H   M06 d   1      12.793  11.596  15.120  0.00  0.00     0.033 H 
ATOM     27  H   M06 d   1      12.779  13.265  15.739  0.00  0.00     0.033 H 
ATOM     28  H   M06 d   1      12.700  11.894  16.873  0.00  0.00     0.033 H 
ENDBRANCH  15  25
BRANCH  19  29
ATOM     29  C22 M06 d   1       6.615  12.479  15.024  0.00  0.00     0.038 C 
ATOM     30  H   M06 d   1       6.329  13.290  14.354  0.00  0.00     0.074 H 
ATOM     31  H   M06 d   1       5.945  12.712  15.852  0.00  0.00     0.074 H 
BRANCH  29  32
ATOM     32  C13 M06 d   1       6.472  11.082  14.448  0.00  0.00     0.060 A 
ATOM     33  N14 M06 d   1       6.757  10.812  13.126  0.00  0.00    -0.278 N 
ATOM     34  N15 M06 d   1       6.579   9.478  13.021  0.00  0.00    -0.154 NA
ATOM     35  H   M06 d   1       7.037  11.468  12.397  0.00  0.00     0.189 HD
ATOM     36  C16 M06 d   1       6.221   8.877  14.193  0.00  0.00     0.181 A 
ATOM     37  C17 M06 d   1       6.131   9.890  15.174  0.00  0.00     0.039 A 
ATOM     38  N18 M06 d   1       5.994   7.566  14.401  0.00  0.00    -0.239 NA
ATOM     39  C21 M06 d   1       5.769   9.506  16.526  0.00  0.00    -0.066 A 
ATOM     40  C20 M06 d   1       5.527   8.144  16.823  0.00  0.00    -0.065 A 
ATOM     41  H   M06 d   1       5.684  10.261  17.307  0.00  0.00     0.085 H 
ATOM     42  C19 M06 d   1       5.682   7.251  15.735  0.00  0.00     0.005 A 
ATOM     43  H   M06 d   1       5.241   7.806  17.819  0.00  0.00     0.085 H 
ATOM     44  H   M06 d   1       5.543   6.193  15.959  0.00  0.00     0.114 H 
ENDBRANCH  29  32
ENDBRANCH  19  29
ENDBRANCH  13  14
ENDBRANCH   2  13
TORSDOF 5
