REMARK  9 active torsions:
REMARK  status: ('A' for Active; 'I' for Inactive)
REMARK    1  A    between atoms: O5_12  and  P_2 
REMARK    2  A    between atoms: C2_5  and  C1_3 
REMARK    3  A    between atoms: C4_9  and  O1_4 
REMARK    4  A    between atoms: C21_30  and  O3_8 
REMARK    5  A    between atoms: C23_32  and  O5_12 
REMARK    6  A    between atoms: C7_14  and  C8_16 
REMARK    7  A    between atoms: C19_28  and  C20_29 
REMARK    8  A    between atoms: C22_31  and  C21_30 
REMARK    9  A    between atoms: C22_31  and  C23_32 
ROOT
ATOM      1  F   3T5 d   1      37.966 -11.460  16.010  0.00  0.00    -0.238 F 
ATOM      2  C2  3T5 d   1      38.288 -14.862  15.401  0.00  0.00     0.001 C 
ATOM      3  O2  3T5 d   1      37.088  -7.482  18.600  0.00  0.00    -0.289 OA
ATOM      4  C3  3T5 d   1      39.466 -14.028  15.944  0.00  0.00    -0.028 C 
ATOM      5  C4  3T5 d   1      39.035 -13.185  17.178  0.00  0.00     0.072 C 
ATOM      6  C5  3T5 d   1      37.730 -12.365  16.959  0.00  0.00     0.147 C 
ATOM      7  C7  3T5 d   1      37.292 -11.589  18.221  0.00  0.00     0.036 A 
ATOM      8  C9  3T5 d   1      38.341 -10.790  18.680  0.00  0.00    -0.084 A 
ATOM      9  C10 3T5 d   1      38.258  -9.406  18.811  0.00  0.00    -0.037 A 
ATOM     10  C11 3T5 d   1      37.111  -8.705  18.460  0.00  0.00     0.172 A 
ATOM     11  C12 3T5 d   1      36.002  -9.387  17.969  0.00  0.00    -0.031 A 
ATOM     12  C13 3T5 d   1      36.050 -10.775  17.840  0.00  0.00    -0.061 A 
ATOM     13  C14 3T5 d   1      34.863 -11.555  17.282  0.00  0.00    -0.043 C 
ATOM     14  C15 3T5 d   1      35.324 -12.417  16.092  0.00  0.00    -0.055 C 
ATOM     15  C16 3T5 d   1      36.589 -13.245  16.400  0.00  0.00    -0.011 C 
ATOM     16  C17 3T5 d   1      37.098 -13.952  15.139  0.00  0.00    -0.037 C 
ATOM     17  C18 3T5 d   1      36.120 -14.865  14.400  0.00  0.00    -0.054 C 
ATOM     18  C19 3T5 d   1      37.051 -15.719  13.512  0.00  0.00    -0.020 C 
ATOM     19  C21 3T5 d   1      38.496 -15.398  13.972  0.00  0.00     0.131 C 
ATOM     20  H   3T5 d   1      39.804 -13.350  15.160  0.00  0.00     0.038 H 
ATOM     21  H   3T5 d   1      40.263 -14.707  16.247  0.00  0.00     0.038 H 
ATOM     22  H   3T5 d   1      39.813 -12.438  17.336  0.00  0.00     0.088 H 
ATOM     23  H   3T5 d   1      39.278 -11.277  18.951  0.00  0.00     0.078 H 
ATOM     24  H   3T5 d   1      39.116  -8.858  19.200  0.00  0.00     0.089 H 
ATOM     25  H   3T5 d   1      35.102  -8.840  17.687  0.00  0.00     0.090 H 
ATOM     26  H   3T5 d   1      34.096 -10.857  16.947  0.00  0.00     0.039 H 
ATOM     27  H   3T5 d   1      34.456 -12.200  18.060  0.00  0.00     0.039 H 
ATOM     28  H   3T5 d   1      35.560 -11.745  15.267  0.00  0.00     0.034 H 
ATOM     29  H   3T5 d   1      34.520 -13.115  15.857  0.00  0.00     0.034 H 
ATOM     30  H   3T5 d   1      36.304 -13.980  17.153  0.00  0.00     0.045 H 
ATOM     31  H   3T5 d   1      37.324 -13.077  14.530  0.00  0.00     0.042 H 
ATOM     32  H   3T5 d   1      35.376 -14.313  13.826  0.00  0.00     0.034 H 
ATOM     33  H   3T5 d   1      35.509 -15.466  15.074  0.00  0.00     0.034 H 
ATOM     34  H   3T5 d   1      36.839 -16.783  13.621  0.00  0.00     0.044 H 
ENDROOT
BRANCH  19  35
ATOM     35  O3  3T5 d   1      39.086 -14.391  13.132  0.00  0.00    -0.381 OA
ATOM     36  H   3T5 d   1      39.207 -14.744  12.248  0.00  0.00     0.211 HD
ENDBRANCH  19  35
BRANCH  19  37
ATOM     37  C22 3T5 d   1      39.402 -16.643  13.927  0.00  0.00     0.186 C 
ATOM     38  O4  3T5 d   1      38.932 -17.781  13.973  0.00  0.00    -0.292 OA
BRANCH  37  39
ATOM     39  C23 3T5 d   1      40.917 -16.435  13.788  0.00  0.00     0.090 C 
ATOM     40  H   3T5 d   1      41.102 -15.962  12.823  0.00  0.00     0.087 H 
ATOM     41  H   3T5 d   1      41.249 -15.824  14.627  0.00  0.00     0.087 H 
BRANCH  39  42
ATOM     42  O5  3T5 d   1      41.654 -17.671  13.823  0.00  0.00    -0.275 OA
BRANCH  42  43
ATOM     43  P   3T5 d   1      43.190 -17.743  13.227  0.00  0.00     0.422 P 
ATOM     44  O6  3T5 d   1      43.079 -17.794  11.627  0.00  0.00    -0.617 OA
ATOM     45  O7  3T5 d   1      43.836 -16.318  13.607  0.00  0.00    -0.617 OA
ATOM     46  O8  3T5 d   1      43.951 -18.898  13.755  0.00  0.00    -0.617 OA
ENDBRANCH  42  43
ENDBRANCH  39  42
ENDBRANCH  37  39
ENDBRANCH  19  37
BRANCH   2  47
ATOM     47  C1  3T5 d   1      37.935 -16.004  16.366  0.00  0.00    -0.065 C 
ATOM     48  H   3T5 d   1      38.800 -16.656  16.488  0.00  0.00     0.028 H 
ATOM     49  H   3T5 d   1      37.654 -15.587  17.333  0.00  0.00     0.028 H 
ATOM     50  H   3T5 d   1      37.101 -16.577  15.960  0.00  0.00     0.028 H 
ENDBRANCH   2  47
BRANCH  18  51
ATOM     51  C20 3T5 d   1      36.839 -15.412  12.021  0.00  0.00    -0.070 C 
ATOM     52  H   3T5 d   1      35.806 -15.629  11.750  0.00  0.00     0.028 H 
ATOM     53  H   3T5 d   1      37.051 -14.359  11.834  0.00  0.00     0.028 H 
ATOM     54  H   3T5 d   1      37.510 -16.030  11.425  0.00  0.00     0.028 H 
ENDBRANCH  18  51
BRANCH   5  55
ATOM     55  O1  3T5 d   1      38.941 -14.030  18.340  0.00  0.00    -0.392 OA
ATOM     56  H   3T5 d   1      38.675 -13.503  19.097  0.00  0.00     0.210 HD
ENDBRANCH   5  55
BRANCH   7  57
ATOM     57  C8  3T5 d   1      36.880 -12.507  19.379  0.00  0.00    -0.059 C 
ATOM     58  H   3T5 d   1      36.042 -13.130  19.066  0.00  0.00     0.029 H 
ATOM     59  H   3T5 d   1      37.722 -13.141  19.656  0.00  0.00     0.029 H 
ATOM     60  H   3T5 d   1      36.584 -11.900  20.234  0.00  0.00     0.029 H 
ENDBRANCH   7  57
TORSDOF 9
