REMARK  9 active torsions:
REMARK  status: ('A' for Active; 'I' for Inactive)
REMARK    1  A    between atoms: C32_23  and  C01_4 
REMARK    2  A    between atoms: N01_5  and  C02_6 
REMARK    3  A    between atoms: C25_18  and  N01_5 
REMARK    4  A    between atoms: C02_6  and  C03_8 
REMARK    5  A    between atoms: N02_7  and  C32_23 
REMARK    6  A    between atoms: C03_8  and  C04_9 
REMARK    7  A    between atoms: C04_9  and  C05_10 
REMARK    8  A    between atoms: C31_22  and  C06_11 
REMARK    9  A    between atoms: C37_27  and  N39_29 
ROOT
ATOM      1  N   CKJ d   1       4.191 -17.269  15.715  0.00  0.00    -0.169 NA
ATOM      2  N02 CKJ d   1       4.551 -17.705  16.985  0.00  0.00    -0.250 N 
ATOM      3  C23 CKJ d   1       2.047 -20.118  16.468  0.00  0.00     0.037 A 
ATOM      4  N24 CKJ d   1       2.079 -20.834  17.607  0.00  0.00    -0.074 NA
ATOM      5  C25 CKJ d   1       2.943 -20.558  18.604  0.00  0.00     0.724 A 
ATOM      6  N26 CKJ d   1       3.811 -19.528  18.483  0.00  0.00    -0.043 NA
ATOM      7  C27 CKJ d   1       2.931 -19.055  16.333  0.00  0.00     0.061 A 
ATOM      8  C28 CKJ d   1       3.769 -18.782  17.310  0.00  0.00     0.179 A 
ATOM      9  C31 CKJ d   1       3.181 -18.110  15.317  0.00  0.00     0.103 A 
ATOM     10  H   CKJ d   1       1.345 -20.366  15.672  0.00  0.00     0.117 H 
ENDROOT
BRANCH   2  11
ATOM     11  C32 CKJ d   1       5.586 -17.108  17.827  0.00  0.00     0.022 C 
ATOM     12  H   CKJ d   1       5.841 -17.797  18.632  0.00  0.00     0.068 H 
ATOM     13  H   CKJ d   1       6.472 -16.907  17.225  0.00  0.00     0.068 H 
BRANCH  11  14
ATOM     14  C01 CKJ d   1       5.068 -15.799  18.423  0.00  0.00    -0.036 C 
ATOM     15  C33 CKJ d   1       3.735 -15.977  19.166  0.00  0.00    -0.058 C 
ATOM     16  C38 CKJ d   1       3.249 -14.665  19.802  0.00  0.00    -0.038 C 
ATOM     17  H   CKJ d   1       3.884 -16.706  19.962  0.00  0.00     0.033 H 
ATOM     18  H   CKJ d   1       2.985 -16.304  18.446  0.00  0.00     0.033 H 
ATOM     19  C37 CKJ d   1       4.310 -14.026  20.713  0.00  0.00     0.100 C 
ATOM     20  H   CKJ d   1       2.373 -14.890  20.411  0.00  0.00     0.036 H 
ATOM     21  H   CKJ d   1       3.028 -13.963  18.998  0.00  0.00     0.036 H 
ATOM     22  C36 CKJ d   1       5.661 -13.915  19.998  0.00  0.00    -0.038 C 
ATOM     23  H   CKJ d   1       4.404 -14.671  21.587  0.00  0.00     0.083 H 
ATOM     24  C35 CKJ d   1       6.108 -15.252  19.399  0.00  0.00    -0.058 C 
ATOM     25  H   CKJ d   1       5.557 -13.196  19.185  0.00  0.00     0.036 H 
ATOM     26  H   CKJ d   1       6.407 -13.603  20.729  0.00  0.00     0.036 H 
ATOM     27  H   CKJ d   1       7.042 -15.095  18.859  0.00  0.00     0.033 H 
ATOM     28  H   CKJ d   1       6.234 -15.970  20.209  0.00  0.00     0.033 H 
ATOM     29  H   CKJ d   1       4.897 -15.108  17.598  0.00  0.00     0.042 H 
BRANCH  19  30
ATOM     30  N39 CKJ d   1       3.911 -12.691  21.115  0.00  0.00    -0.075 N 
ATOM     31  H   CKJ d   1       3.012 -12.736  21.595  0.00  0.00     0.274 HD
ATOM     32  H   CKJ d   1       4.614 -12.302  21.743  0.00  0.00     0.274 HD
ATOM     33  H   CKJ d   1       3.827 -12.099  20.288  0.00  0.00     0.274 HD
ENDBRANCH  19  30
ENDBRANCH  11  14
ENDBRANCH   2  11
BRANCH   9  34
ATOM     34  C06 CKJ d   1       2.500 -17.976  13.994  0.00  0.00    -0.004 A 
ATOM     35  C   CKJ d   1       3.203 -17.363  12.952  0.00  0.00    -0.068 A 
ATOM     36  C10 CKJ d   1       2.620 -17.206  11.699  0.00  0.00    -0.045 A 
ATOM     37  H   CKJ d   1       4.218 -17.005  13.123  0.00  0.00     0.085 H 
ATOM     38  C09 CKJ d   1       1.321 -17.654  11.494  0.00  0.00     0.116 A 
ATOM     39  H   CKJ d   1       3.176 -16.737  10.887  0.00  0.00     0.088 H 
ATOM     40  F   CKJ d   1       0.758 -17.499  10.284  0.00  0.00    -0.206 F 
ATOM     41  C08 CKJ d   1       0.611 -18.266  12.534  0.00  0.00    -0.045 A 
ATOM     42  C07 CKJ d   1       1.195 -18.426  13.789  0.00  0.00    -0.068 A 
ATOM     43  H   CKJ d   1      -0.405 -18.620  12.361  0.00  0.00     0.088 H 
ATOM     44  H   CKJ d   1       0.640 -18.897  14.600  0.00  0.00     0.085 H 
ENDBRANCH   9  34
BRANCH   5  45
ATOM     45  N01 CKJ d   1       2.944 -21.291  19.740  0.00  0.00    -0.222 N 
ATOM     46  H   CKJ d   1       2.360 -22.125  19.799  0.00  0.00     0.177 HD
BRANCH  45  47
ATOM     47  C02 CKJ d   1       3.764 -20.911  20.881  0.00  0.00     0.009 C 
ATOM     48  H   CKJ d   1       4.791 -20.848  20.523  0.00  0.00     0.064 H 
ATOM     49  H   CKJ d   1       3.591 -21.658  21.655  0.00  0.00     0.064 H 
BRANCH  47  50
ATOM     50  C03 CKJ d   1       3.427 -19.553  21.496  0.00  0.00    -0.050 C 
ATOM     51  H   CKJ d   1       2.390 -19.572  21.832  0.00  0.00     0.035 H 
ATOM     52  H   CKJ d   1       3.585 -18.782  20.742  0.00  0.00     0.035 H 
BRANCH  50  53
ATOM     53  C04 CKJ d   1       4.320 -19.250  22.695  0.00  0.00    -0.067 C 
ATOM     54  H   CKJ d   1       4.527 -20.187  23.212  0.00  0.00     0.032 H 
ATOM     55  H   CKJ d   1       3.801 -18.538  23.336  0.00  0.00     0.032 H 
BRANCH  53  56
ATOM     56  C05 CKJ d   1       5.638 -18.638  22.277  0.00  0.00    -0.076 C 
ATOM     57  H   CKJ d   1       6.168 -19.331  21.623  0.00  0.00     0.027 H 
ATOM     58  H   CKJ d   1       5.452 -17.705  21.745  0.00  0.00     0.027 H 
ATOM     59  H   CKJ d   1       6.242 -18.439  23.162  0.00  0.00     0.027 H 
ENDBRANCH  53  56
ENDBRANCH  50  53
ENDBRANCH  47  50
ENDBRANCH  45  47
ENDBRANCH   5  45
TORSDOF 9
