REMARK  2 active torsions:
REMARK  status: ('A' for Active; 'I' for Inactive)
REMARK    1  A    between atoms: CAP_14  and  CAM_11 
REMARK    2  A    between atoms: CAQ_15  and  CAR_16 
ROOT
ATOM      1  CAE 3MI d   1      -0.063   0.402  -1.821  0.00  0.00    -0.064 A 
ATOM      2  CAF 3MI d   1      -0.538   1.035  -2.958  0.00  0.00    -0.051 A 
ATOM      3  CAJ 3MI d   1       1.098  -1.275  -3.155  0.00  0.00    -0.031 A 
ATOM      4  NAK 3MI d   1      -0.538   0.883  -5.433  0.00  0.00    -0.221 NA
ATOM      5  OAL 3MI d   1       0.690  -0.951  -5.604  0.00  0.00    -0.289 OA
ATOM      6  CAP 3MI d   1       0.764  -0.708  -1.913  0.00  0.00     0.043 A 
ATOM      7  CAR 3MI d   1      -0.003   0.011  -6.293  0.00  0.00     0.181 A 
ATOM      8  CAS 3MI d   1      -0.227   0.489  -4.190  0.00  0.00     0.093 A 
ATOM      9  CAT 3MI d   1       0.581  -0.643  -4.279  0.00  0.00     0.107 A 
ATOM     10  H1  3MI d   1      -0.342   0.780  -0.844  0.00  0.00     0.085 H 
ATOM     11  H2  3MI d   1      -1.138   1.935  -2.884  0.00  0.00     0.087 H 
ATOM     12  H6  3MI d   1       1.724  -2.156  -3.232  0.00  0.00     0.089 H 
ENDROOT
BRANCH   7  13
ATOM     13  CAQ 3MI d   1      -0.046   0.003  -7.695  0.00  0.00     0.020 A 
ATOM     14  CAH 3MI d   1      -0.397   1.170  -8.364  0.00  0.00    -0.048 A 
ATOM     15  CAN 3MI d   1      -0.415   1.130  -9.730  0.00  0.00     0.036 A 
ATOM     16  H4  3MI d   1      -0.647   2.076  -7.824  0.00  0.00     0.087 H 
ATOM     17  CAG 3MI d   1      -0.070  -0.025 -10.408  0.00  0.00    -0.041 A 
ATOM     18 CLC  3MI d   1      -0.825   2.539 -10.617  0.00  0.00    -0.084 Cl
ATOM     19  CAO 3MI d   1       0.288  -1.165  -9.717  0.00  0.00     0.036 A 
ATOM     20  H3  3MI d   1      -0.081  -0.035 -11.492  0.00  0.00     0.088 H 
ATOM     21  CAI 3MI d   1       0.305  -1.173  -8.351  0.00  0.00    -0.048 A 
ATOM     22 CLD  3MI d   1       0.692  -2.593 -10.576  0.00  0.00    -0.084 Cl
ATOM     23  H5  3MI d   1       0.582  -2.063  -7.798  0.00  0.00     0.087 H 
ENDBRANCH   7  13
BRANCH   6  24
ATOM     24  CAM 3MI d   1       1.251  -1.333  -0.604  0.00  0.00     0.209 C 
ATOM     25  OAA 3MI d   1       0.610  -1.036   0.433  0.00  0.00    -0.644 OA
ATOM     26  OAB 3MI d   1       2.253  -2.074  -0.634  0.00  0.00    -0.644 OA
ENDBRANCH   6  24
TORSDOF 2
