REMARK  4 active torsions:
REMARK  status: ('A' for Active; 'I' for Inactive)
REMARK    1  A    between atoms: N_1  and  CA_2 
REMARK    2  A    between atoms: CA_2  and  C_3 
REMARK    3  A    between atoms: CA_2  and  CB_5 
REMARK    4  A    between atoms: CB_5  and  CG_6 
ROOT
ATOM      1  CB  PHE d   1       5.963  -8.237 -14.673  0.00  0.00    -0.005 C 
ATOM      2  H5  PHE d   1       6.926  -8.302 -14.145  0.00  0.00     0.044 H 
ATOM      3  H6  PHE d   1       5.522  -9.241 -14.756  0.00  0.00     0.044 H 
ENDROOT
BRANCH   1   4
ATOM      4  CA  PHE d   1       6.207  -7.685 -16.083  0.00  0.00     0.186 C 
ATOM      5  H4  PHE d   1       6.336  -6.594 -16.020  0.00  0.00     0.101 H 
BRANCH   4   6
ATOM      6  N   PHE d   1       5.073  -7.954 -16.972  0.00  0.00    -0.065 N 
ATOM      7  H1  PHE d   1       4.241  -7.530 -16.593  0.00  0.00     0.275 HD
ATOM      8  H2  PHE d   1       4.937  -8.950 -17.051  0.00  0.00     0.275 HD
ATOM      9  H3  PHE d   1       5.261  -7.567 -17.884  0.00  0.00     0.275 HD
ENDBRANCH   4   6
BRANCH   4  10
ATOM     10  C   PHE d   1       7.487  -8.294 -16.595  0.00  0.00     0.204 C 
ATOM     11  O   PHE d   1       7.598  -8.597 -17.785  0.00  0.00    -0.646 OA
ATOM     12  OXT PHE d   1       8.428  -8.448 -15.794  0.00  0.00    -0.646 OA
ENDBRANCH   4  10
ENDBRANCH   1   4
BRANCH   1  13
ATOM     13  CG  PHE d   1       5.031  -7.360 -13.879  0.00  0.00    -0.056 A 
ATOM     14  CD1 PHE d   1       5.501  -6.168 -13.307  0.00  0.00    -0.077 A 
ATOM     15  CE1 PHE d   1       4.608  -5.369 -12.575  0.00  0.00    -0.082 A 
ATOM     16  H7  PHE d   1       6.536  -5.869 -13.428  0.00  0.00     0.084 H 
ATOM     17  CZ  PHE d   1       3.287  -5.772 -12.423  0.00  0.00    -0.083 A 
ATOM     18  H9  PHE d   1       4.948  -4.441 -12.130  0.00  0.00     0.083 H 
ATOM     19  CE2 PHE d   1       2.833  -6.968 -12.974  0.00  0.00    -0.082 A 
ATOM     20  H11 PHE d   1       2.599  -5.146 -11.867  0.00  0.00     0.083 H 
ATOM     21  CD2 PHE d   1       3.710  -7.769 -13.704  0.00  0.00    -0.077 A 
ATOM     22  H10 PHE d   1       1.802  -7.275 -12.836  0.00  0.00     0.083 H 
ATOM     23  H8  PHE d   1       3.367  -8.704 -14.133  0.00  0.00     0.084 H 
ENDBRANCH   1  13
TORSDOF 4
