REMARK  7 active torsions:
REMARK  status: ('A' for Active; 'I' for Inactive)
REMARK    1  A    between atoms: C8_8  and  N9_9 
REMARK       I    between atoms: N9_9  and  C10_10 
REMARK       I    between atoms: C10_10  and  N11_12 
REMARK    2  A    between atoms: N11_12  and  C35_35 
REMARK    3  A    between atoms: C14_13  and  C15_14 
REMARK       I    between atoms: C15_14  and  N15_15 
REMARK    4  A    between atoms: C20_21  and  N20_22 
REMARK    5  A    between atoms: C29_32  and  C30_33 
REMARK    6  A    between atoms: C29_32  and  C31_34 
REMARK    7  A    between atoms: C35_35  and  C36_36 
ROOT
ATOM      1  C15 0EU d   1      34.518  63.048  47.242  0.00  0.00     0.257 C 
ATOM      2  N15 0EU d   1      34.203  62.671  48.490  0.00  0.00    -0.348 N 
ATOM      3  O15 0EU d   1      33.790  63.785  46.584  0.00  0.00    -0.267 OA
ATOM      4  C16 0EU d   1      32.961  63.115  49.135  0.00  0.00    -0.000 C 
ATOM      5  C17 0EU d   1      33.399  63.940  50.342  0.00  0.00    -0.021 C 
ATOM      6  C18 0EU d   1      35.040  61.777  49.295  0.00  0.00    -0.000 C 
ATOM      7  C19 0EU d   1      35.388  62.490  50.600  0.00  0.00    -0.021 C 
ATOM      8  C20 0EU d   1      34.173  63.071  51.329  0.00  0.00     0.138 C 
ATOM      9  H   0EU d   1      32.342  62.269  49.434  0.00  0.00     0.064 H 
ATOM     10  H   0EU d   1      32.345  63.702  48.453  0.00  0.00     0.064 H 
ATOM     11  H   0EU d   1      32.515  64.339  50.839  0.00  0.00     0.038 H 
ATOM     12  H   0EU d   1      34.043  64.751  50.002  0.00  0.00     0.038 H 
ATOM     13  H   0EU d   1      35.951  61.528  48.751  0.00  0.00     0.064 H 
ATOM     14  H   0EU d   1      34.503  60.852  49.506  0.00  0.00     0.064 H 
ATOM     15  H   0EU d   1      36.046  63.322  50.350  0.00  0.00     0.038 H 
ATOM     16  H   0EU d   1      35.843  61.753  51.262  0.00  0.00     0.038 H 
ATOM     17  H   0EU d   1      33.543  62.264  51.703  0.00  0.00     0.088 H 
ENDROOT
BRANCH   8  18
ATOM     18  N20 0EU d   1      34.612  63.895  52.481  0.00  0.00     0.094 N 
ATOM     19  C21 0EU d   1      33.449  64.524  53.154  0.00  0.00     0.114 C 
ATOM     20  C22 0EU d   1      33.900  65.419  54.303  0.00  0.00    -0.039 C 
ATOM     21  H   0EU d   1      32.809  63.737  53.554  0.00  0.00     0.079 H 
ATOM     22  H   0EU d   1      32.912  65.133  52.427  0.00  0.00     0.079 H 
ATOM     23  C23 0EU d   1      34.740  64.630  55.314  0.00  0.00    -0.046 C 
ATOM     24  H   0EU d   1      33.018  65.810  54.810  0.00  0.00     0.035 H 
ATOM     25  H   0EU d   1      34.507  66.229  53.899  0.00  0.00     0.035 H 
ATOM     26  C25 0EU d   1      35.903  63.894  54.634  0.00  0.00     0.077 C 
ATOM     27  H   0EU d   1      34.097  63.890  55.791  0.00  0.00     0.035 H 
ATOM     28  H   0EU d   1      35.154  65.332  56.038  0.00  0.00     0.035 H 
ATOM     29  C24 0EU d   1      35.445  63.093  53.411  0.00  0.00     0.130 C 
ATOM     30  C26 0EU d   1      36.562  62.954  55.599  0.00  0.00     0.270 C 
ATOM     31  C28 0EU d   1      37.023  64.884  54.339  0.00  0.00    -0.019 C 
ATOM     32  H   0EU d   1      36.334  62.770  52.870  0.00  0.00     0.081 H 
ATOM     33  H   0EU d   1      34.842  62.257  53.765  0.00  0.00     0.081 H 
ATOM     34  O26 0EU d   1      36.092  61.907  56.026  0.00  0.00    -0.264 OA
ATOM     35  O27 0EU d   1      37.871  63.411  55.978  0.00  0.00    -0.310 OA
ATOM     36  C29 0EU d   1      38.132  64.676  55.382  0.00  0.00     0.065 C 
ATOM     37  H   0EU d   1      36.645  65.905  54.391  0.00  0.00     0.039 H 
ATOM     38  H   0EU d   1      37.416  64.719  53.336  0.00  0.00     0.039 H 
BRANCH  36  39
ATOM     39  C30 0EU d   1      38.055  65.746  56.473  0.00  0.00    -0.047 C 
ATOM     40  H   0EU d   1      37.059  65.740  56.917  0.00  0.00     0.031 H 
ATOM     41  H   0EU d   1      38.798  65.534  57.242  0.00  0.00     0.031 H 
ATOM     42  H   0EU d   1      38.253  66.724  56.035  0.00  0.00     0.031 H 
ENDBRANCH  36  39
BRANCH  36  43
ATOM     43  C31 0EU d   1      39.513  64.633  54.723  0.00  0.00    -0.047 C 
ATOM     44  H   0EU d   1      40.268  64.416  55.479  0.00  0.00     0.031 H 
ATOM     45  H   0EU d   1      39.526  63.854  53.961  0.00  0.00     0.031 H 
ATOM     46  H   0EU d   1      39.724  65.598  54.262  0.00  0.00     0.031 H 
ENDBRANCH  36  43
ENDBRANCH   8  18
BRANCH   1  47
ATOM     47  C14 0EU d   1      35.782  62.570  46.602  0.00  0.00     0.077 A 
ATOM     48  C1  0EU d   1      35.937  61.244  46.150  0.00  0.00    -0.001 A 
ATOM     49  C2  0EU d   1      35.059  60.146  46.188  0.00  0.00    -0.071 A 
ATOM     50  C6  0EU d   1      37.217  61.112  45.593  0.00  0.00     0.018 A 
ATOM     51  C3  0EU d   1      35.473  58.906  45.672  0.00  0.00    -0.082 A 
ATOM     52  H   0EU d   1      34.062  60.256  46.615  0.00  0.00     0.084 H 
ATOM     53  C4  0EU d   1      36.767  58.771  45.112  0.00  0.00    -0.082 A 
ATOM     54  H   0EU d   1      34.799  58.050  45.703  0.00  0.00     0.083 H 
ATOM     55  C5  0EU d   1      37.635  59.874  45.074  0.00  0.00    -0.066 A 
ATOM     56  H   0EU d   1      37.089  57.810  44.710  0.00  0.00     0.083 H 
ATOM     57  H   0EU d   1      38.631  59.771  44.643  0.00  0.00     0.085 H 
ATOM     58  S7  0EU d   1      38.244  62.471  45.561  0.00  0.00    -0.071 SA
ATOM     59  C8  0EU d   1      36.979  63.384  46.337  0.00  0.00     0.095 A 
BRANCH  59  60
ATOM     60  N9  0EU d   1      37.077  64.711  46.678  0.00  0.00    -0.302 N 
ATOM     61  C10 0EU d   1      38.172  65.429  46.382  0.00  0.00     0.321 C 
ATOM     62  O10 0EU d   1      39.121  64.924  45.808  0.00  0.00    -0.247 OA
ATOM     63  N11 0EU d   1      38.243  66.716  46.717  0.00  0.00    -0.343 N 
ATOM     64  H   0EU d   1      37.438  67.119  47.197  0.00  0.00     0.164 HD
ATOM     65  H   0EU d   1      36.302  65.160  47.166  0.00  0.00     0.171 HD
BRANCH  63  66
ATOM     66  C35 0EU d   1      39.377  67.598  46.455  0.00  0.00    -0.006 C 
ATOM     67  H   0EU d   1      39.379  67.863  45.398  0.00  0.00     0.063 H 
ATOM     68  H   0EU d   1      40.296  67.079  46.726  0.00  0.00     0.063 H 
BRANCH  66  69
ATOM     69  C36 0EU d   1      39.273  68.866  47.275  0.00  0.00    -0.061 C 
ATOM     70  H   0EU d   1      38.353  69.390  47.017  0.00  0.00     0.029 H 
ATOM     71  H   0EU d   1      39.263  68.612  48.335  0.00  0.00     0.029 H 
ATOM     72  H   0EU d   1      40.129  69.506  47.062  0.00  0.00     0.029 H 
ENDBRANCH  66  69
ENDBRANCH  63  66
ENDBRANCH  59  60
ENDBRANCH   1  47
TORSDOF 7
