REMARK  6 active torsions:
REMARK  status: ('A' for Active; 'I' for Inactive)
REMARK    1  A    between atoms: P_1  and  O5'_5 
REMARK    2  A    between atoms: O5'_5  and  C5'_6 
REMARK    3  A    between atoms: C5'_6  and  C4'_7 
REMARK    4  A    between atoms: C3'_9  and  O3'_10 
REMARK    5  A    between atoms: C2'_11  and  O2'_12 
REMARK    6  A    between atoms: C1'_13  and  N9_14 
ROOT
ATOM      1  C4' AMP d   1      29.089  69.411   0.431  0.00  0.00     0.089 C 
ATOM      2  O4' AMP d   1      28.492  69.902   1.638  0.00  0.00    -0.353 OA
ATOM      3  C3' AMP d   1      30.377  70.193   0.238  0.00  0.00     0.091 C 
ATOM      4  C2' AMP d   1      30.695  70.771   1.606  0.00  0.00     0.105 C 
ATOM      5  C1' AMP d   1      29.337  70.859   2.288  0.00  0.00     0.139 C 
ATOM      6  H   AMP d   1      28.430  69.553  -0.426  0.00  0.00     0.090 H 
ATOM      7  H   AMP d   1      31.200  69.583  -0.134  0.00  0.00     0.091 H 
ATOM      8  H   AMP d   1      31.405  70.153   2.155  0.00  0.00     0.093 H 
ATOM      9  H   AMP d   1      28.960  71.879   2.211  0.00  0.00     0.122 H 
ENDROOT
BRANCH   5  10
ATOM     10  N9  AMP d   1      29.409  70.526   3.732  0.00  0.00    -0.294 N 
ATOM     11  C8  AMP d   1      30.153  69.561   4.310  0.00  0.00     0.071 A 
ATOM     12  N7  AMP d   1      29.964  69.534   5.655  0.00  0.00    -0.236 NA
ATOM     13  H   AMP d   1      30.820  68.890   3.768  0.00  0.00     0.144 H 
ATOM     14  C5  AMP d   1      29.075  70.500   5.954  0.00  0.00     0.149 A 
ATOM     15  C6  AMP d   1      28.420  71.018   7.180  0.00  0.00     0.155 A 
ATOM     16  C4  AMP d   1      28.710  71.148   4.682  0.00  0.00     0.167 A 
ATOM     17  N6  AMP d   1      28.689  70.488   8.392  0.00  0.00    -0.382 N 
ATOM     18  N1  AMP d   1      27.546  72.042   7.048  0.00  0.00    -0.222 NA
ATOM     19  H   AMP d   1      29.353  69.718   8.476  0.00  0.00     0.157 HD
ATOM     20  H   AMP d   1      28.229  70.858   9.224  0.00  0.00     0.157 HD
ATOM     21  C2  AMP d   1      27.261  72.588   5.849  0.00  0.00     0.091 A 
ATOM     22  N3  AMP d   1      27.813  72.165   4.696  0.00  0.00    -0.222 NA
ATOM     23  H   AMP d   1      26.549  73.412   5.811  0.00  0.00     0.146 H 
ENDBRANCH   5  10
BRANCH   4  24
ATOM     24  O2' AMP d   1      31.334  72.048   1.529  0.00  0.00    -0.388 OA
ATOM     25  H   AMP d   1      32.159  71.963   1.045  0.00  0.00     0.210 HD
ENDBRANCH   4  24
BRANCH   1  26
ATOM     26  C5' AMP d   1      29.337  67.902   0.517  0.00  0.00     0.059 C 
ATOM     27  H   AMP d   1      28.377  67.386   0.537  0.00  0.00     0.079 H 
ATOM     28  H   AMP d   1      29.920  67.589  -0.349  0.00  0.00     0.079 H 
BRANCH  26  29
ATOM     29  O5' AMP d   1      30.063  67.581   1.708  0.00  0.00    -0.280 OA
BRANCH  29  30
ATOM     30  P   AMP d   1      31.010  66.280   1.806  0.00  0.00     0.422 P 
ATOM     31  O1P AMP d   1      31.564  66.333   3.208  0.00  0.00    -0.617 OA
ATOM     32  O2P AMP d   1      32.040  66.483   0.719  0.00  0.00    -0.617 OA
ATOM     33  O3P AMP d   1      30.076  65.113   1.568  0.00  0.00    -0.617 OA
ENDBRANCH  29  30
ENDBRANCH  26  29
ENDBRANCH   1  26
BRANCH   3  34
ATOM     34  O3' AMP d   1      30.143  71.234  -0.713  0.00  0.00    -0.390 OA
ATOM     35  H   AMP d   1      30.951  71.735  -0.843  0.00  0.00     0.210 HD
ENDBRANCH   3  34
TORSDOF 6
