REMARK  2 active torsions:
REMARK  status: ('A' for Active; 'I' for Inactive)
REMARK    1  A    between atoms: CAH_8  and  CAA_1 
REMARK    2  A    between atoms: NAN_14  and  CAH_8 
ROOT
ATOM      1  OAB 3TJ d   1      73.422  16.464  30.429  0.00  0.00    -0.200 OA
ATOM      2  OAC 3TJ d   1      75.699  16.853  31.897  0.00  0.00    -0.200 OA
ATOM      3  FAD 3TJ d   1      78.010  14.498  27.653  0.00  0.00    -0.206 F 
ATOM      4  CAE 3TJ d   1      77.239  16.673  26.725  0.00  0.00    -0.043 A 
ATOM      5  CAF 3TJ d   1      76.490  17.816  26.885  0.00  0.00    -0.053 A 
ATOM      6  CAG 3TJ d   1      76.548  15.795  28.963  0.00  0.00    -0.021 A 
ATOM      7  CAI 3TJ d   1      73.985  19.425  29.453  0.00  0.00     0.063 C 
ATOM      8  NAJ 3TJ d   1      74.569  18.803  30.696  0.00  0.00    -0.298 N 
ATOM      9  CAK 3TJ d   1      77.262  15.621  27.802  0.00  0.00     0.118 A 
ATOM     10  CAL 3TJ d   1      75.757  18.000  28.063  0.00  0.00     0.055 A 
ATOM     11  CAM 3TJ d   1      75.796  16.965  29.110  0.00  0.00     0.108 A 
ATOM     12  NAN 3TJ d   1      74.903  19.274  28.266  0.00  0.00    -0.363 N 
ATOM     13  SAO 3TJ d   1      74.840  17.272  30.580  0.00  0.00     0.262 S 
ATOM     14  H   3TJ d   1      77.819  16.528  25.814  0.00  0.00     0.088 H 
ATOM     15  H   3TJ d   1      76.468  18.572  26.100  0.00  0.00     0.087 H 
ATOM     16  H   3TJ d   1      76.567  15.040  29.749  0.00  0.00     0.090 H 
ATOM     17  H   3TJ d   1      73.838  20.489  29.639  0.00  0.00     0.097 H 
ATOM     18  H   3TJ d   1      73.046  18.920  29.226  0.00  0.00     0.097 H 
ATOM     19  H   3TJ d   1      74.770  19.338  31.541  0.00  0.00     0.174 HD
ENDROOT
BRANCH  12  20
ATOM     20  CAH 3TJ d   1      74.976  20.349  27.295  0.00  0.00    -0.006 C 
ATOM     21  H   3TJ d   1      74.785  19.895  26.323  0.00  0.00     0.063 H 
ATOM     22  H   3TJ d   1      74.261  21.104  27.621  0.00  0.00     0.063 H 
BRANCH  20  23
ATOM     23  CAA 3TJ d   1      76.326  21.060  27.178  0.00  0.00    -0.061 C 
ATOM     24  H   3TJ d   1      76.587  21.503  28.139  0.00  0.00     0.029 H 
ATOM     25  H   3TJ d   1      77.091  20.339  26.889  0.00  0.00     0.029 H 
ATOM     26  H   3TJ d   1      76.259  21.843  26.422  0.00  0.00     0.029 H 
ENDBRANCH  20  23
ENDBRANCH  12  20
TORSDOF 2
