REMARK  16 active torsions:
REMARK  status: ('A' for Active; 'I' for Inactive)
REMARK    1  A    between atoms: PA_1  and  O5B_4 
REMARK    2  A    between atoms: PA_1  and  O3_23 
REMARK    3  A    between atoms: O5B_4  and  C5B_5 
REMARK    4  A    between atoms: C5B_5  and  C4B_6 
REMARK    5  A    between atoms: C3B_8  and  O3B_9 
REMARK    6  A    between atoms: C2B_10  and  O2B_11 
REMARK    7  A    between atoms: C1B_12  and  N9A_13 
REMARK    8  A    between atoms: C6A_17  and  N6A_18 
REMARK    9  A    between atoms: O3_23  and  PN_24 
REMARK   10  A    between atoms: PN_24  and  O5D_27 
REMARK   11  A    between atoms: O5D_27  and  C5D_28 
REMARK   12  A    between atoms: C5D_28  and  C4D_29 
REMARK   13  A    between atoms: C3D_31  and  O3D_32 
REMARK   14  A    between atoms: C2D_33  and  O2D_34 
REMARK   15  A    between atoms: C1D_35  and  N1N_36 
REMARK   16  A    between atoms: C3N_38  and  C7N_39 
REMARK       I    between atoms: C7N_39  and  N7N_41 
ROOT
ATOM      1  PN  NON d   1     -33.273  64.372  -1.167  0.00  0.00     0.417 P 
ATOM      2  O1N NON d   1     -33.602  63.759  -2.470  0.00  0.00    -0.624 OA
ATOM      3  O2N NON d   1     -34.360  64.696  -0.217  0.00  0.00    -0.624 OA
ENDROOT
BRANCH   1   4
ATOM      4  O3  NON d   1     -32.524  65.738  -1.449  0.00  0.00    -0.180 OA
BRANCH   4   5
ATOM      5  PA  NON d   1     -31.367  65.941  -2.554  0.00  0.00     0.417 P 
ATOM      6  O1A NON d   1     -30.594  64.703  -2.785  0.00  0.00    -0.624 OA
ATOM      7  O2A NON d   1     -31.962  66.637  -3.701  0.00  0.00    -0.624 OA
BRANCH   5   8
ATOM      8  O5B NON d   1     -30.520  66.920  -1.582  0.00  0.00    -0.287 OA
BRANCH   8   9
ATOM      9  C5B NON d   1     -29.378  67.667  -1.952  0.00  0.00     0.058 C 
ATOM     10  H   NON d   1     -29.464  67.935  -3.005  0.00  0.00     0.079 H 
ATOM     11  H   NON d   1     -28.491  67.060  -1.772  0.00  0.00     0.079 H 
BRANCH   9  12
ATOM     12  C4B NON d   1     -29.266  68.963  -1.120  0.00  0.00     0.089 C 
ATOM     13  O4B NON d   1     -28.767  69.979  -1.997  0.00  0.00    -0.353 OA
ATOM     14  C1B NON d   1     -29.901  70.587  -2.685  0.00  0.00     0.139 C 
ATOM     15  C2B NON d   1     -31.160  70.181  -1.929  0.00  0.00     0.105 C 
ATOM     16  H   NON d   1     -29.823  71.674  -2.699  0.00  0.00     0.122 H 
ATOM     17  C3B NON d   1     -30.604  69.543  -0.658  0.00  0.00     0.091 C 
ATOM     18  H   NON d   1     -31.815  69.502  -2.475  0.00  0.00     0.093 H 
ATOM     19  H   NON d   1     -31.280  68.808  -0.221  0.00  0.00     0.091 H 
ATOM     20  H   NON d   1     -28.655  68.709  -0.254  0.00  0.00     0.090 H 
BRANCH  14  21
ATOM     21  N9A NON d   1     -29.932  70.146  -4.104  0.00  0.00    -0.294 N 
ATOM     22  C8A NON d   1     -30.684  69.225  -4.709  0.00  0.00     0.071 A 
ATOM     23  N7A NON d   1     -30.349  69.196  -5.994  0.00  0.00    -0.236 NA
ATOM     24  H   NON d   1     -31.442  68.604  -4.232  0.00  0.00     0.144 H 
ATOM     25  C5A NON d   1     -29.385  70.100  -6.188  0.00  0.00     0.149 A 
ATOM     26  C6A NON d   1     -28.700  70.465  -7.276  0.00  0.00     0.155 A 
ATOM     27  C4A NON d   1     -29.128  70.687  -5.012  0.00  0.00     0.167 A 
ATOM     28  N1A NON d   1     -27.756  71.418  -7.236  0.00  0.00    -0.222 NA
ATOM     29  C2A NON d   1     -27.471  72.051  -6.022  0.00  0.00     0.091 A 
ATOM     30  N3A NON d   1     -28.193  71.648  -4.901  0.00  0.00    -0.222 NA
ATOM     31  H   NON d   1     -26.712  72.831  -5.955  0.00  0.00     0.146 H 
BRANCH  26  32
ATOM     32  N6A NON d   1     -28.997  69.841  -8.406  0.00  0.00    -0.382 N 
ATOM     33  H   NON d   1     -29.719  69.120  -8.416  0.00  0.00     0.157 HD
ATOM     34  H   NON d   1     -28.504  70.081  -9.266  0.00  0.00     0.157 HD
ENDBRANCH  26  32
ENDBRANCH  14  21
BRANCH  15  35
ATOM     35  O2B NON d   1     -31.965  71.348  -1.652  0.00  0.00    -0.388 OA
ATOM     36  H   NON d   1     -32.707  71.099  -1.095  0.00  0.00     0.210 HD
ENDBRANCH  15  35
BRANCH  17  37
ATOM     37  O3B NON d   1     -30.361  70.553   0.348  0.00  0.00    -0.390 OA
ATOM     38  H   NON d   1     -31.199  70.920   0.641  0.00  0.00     0.210 HD
ENDBRANCH  17  37
ENDBRANCH   9  12
ENDBRANCH   8   9
ENDBRANCH   5   8
ENDBRANCH   4   5
ENDBRANCH   1   4
BRANCH   1  39
ATOM     39  O5D NON d   1     -32.136  63.441  -0.524  0.00  0.00    -0.287 OA
BRANCH  39  40
ATOM     40  C5D NON d   1     -31.945  63.257   0.879  0.00  0.00     0.058 C 
ATOM     41  H   NON d   1     -32.525  62.401   1.224  0.00  0.00     0.079 H 
ATOM     42  H   NON d   1     -32.280  64.143   1.419  0.00  0.00     0.079 H 
BRANCH  40  43
ATOM     43  C4D NON d   1     -30.452  63.018   1.142  0.00  0.00     0.089 C 
ATOM     44  O4D NON d   1     -29.912  62.080   0.174  0.00  0.00    -0.354 OA
ATOM     45  C1D NON d   1     -28.573  62.544  -0.097  0.00  0.00     0.133 C 
ATOM     46  C2D NON d   1     -28.774  64.039  -0.244  0.00  0.00     0.104 C 
ATOM     47  H   NON d   1     -27.873  62.260   0.689  0.00  0.00     0.122 H 
ATOM     48  C3D NON d   1     -29.681  64.329   0.942  0.00  0.00     0.091 C 
ATOM     49  H   NON d   1     -29.184  64.358  -1.202  0.00  0.00     0.093 H 
ATOM     50  H   NON d   1     -30.313  65.199   0.763  0.00  0.00     0.091 H 
ATOM     51  H   NON d   1     -30.349  62.636   2.158  0.00  0.00     0.090 H 
BRANCH  45  52
ATOM     52  N1N NON d   1     -27.955  61.945  -1.310  0.00  0.00    -0.357 N 
ATOM     53  C2N NON d   1     -26.629  61.462  -1.227  0.00  0.00    -0.007 A 
ATOM     54  C3N NON d   1     -26.004  60.891  -2.343  0.00  0.00     0.046 A 
ATOM     55  H   NON d   1     -26.087  61.535  -0.284  0.00  0.00     0.112 H 
ATOM     56  C4N NON d   1     -26.717  60.810  -3.548  0.00  0.00    -0.068 A 
ATOM     57  C5N NON d   1     -28.031  61.281  -3.643  0.00  0.00    -0.085 A 
ATOM     58  H   NON d   1     -26.240  60.373  -4.425  0.00  0.00     0.084 H 
ATOM     59  C6N NON d   1     -28.662  61.849  -2.533  0.00  0.00     0.012 A 
ATOM     60  H   NON d   1     -28.566  61.204  -4.589  0.00  0.00     0.079 H 
ATOM     61  H   NON d   1     -28.860  62.881  -2.822  0.00  0.00     0.070 H 
ATOM     62  H   NON d   1     -29.500  61.186  -2.319  0.00  0.00     0.070 H 
BRANCH  54  63
ATOM     63  C7N NON d   1     -24.685  60.422  -2.234  0.00  0.00     0.250 C 
ATOM     64  O7N NON d   1     -24.042  60.579  -1.195  0.00  0.00    -0.268 OA
ATOM     65  N7N NON d   1     -24.181  59.803  -3.306  0.00  0.00    -0.366 N 
ATOM     66  H   NON d   1     -23.229  59.439  -3.284  0.00  0.00     0.159 HD
ATOM     67  H   NON d   1     -24.749  59.695  -4.146  0.00  0.00     0.159 HD
ENDBRANCH  54  63
ENDBRANCH  45  52
BRANCH  46  68
ATOM     68  O2D NON d   1     -27.514  64.723  -0.119  0.00  0.00    -0.388 OA
ATOM     69  H   NON d   1     -26.965  64.521  -0.880  0.00  0.00     0.210 HD
ENDBRANCH  46  68
BRANCH  48  70
ATOM     70  O3D NON d   1     -28.916  64.596   2.132  0.00  0.00    -0.390 OA
ATOM     71  H   NON d   1     -29.510  64.676   2.882  0.00  0.00     0.210 HD
ENDBRANCH  48  70
ENDBRANCH  40  43
ENDBRANCH  39  40
ENDBRANCH   1  39
TORSDOF 16
