REMARK WARNING: 32 MAX_TORS EXCEEDED!!!
REMARK  35 active torsions:
REMARK  status: ('A' for Active; 'I' for Inactive)
REMARK    1  A    between atoms: N_1  and  CA_2 
REMARK    2  A    between atoms: CA_2  and  C_3 
REMARK    3  A    between atoms: CA_2  and  CB_5 
REMARK       I    between atoms: C_3  and  N_10 
REMARK    4  A    between atoms: CB_5  and  CG_6 
REMARK    5  A    between atoms: CG_6  and  CD_7 
REMARK       I    between atoms: CD_7  and  NE2_9 
REMARK    6  A    between atoms: N_10  and  CA_11 
REMARK    7  A    between atoms: CA_11  and  C_12 
REMARK    8  A    between atoms: CA_11  and  CB_14 
REMARK       I    between atoms: C_12  and  N_18 
REMARK    9  A    between atoms: CB_14  and  CG_15 
REMARK   10  A    between atoms: CG_15  and  CD1_16 
REMARK   11  A    between atoms: CG_15  and  CD2_17 
REMARK   12  A    between atoms: N_18  and  CA_19 
REMARK   13  A    between atoms: CA_19  and  C_20 
REMARK   14  A    between atoms: CA_19  and  CB_22 
REMARK       I    between atoms: C_20  and  N_24 
REMARK   15  A    between atoms: CB_22  and  OG_23 
REMARK   16  A    between atoms: CA_25  and  C_26 
REMARK       I    between atoms: C_26  and  N_31 
REMARK   17  A    between atoms: N_31  and  CA_32 
REMARK   18  A    between atoms: CA_32  and  C_33 
REMARK   19  A    between atoms: CA_32  and  CB_35 
REMARK       I    between atoms: C_33  and  N_42 
REMARK   20  A    between atoms: CB_35  and  CG_36 
REMARK   21  A    between atoms: CA_43  and  C_44 
REMARK       I    between atoms: C_44  and  N_49 
REMARK   22  A    between atoms: N_49  and  CA_50 
REMARK   23  A    between atoms: CA_50  and  C_51 
REMARK   24  A    between atoms: CA_50  and  CB_53 
REMARK       I    between atoms: C_51  and  N_60 
REMARK   25  A    between atoms: CB_53  and  CG_54 
REMARK   26  A    between atoms: N_60  and  CA_61 
REMARK   27  A    between atoms: CA_61  and  C_62 
REMARK   28  A    between atoms: CA_61  and  CB_64 
REMARK       I    between atoms: C_62  and  N_68 
REMARK   29  A    between atoms: CB_64  and  CG_65 
REMARK   30  A    between atoms: N_68  and  CA_69 
REMARK   31  A    between atoms: CA_69  and  C_70 
REMARK   32  A    between atoms: CA_69  and  CB_72 
REMARK   33  A    between atoms: CB_72  and  CG_73 
REMARK   34  A    between atoms: CG_73  and  CD1_74 
REMARK   35  A    between atoms: CG_73  and  CD2_75 
ROOT
ATOM      1  CA  PHE d   1     -23.908 -34.178 -32.210  0.00  0.00     0.093 C 
ATOM      2  H   PHE d   1     -23.562 -34.904 -31.475  0.00  0.00     0.088 H 
ENDROOT
BRANCH   1   3
ATOM      3  N   PHE d   1     -22.889 -33.957 -33.226  0.00  0.00    -0.346 N 
ATOM      4  C   PRO d   1     -22.513 -34.902 -34.083  0.00  0.00     0.241 C 
ATOM      5  O   PRO d   1     -22.948 -36.060 -34.065  0.00  0.00    -0.271 OA
ATOM      6  H   PHE d   1     -22.445 -33.040 -33.283  0.00  0.00     0.163 HD
BRANCH   4   7
ATOM      7  CA  PRO d   1     -21.470 -34.496 -35.117  0.00  0.00     0.091 C 
ATOM      8  N   PRO d   1     -20.873 -35.675 -35.735  0.00  0.00    -0.337 N 
ATOM      9  C   SER d   1     -20.191 -36.554 -34.973  0.00  0.00     0.245 C 
ATOM     10  CD  PRO d   1     -21.141 -35.722 -37.183  0.00  0.00    -0.001 C 
ATOM     11  O   SER d   1     -19.978 -36.369 -33.767  0.00  0.00    -0.271 OA
ATOM     12  CG  PRO d   1     -22.338 -34.853 -37.325  0.00  0.00    -0.048 C 
ATOM     13  H   PRO d   1     -21.306 -36.735 -37.551  0.00  0.00     0.064 H 
ATOM     14  H   PRO d   1     -20.296 -35.382 -37.782  0.00  0.00     0.064 H 
ATOM     15  CB  PRO d   1     -22.140 -33.785 -36.297  0.00  0.00    -0.036 C 
ATOM     16  H   PRO d   1     -22.432 -34.444 -38.331  0.00  0.00     0.035 H 
ATOM     17  H   PRO d   1     -23.266 -35.404 -37.173  0.00  0.00     0.035 H 
ATOM     18  H   PRO d   1     -21.530 -32.965 -36.676  0.00  0.00     0.036 H 
ATOM     19  H   PRO d   1     -23.083 -33.320 -36.008  0.00  0.00     0.036 H 
ATOM     20  H   PRO d   1     -20.744 -33.874 -34.592  0.00  0.00     0.087 H 
BRANCH   9  21
ATOM     21  CA  SER d   1     -19.660 -37.816 -35.661  0.00  0.00     0.109 C 
ATOM     22  H   SER d   1     -19.299 -37.542 -36.653  0.00  0.00     0.090 H 
BRANCH  21  23
ATOM     23  N   SER d   1     -18.536 -38.379 -34.911  0.00  0.00    -0.344 N 
ATOM     24  C   LEU d   1     -17.376 -37.733 -34.790  0.00  0.00     0.241 C 
ATOM     25  O   LEU d   1     -17.141 -36.659 -35.350  0.00  0.00    -0.271 OA
ATOM     26  H   SER d   1     -18.643 -39.292 -34.468  0.00  0.00     0.163 HD
BRANCH  24  27
ATOM     27  CA  LEU d   1     -16.311 -38.402 -33.932  0.00  0.00     0.089 C 
ATOM     28  H   LEU d   1     -16.253 -39.445 -34.243  0.00  0.00     0.087 H 
BRANCH  27  29
ATOM     29  N   LEU d   1     -15.024 -37.764 -34.126  0.00  0.00    -0.346 N 
ATOM     30  C   GLN d   1     -14.127 -38.201 -35.001  0.00  0.00     0.249 C 
ATOM     31  O   GLN d   1     -14.337 -39.125 -35.794  0.00  0.00    -0.271 OA
ATOM     32  H   LEU d   1     -14.798 -36.943 -33.565  0.00  0.00     0.163 HD
BRANCH  30  33
ATOM     33  CA  GLN d   1     -12.793 -37.464 -34.970  0.00  0.00     0.176 C 
ATOM     34  H   GLN d   1     -12.582 -37.218 -33.929  0.00  0.00     0.099 H 
BRANCH  33  35
ATOM     35  N   GLN d   1     -11.656 -38.308 -35.432  0.00  0.00    -0.066 N 
ATOM     36  H   GLN d   1     -11.620 -39.162 -34.875  0.00  0.00     0.275 HD
ATOM     37  H   GLN d   1     -11.789 -38.547 -36.415  0.00  0.00     0.275 HD
ATOM     38  H   GLN d   1     -10.784 -37.791 -35.322  0.00  0.00     0.275 HD
ENDBRANCH  33  35
BRANCH  33  39
ATOM     39  CB  GLN d   1     -12.888 -36.168 -35.779  0.00  0.00    -0.022 C 
ATOM     40  H   GLN d   1     -13.833 -35.695 -35.513  0.00  0.00     0.037 H 
ATOM     41  H   GLN d   1     -12.799 -36.441 -36.831  0.00  0.00     0.037 H 
BRANCH  39  42
ATOM     42  CG  GLN d   1     -11.789 -35.161 -35.487  0.00  0.00     0.011 C 
ATOM     43  H   GLN d   1     -12.036 -34.239 -36.014  0.00  0.00     0.047 H 
ATOM     44  H   GLN d   1     -10.844 -35.599 -35.810  0.00  0.00     0.047 H 
BRANCH  42  45
ATOM     45  CD  GLN d   1     -11.663 -34.830 -34.017  0.00  0.00     0.215 C 
ATOM     46  OE1 GLN d   1     -12.486 -34.103 -33.462  0.00  0.00    -0.274 OA
ATOM     47  NE2 GLN d   1     -10.622 -35.352 -33.378  0.00  0.00    -0.370 N 
ATOM     48  H   GLN d   1     -10.481 -35.155 -32.387  0.00  0.00     0.159 HD
ATOM     49  H   GLN d   1      -9.964 -35.950 -33.878  0.00  0.00     0.159 HD
ENDBRANCH  42  45
ENDBRANCH  39  42
ENDBRANCH  33  39
ENDBRANCH  30  33
ENDBRANCH  27  29
BRANCH  27  50
ATOM     50  CB  LEU d   1     -16.677 -38.346 -32.446  0.00  0.00    -0.035 C 
ATOM     51  H   LEU d   1     -17.664 -38.803 -32.375  0.00  0.00     0.037 H 
ATOM     52  H   LEU d   1     -16.574 -37.298 -32.163  0.00  0.00     0.037 H 
BRANCH  50  53
ATOM     53  CG  LEU d   1     -15.797 -39.124 -31.452  0.00  0.00    -0.059 C 
ATOM     54  H   LEU d   1     -14.797 -38.711 -31.586  0.00  0.00     0.038 H 
BRANCH  53  55
ATOM     55  CD1 LEU d   1     -16.146 -38.898 -29.980  0.00  0.00    -0.073 C 
ATOM     56  H   LEU d   1     -16.036 -37.840 -29.740  0.00  0.00     0.028 H 
ATOM     57  H   LEU d   1     -17.176 -39.207 -29.800  0.00  0.00     0.028 H 
ATOM     58  H   LEU d   1     -15.474 -39.486 -29.354  0.00  0.00     0.028 H 
ENDBRANCH  53  55
BRANCH  53  59
ATOM     59  CD2 LEU d   1     -15.772 -40.608 -31.773  0.00  0.00    -0.073 C 
ATOM     60  H   LEU d   1     -16.785 -41.007 -31.722  0.00  0.00     0.028 H 
ATOM     61  H   LEU d   1     -15.372 -40.755 -32.776  0.00  0.00     0.028 H 
ATOM     62  H   LEU d   1     -15.141 -41.124 -31.050  0.00  0.00     0.028 H 
ENDBRANCH  53  59
ENDBRANCH  50  53
ENDBRANCH  27  50
ENDBRANCH  24  27
ENDBRANCH  21  23
BRANCH  21  63
ATOM     63  CB  SER d   1     -20.781 -38.850 -35.831  0.00  0.00     0.044 C 
ATOM     64  H   SER d   1     -20.352 -39.758 -36.256  0.00  0.00     0.077 H 
ATOM     65  H   SER d   1     -21.545 -38.426 -36.483  0.00  0.00     0.077 H 
BRANCH  63  66
ATOM     66  OG  SER d   1     -21.379 -39.175 -34.591  0.00  0.00    -0.398 OA
ATOM     67  H   SER d   1     -22.074 -39.822 -34.732  0.00  0.00     0.209 HD
ENDBRANCH  63  66
ENDBRANCH  21  63
ENDBRANCH   9  21
ENDBRANCH   4   7
ENDBRANCH   1   3
BRANCH   1  68
ATOM     68  C   PHE d   1     -25.171 -34.724 -32.884  0.00  0.00     0.243 C 
ATOM     69  O   PHE d   1     -25.698 -34.098 -33.808  0.00  0.00    -0.271 OA
ATOM     70  N   PRO d   1     -25.642 -35.909 -32.446  0.00  0.00    -0.337 N 
ATOM     71  CA  PRO d   1     -26.769 -36.561 -33.120  0.00  0.00     0.091 C 
ATOM     72  CD  PRO d   1     -25.109 -36.729 -31.341  0.00  0.00    -0.001 C 
ATOM     73  CB  PRO d   1     -26.859 -37.930 -32.428  0.00  0.00    -0.036 C 
ATOM     74  H   PRO d   1     -26.604 -36.614 -34.196  0.00  0.00     0.087 H 
ATOM     75  CG  PRO d   1     -26.174 -37.758 -31.129  0.00  0.00    -0.048 C 
ATOM     76  H   PRO d   1     -26.393 -38.713 -33.026  0.00  0.00     0.036 H 
ATOM     77  H   PRO d   1     -27.894 -38.245 -32.297  0.00  0.00     0.036 H 
ATOM     78  H   PRO d   1     -25.744 -38.700 -30.788  0.00  0.00     0.035 H 
ATOM     79  H   PRO d   1     -26.875 -37.439 -30.358  0.00  0.00     0.035 H 
ATOM     80  H   PRO d   1     -24.908 -36.143 -30.444  0.00  0.00     0.064 H 
ATOM     81  H   PRO d   1     -24.141 -37.171 -31.576  0.00  0.00     0.064 H 
BRANCH  71  82
ATOM     82  C   PRO d   1     -28.086 -35.805 -32.979  0.00  0.00     0.241 C 
ATOM     83  O   PRO d   1     -28.259 -35.019 -32.046  0.00  0.00    -0.271 OA
ATOM     84  N   PHE d   1     -28.992 -36.048 -33.922  0.00  0.00    -0.346 N 
ATOM     85  H   PHE d   1     -28.726 -36.641 -34.708  0.00  0.00     0.163 HD
BRANCH  84  86
ATOM     86  CA  PHE d   1     -30.346 -35.510 -33.888  0.00  0.00     0.093 C 
ATOM     87  H   PHE d   1     -30.288 -34.423 -33.835  0.00  0.00     0.088 H 
BRANCH  86  88
ATOM     88  C   PHE d   1     -31.104 -36.015 -32.657  0.00  0.00     0.241 C 
ATOM     89  O   PHE d   1     -30.728 -37.024 -32.062  0.00  0.00    -0.271 OA
ATOM     90  N   ASP d   1     -32.169 -35.314 -32.278  0.00  0.00    -0.345 N 
ATOM     91  H   ASP d   1     -32.404 -34.457 -32.779  0.00  0.00     0.163 HD
BRANCH  90  92
ATOM     92  CA  ASP d   1     -33.010 -35.741 -31.163  0.00  0.00     0.098 C 
ATOM     93  H   ASP d   1     -32.358 -36.174 -30.404  0.00  0.00     0.088 H 
BRANCH  92  94
ATOM     94  C   ASP d   1     -34.008 -36.805 -31.607  0.00  0.00     0.241 C 
ATOM     95  O   ASP d   1     -34.573 -36.719 -32.698  0.00  0.00    -0.271 OA
ATOM     96  N   LEU d   1     -34.221 -37.799 -30.748  0.00  0.00    -0.345 N 
ATOM     97  H   LEU d   1     -33.728 -37.783 -29.855  0.00  0.00     0.163 HD
BRANCH  96  98
ATOM     98  CA  LEU d   1     -35.127 -38.911 -31.022  0.00  0.00     0.096 C 
ATOM     99  H   LEU d   1     -34.870 -39.279 -32.015  0.00  0.00     0.089 H 
BRANCH  98 100
ATOM    100  C   LEU d   1     -36.603 -38.510 -31.091  0.00  0.00     0.196 C 
ATOM    101  O   LEU d   1     -36.959 -37.347 -30.901  0.00  0.00    -0.646 OA
ATOM    102  O1  LEU d   1     -37.470 -39.388 -31.347  0.00  0.00    -0.646 OA
ENDBRANCH  98 100
BRANCH  98 103
ATOM    103  CB  LEU d   1     -34.929 -40.007 -29.973  0.00  0.00    -0.034 C 
ATOM    104  H   LEU d   1     -35.658 -40.773 -30.238  0.00  0.00     0.037 H 
ATOM    105  H   LEU d   1     -35.008 -39.488 -29.018  0.00  0.00     0.037 H 
BRANCH 103 106
ATOM    106  CG  LEU d   1     -33.595 -40.758 -29.893  0.00  0.00    -0.059 C 
ATOM    107  H   LEU d   1     -32.821 -40.008 -29.732  0.00  0.00     0.038 H 
BRANCH 106 108
ATOM    108  CD1 LEU d   1     -33.503 -41.711 -28.712  0.00  0.00    -0.073 C 
ATOM    109  H   LEU d   1     -33.618 -41.150 -27.784  0.00  0.00     0.028 H 
ATOM    110  H   LEU d   1     -34.294 -42.458 -28.787  0.00  0.00     0.028 H 
ATOM    111  H   LEU d   1     -32.532 -42.206 -28.721  0.00  0.00     0.028 H 
ENDBRANCH 106 108
BRANCH 106 112
ATOM    112  CD2 LEU d   1     -33.341 -41.494 -31.194  0.00  0.00    -0.073 C 
ATOM    113  H   LEU d   1     -34.147 -42.207 -31.370  0.00  0.00     0.028 H 
ATOM    114  H   LEU d   1     -33.303 -40.777 -32.014  0.00  0.00     0.028 H 
ATOM    115  H   LEU d   1     -32.391 -42.025 -31.130  0.00  0.00     0.028 H 
ENDBRANCH 106 112
ENDBRANCH 103 106
ENDBRANCH  98 103
ENDBRANCH  96  98
ENDBRANCH  92  94
BRANCH  92 116
ATOM    116  CB  ASP d   1     -33.749 -34.550 -30.550  0.00  0.00     0.043 C 
ATOM    117  H   ASP d   1     -34.644 -34.931 -30.058  0.00  0.00     0.052 H 
ATOM    118  H   ASP d   1     -33.972 -33.848 -31.353  0.00  0.00     0.052 H 
BRANCH 116 119
ATOM    119  CG  ASP d   1     -32.924 -33.814 -29.506  0.00  0.00     0.175 C 
ATOM    120  OD1 ASP d   1     -31.874 -34.333 -29.073  0.00  0.00    -0.648 OA
ATOM    121  OD2 ASP d   1     -33.336 -32.707 -29.105  0.00  0.00    -0.648 OA
ENDBRANCH 116 119
ENDBRANCH  92 116
ENDBRANCH  90  92
ENDBRANCH  86  88
BRANCH  86 122
ATOM    122  CB  PHE d   1     -31.088 -35.935 -35.152  0.00  0.00    -0.014 C 
ATOM    123  H   PHE d   1     -32.110 -36.175 -34.858  0.00  0.00     0.043 H 
ATOM    124  H   PHE d   1     -30.535 -36.770 -35.582  0.00  0.00     0.043 H 
BRANCH 122 125
ATOM    125  CG  PHE d   1     -31.172 -34.872 -36.209  0.00  0.00    -0.056 A 
ATOM    126  CD1 PHE d   1     -32.410 -34.338 -36.566  0.00  0.00    -0.077 A 
ATOM    127  CE1 PHE d   1     -32.511 -33.365 -37.552  0.00  0.00    -0.082 A 
ATOM    128  H   PHE d   1     -33.311 -34.689 -36.064  0.00  0.00     0.084 H 
ATOM    129  CZ  PHE d   1     -31.362 -32.914 -38.194  0.00  0.00    -0.083 A 
ATOM    130  H   PHE d   1     -33.485 -32.957 -37.821  0.00  0.00     0.083 H 
ATOM    131  CE2 PHE d   1     -30.119 -33.447 -37.849  0.00  0.00    -0.082 A 
ATOM    132  H   PHE d   1     -31.432 -32.146 -38.965  0.00  0.00     0.083 H 
ATOM    133  CD2 PHE d   1     -30.032 -34.422 -36.866  0.00  0.00    -0.077 A 
ATOM    134  H   PHE d   1     -29.217 -33.097 -38.352  0.00  0.00     0.083 H 
ATOM    135  H   PHE d   1     -29.059 -34.840 -36.606  0.00  0.00     0.084 H 
ENDBRANCH 122 125
ENDBRANCH  86 122
ENDBRANCH  84  86
ENDBRANCH  71  82
ENDBRANCH   1  68
BRANCH   1 136
ATOM    136  CB  PHE d   1     -24.195 -32.865 -31.486  0.00  0.00    -0.014 C 
ATOM    137  H   PHE d   1     -24.796 -32.252 -32.158  0.00  0.00     0.043 H 
ATOM    138  H   PHE d   1     -23.233 -32.427 -31.221  0.00  0.00     0.043 H 
BRANCH 136 139
ATOM    139  CG  PHE d   1     -24.974 -33.020 -30.215  0.00  0.00    -0.056 A 
ATOM    140  CD1 PHE d   1     -24.324 -33.286 -29.014  0.00  0.00    -0.077 A 
ATOM    141  CE1 PHE d   1     -25.040 -33.419 -27.831  0.00  0.00    -0.082 A 
ATOM    142  H   PHE d   1     -23.239 -33.391 -29.001  0.00  0.00     0.084 H 
ATOM    143  CZ  PHE d   1     -26.427 -33.273 -27.840  0.00  0.00    -0.083 A 
ATOM    144  H   PHE d   1     -24.519 -33.637 -26.898  0.00  0.00     0.083 H 
ATOM    145  CE2 PHE d   1     -27.086 -33.001 -29.035  0.00  0.00    -0.082 A 
ATOM    146  H   PHE d   1     -26.993 -33.372 -26.914  0.00  0.00     0.083 H 
ATOM    147  CD2 PHE d   1     -26.357 -32.871 -30.211  0.00  0.00    -0.077 A 
ATOM    148  H   PHE d   1     -28.170 -32.890 -29.049  0.00  0.00     0.083 H 
ATOM    149  H   PHE d   1     -26.876 -32.649 -31.143  0.00  0.00     0.084 H 
ENDBRANCH 136 139
ENDBRANCH   1 136
TORSDOF 35
