REMARK WARNING: 32 MAX_TORS EXCEEDED!!!
REMARK  41 active torsions:
REMARK  status: ('A' for Active; 'I' for Inactive)
REMARK    1  A    between atoms: N_1  and  CA_2 
REMARK    2  A    between atoms: CA_2  and  C_3 
REMARK    3  A    between atoms: CA_2  and  CB_5 
REMARK       I    between atoms: C_3  and  N_10 
REMARK    4  A    between atoms: CB_5  and  CG_6 
REMARK    5  A    between atoms: CG_6  and  CD_7 
REMARK       I    between atoms: CD_7  and  NE2_9 
REMARK    6  A    between atoms: N_10  and  CA_11 
REMARK    7  A    between atoms: CA_11  and  C_12 
REMARK    8  A    between atoms: CA_11  and  CB_14 
REMARK       I    between atoms: C_12  and  N_18 
REMARK    9  A    between atoms: CB_14  and  CG_15 
REMARK   10  A    between atoms: CG_15  and  CD1_16 
REMARK   11  A    between atoms: CG_15  and  CD2_17 
REMARK   12  A    between atoms: N_18  and  CA_19 
REMARK   13  A    between atoms: CA_19  and  C_20 
REMARK   14  A    between atoms: CA_19  and  CB_22 
REMARK       I    between atoms: C_20  and  N_24 
REMARK   15  A    between atoms: CB_22  and  OG_23 
REMARK   16  A    between atoms: N_24  and  CA_25 
REMARK   17  A    between atoms: CA_25  and  C_26 
REMARK   18  A    between atoms: CA_25  and  CB_28 
REMARK       I    between atoms: C_26  and  N_32 
REMARK   19  A    between atoms: CB_28  and  CG_29 
REMARK   20  A    between atoms: N_32  and  CA_33 
REMARK   21  A    between atoms: CA_33  and  C_34 
REMARK   22  A    between atoms: CA_33  and  CB_36 
REMARK       I    between atoms: C_34  and  N_39 
REMARK   23  A    between atoms: CB_36  and  CG1_37 
REMARK   24  A    between atoms: CB_36  and  CG2_38 
REMARK   25  A    between atoms: CA_40  and  C_41 
REMARK       I    between atoms: C_41  and  N_46 
REMARK   26  A    between atoms: N_46  and  CA_47 
REMARK   27  A    between atoms: CA_47  and  C_48 
REMARK   28  A    between atoms: CA_47  and  CB_50 
REMARK       I    between atoms: C_48  and  N_54 
REMARK   29  A    between atoms: CB_50  and  CG_51 
REMARK   30  A    between atoms: CG_51  and  SD_52 
REMARK   31  A    between atoms: SD_52  and  CE_53 
REMARK   32  A    between atoms: N_54  and  CA_55 
REMARK   33  A    between atoms: CA_55  and  C_56 
REMARK   34  A    between atoms: CA_55  and  CB_58 
REMARK       I    between atoms: C_56  and  N_62 
REMARK   35  A    between atoms: CB_58  and  CG_59 
REMARK   36  A    between atoms: N_62  and  CA_63 
REMARK   37  A    between atoms: CA_63  and  C_64 
REMARK   38  A    between atoms: CA_63  and  CB_66 
REMARK   39  A    between atoms: CB_66  and  CG_67 
REMARK   40  A    between atoms: CG_67  and  CD1_68 
REMARK   41  A    between atoms: CG_67  and  CD2_69 
ROOT
ATOM      1  CA  VAL d   1      21.092 -35.435  -4.394  0.00  0.00     0.092 C 
ATOM      2  H   VAL d   1      21.953 -35.299  -5.049  0.00  0.00     0.088 H 
ENDROOT
BRANCH   1   3
ATOM      3  N   VAL d   1      19.932 -34.917  -5.113  0.00  0.00    -0.346 N 
ATOM      4  C   ASP d   1      19.304 -35.621  -6.049  0.00  0.00     0.241 C 
ATOM      5  O   ASP d   1      19.711 -36.708  -6.461  0.00  0.00    -0.271 OA
ATOM      6  H   VAL d   1      19.591 -33.982  -4.889  0.00  0.00     0.163 HD
BRANCH   4   7
ATOM      7  CA  ASP d   1      18.025 -35.012  -6.614  0.00  0.00     0.098 C 
ATOM      8  H   ASP d   1      18.160 -33.943  -6.777  0.00  0.00     0.088 H 
BRANCH   7   9
ATOM      9  N   ASP d   1      17.717 -35.659  -7.882  0.00  0.00    -0.345 N 
ATOM     10  C   SER d   1      18.087 -35.145  -9.050  0.00  0.00     0.243 C 
ATOM     11  O   SER d   1      18.652 -34.062  -9.161  0.00  0.00    -0.271 OA
ATOM     12  H   ASP d   1      17.199 -36.538  -7.873  0.00  0.00     0.163 HD
BRANCH  10  13
ATOM     13  CA  SER d   1      17.754 -35.988 -10.273  0.00  0.00     0.109 C 
ATOM     14  H   SER d   1      16.697 -36.238 -10.188  0.00  0.00     0.090 H 
BRANCH  13  15
ATOM     15  N   SER d   1      17.877 -35.295 -11.557  0.00  0.00    -0.344 N 
ATOM     16  C   LEU d   1      17.169 -34.213 -11.863  0.00  0.00     0.241 C 
ATOM     17  O   LEU d   1      16.421 -33.653 -11.066  0.00  0.00    -0.271 OA
ATOM     18  H   SER d   1      18.535 -35.659 -12.246  0.00  0.00     0.163 HD
BRANCH  16  19
ATOM     19  CA  LEU d   1      17.345 -33.679 -13.287  0.00  0.00     0.089 C 
ATOM     20  H   LEU d   1      16.868 -34.401 -13.950  0.00  0.00     0.087 H 
BRANCH  19  21
ATOM     21  N   LEU d   1      16.686 -32.396 -13.493  0.00  0.00    -0.346 N 
ATOM     22  C   GLN d   1      15.866 -32.178 -14.516  0.00  0.00     0.249 C 
ATOM     23  O   GLN d   1      15.523 -33.063 -15.303  0.00  0.00    -0.271 OA
ATOM     24  H   LEU d   1      16.860 -31.640 -12.830  0.00  0.00     0.163 HD
BRANCH  22  25
ATOM     25  CA  GLN d   1      15.354 -30.742 -14.671  0.00  0.00     0.176 C 
ATOM     26  H   GLN d   1      16.164 -30.075 -14.374  0.00  0.00     0.099 H 
BRANCH  25  27
ATOM     27  N   GLN d   1      15.011 -30.444 -16.057  0.00  0.00    -0.066 N 
ATOM     28  H   GLN d   1      15.820 -30.622 -16.652  0.00  0.00     0.275 HD
ATOM     29  H   GLN d   1      14.236 -31.038 -16.349  0.00  0.00     0.275 HD
ATOM     30  H   GLN d   1      14.738 -29.464 -16.135  0.00  0.00     0.275 HD
ENDBRANCH  25  27
BRANCH  25  31
ATOM     31  CB  GLN d   1      14.153 -30.483 -13.755  0.00  0.00    -0.022 C 
ATOM     32  H   GLN d   1      13.348 -31.135 -14.094  0.00  0.00     0.037 H 
ATOM     33  H   GLN d   1      13.931 -29.418 -13.816  0.00  0.00     0.037 H 
BRANCH  31  34
ATOM     34  CG  GLN d   1      14.395 -30.804 -12.283  0.00  0.00     0.011 C 
ATOM     35  H   GLN d   1      14.636 -31.865 -12.211  0.00  0.00     0.047 H 
ATOM     36  H   GLN d   1      13.495 -30.531 -11.733  0.00  0.00     0.047 H 
BRANCH  34  37
ATOM     37  CD  GLN d   1      15.554 -30.027 -11.685  0.00  0.00     0.215 C 
ATOM     38  OE1 GLN d   1      15.528 -28.798 -11.616  0.00  0.00    -0.274 OA
ATOM     39  NE2 GLN d   1      16.579 -30.745 -11.246  0.00  0.00    -0.370 N 
ATOM     40  H   GLN d   1      17.387 -30.280 -10.832  0.00  0.00     0.159 HD
ATOM     41  H   GLN d   1      16.559 -31.762 -11.323  0.00  0.00     0.159 HD
ENDBRANCH  34  37
ENDBRANCH  31  34
ENDBRANCH  25  31
ENDBRANCH  22  25
ENDBRANCH  19  21
BRANCH  19  42
ATOM     42  CB  LEU d   1      18.828 -33.558 -13.636  0.00  0.00    -0.035 C 
ATOM     43  H   LEU d   1      18.919 -33.674 -14.716  0.00  0.00     0.037 H 
ATOM     44  H   LEU d   1      19.360 -34.321 -13.067  0.00  0.00     0.037 H 
BRANCH  42  45
ATOM     45  CG  LEU d   1      19.437 -32.205 -13.268  0.00  0.00    -0.059 C 
ATOM     46  H   LEU d   1      18.807 -31.427 -13.699  0.00  0.00     0.038 H 
BRANCH  45  47
ATOM     47  CD1 LEU d   1      19.473 -32.048 -11.765  0.00  0.00    -0.073 C 
ATOM     48  H   LEU d   1      18.459 -32.105 -11.371  0.00  0.00     0.028 H 
ATOM     49  H   LEU d   1      20.078 -32.845 -11.332  0.00  0.00     0.028 H 
ATOM     50  H   LEU d   1      19.908 -31.081 -11.512  0.00  0.00     0.028 H 
ENDBRANCH  45  47
BRANCH  45  51
ATOM     51  CD2 LEU d   1      20.829 -32.037 -13.848  0.00  0.00    -0.073 C 
ATOM     52  H   LEU d   1      21.479 -32.822 -13.462  0.00  0.00     0.028 H 
ATOM     53  H   LEU d   1      20.779 -32.106 -14.935  0.00  0.00     0.028 H 
ATOM     54  H   LEU d   1      21.225 -31.062 -13.563  0.00  0.00     0.028 H 
ENDBRANCH  45  51
ENDBRANCH  42  45
ENDBRANCH  19  42
ENDBRANCH  16  19
ENDBRANCH  13  15
BRANCH  13  55
ATOM     55  CB  SER d   1      18.627 -37.240 -10.268  0.00  0.00     0.044 C 
ATOM     56  H   SER d   1      19.490 -37.069 -10.911  0.00  0.00     0.077 H 
ATOM     57  H   SER d   1      18.036 -38.082 -10.629  0.00  0.00     0.077 H 
BRANCH  55  58
ATOM     58  OG  SER d   1      19.082 -37.529  -8.961  0.00  0.00    -0.398 OA
ATOM     59  H   SER d   1      19.598 -36.789  -8.632  0.00  0.00     0.209 HD
ENDBRANCH  55  58
ENDBRANCH  13  55
ENDBRANCH  10  13
ENDBRANCH   7   9
BRANCH   7  60
ATOM     60  CB  ASP d   1      16.875 -35.209  -5.620  0.00  0.00     0.043 C 
ATOM     61  H   ASP d   1      16.986 -36.196  -5.171  0.00  0.00     0.052 H 
ATOM     62  H   ASP d   1      15.938 -35.098  -6.166  0.00  0.00     0.052 H 
BRANCH  60  63
ATOM     63  CG  ASP d   1      16.886 -34.183  -4.500  0.00  0.00     0.175 C 
ATOM     64  OD1 ASP d   1      17.864 -33.412  -4.406  0.00  0.00    -0.648 OA
ATOM     65  OD2 ASP d   1      15.918 -34.150  -3.710  0.00  0.00    -0.648 OA
ENDBRANCH  60  63
ENDBRANCH   7  60
ENDBRANCH   4   7
ENDBRANCH   1   3
BRANCH   1  66
ATOM     66  C   VAL d   1      20.927 -36.919  -4.067  0.00  0.00     0.243 C 
ATOM     67  O   VAL d   1      19.895 -37.329  -3.531  0.00  0.00    -0.271 OA
ATOM     68  N   PRO d   1      21.941 -37.733  -4.395  0.00  0.00    -0.337 N 
ATOM     69  CA  PRO d   1      21.893 -39.164  -4.073  0.00  0.00     0.091 C 
ATOM     70  CD  PRO d   1      23.195 -37.363  -5.070  0.00  0.00    -0.001 C 
ATOM     71  CB  PRO d   1      23.138 -39.728  -4.772  0.00  0.00    -0.036 C 
ATOM     72  H   PRO d   1      20.967 -39.645  -4.386  0.00  0.00     0.087 H 
ATOM     73  CG  PRO d   1      23.604 -38.651  -5.713  0.00  0.00    -0.048 C 
ATOM     74  H   PRO d   1      22.909 -40.650  -5.307  0.00  0.00     0.036 H 
ATOM     75  H   PRO d   1      23.914 -39.987  -4.051  0.00  0.00     0.036 H 
ATOM     76  H   PRO d   1      23.162 -38.764  -6.703  0.00  0.00     0.035 H 
ATOM     77  H   PRO d   1      24.681 -38.696  -5.873  0.00  0.00     0.035 H 
ATOM     78  H   PRO d   1      23.948 -36.966  -4.389  0.00  0.00     0.064 H 
ATOM     79  H   PRO d   1      23.073 -36.548  -5.783  0.00  0.00     0.064 H 
BRANCH  69  80
ATOM     80  C   PRO d   1      22.021 -39.355  -2.569  0.00  0.00     0.241 C 
ATOM     81  O   PRO d   1      22.576 -38.486  -1.899  0.00  0.00    -0.271 OA
ATOM     82  N   MET d   1      21.517 -40.461  -2.037  0.00  0.00    -0.346 N 
ATOM     83  H   MET d   1      21.007 -41.125  -2.619  0.00  0.00     0.163 HD
BRANCH  82  84
ATOM     84  CA  MET d   1      21.698 -40.720  -0.615  0.00  0.00     0.090 C 
ATOM     85  H   MET d   1      21.368 -39.847  -0.051  0.00  0.00     0.087 H 
BRANCH  84  86
ATOM     86  C   MET d   1      23.176 -40.971  -0.338  0.00  0.00     0.241 C 
ATOM     87  O   MET d   1      23.865 -41.601  -1.140  0.00  0.00    -0.271 OA
ATOM     88  N   ASP d   1      23.660 -40.462   0.791  0.00  0.00    -0.346 N 
ATOM     89  H   ASP d   1      23.029 -39.971   1.424  0.00  0.00     0.163 HD
BRANCH  88  90
ATOM     90  CA  ASP d   1      25.072 -40.588   1.149  0.00  0.00     0.098 C 
ATOM     91  H   ASP d   1      25.616 -39.993   0.415  0.00  0.00     0.088 H 
BRANCH  90  92
ATOM     92  C   ASP d   1      25.607 -42.010   1.045  0.00  0.00     0.241 C 
ATOM     93  O   ASP d   1      24.886 -42.982   1.269  0.00  0.00    -0.271 OA
ATOM     94  N   LEU d   1      26.885 -42.117   0.700  0.00  0.00    -0.345 N 
ATOM     95  H   LEU d   1      27.413 -41.271   0.484  0.00  0.00     0.163 HD
BRANCH  94  96
ATOM     96  CA  LEU d   1      27.553 -43.405   0.621  0.00  0.00     0.096 C 
ATOM     97  H   LEU d   1      26.890 -44.131   0.151  0.00  0.00     0.089 H 
BRANCH  96  98
ATOM     98  C   LEU d   1      27.899 -43.879   2.026  0.00  0.00     0.196 C 
ATOM     99  O   LEU d   1      28.069 -43.061   2.932  0.00  0.00    -0.646 OA
ATOM    100  OXT LEU d   1      28.008 -45.077   2.291  0.00  0.00    -0.646 OA
ENDBRANCH  96  98
BRANCH  96 101
ATOM    101  CB  LEU d   1      28.818 -43.287  -0.227  0.00  0.00    -0.034 C 
ATOM    102  H   LEU d   1      29.239 -44.290  -0.303  0.00  0.00     0.037 H 
ATOM    103  H   LEU d   1      29.457 -42.553   0.264  0.00  0.00     0.037 H 
BRANCH 101 104
ATOM    104  CG  LEU d   1      28.598 -42.792  -1.659  0.00  0.00    -0.059 C 
ATOM    105  H   LEU d   1      27.881 -41.971  -1.627  0.00  0.00     0.038 H 
BRANCH 104 106
ATOM    106  CD1 LEU d   1      29.889 -42.255  -2.255  0.00  0.00    -0.073 C 
ATOM    107  H   LEU d   1      30.249 -41.424  -1.649  0.00  0.00     0.028 H 
ATOM    108  H   LEU d   1      30.638 -43.047  -2.270  0.00  0.00     0.028 H 
ATOM    109  H   LEU d   1      29.702 -41.911  -3.272  0.00  0.00     0.028 H 
ENDBRANCH 104 106
BRANCH 104 110
ATOM    110  CD2 LEU d   1      28.011 -43.895  -2.527  0.00  0.00    -0.073 C 
ATOM    111  H   LEU d   1      28.697 -44.742  -2.549  0.00  0.00     0.028 H 
ATOM    112  H   LEU d   1      27.054 -44.211  -2.113  0.00  0.00     0.028 H 
ATOM    113  H   LEU d   1      27.864 -43.519  -3.539  0.00  0.00     0.028 H 
ENDBRANCH 104 110
ENDBRANCH 101 104
ENDBRANCH  96 101
ENDBRANCH  94  96
ENDBRANCH  90  92
BRANCH  90 114
ATOM    114  CB  ASP d   1      25.323 -40.045   2.552  0.00  0.00     0.043 C 
ATOM    115  H   ASP d   1      26.315 -40.369   2.868  0.00  0.00     0.052 H 
ATOM    116  H   ASP d   1      24.537 -40.422   3.207  0.00  0.00     0.052 H 
BRANCH 114 117
ATOM    117  CG  ASP d   1      25.286 -38.544   2.597  0.00  0.00     0.175 C 
ATOM    118  OD1 ASP d   1      25.371 -37.929   1.514  0.00  0.00    -0.648 OA
ATOM    119  OD2 ASP d   1      25.180 -37.974   3.703  0.00  0.00    -0.648 OA
ENDBRANCH 114 117
ENDBRANCH  90 114
ENDBRANCH  88  90
ENDBRANCH  84  86
BRANCH  84 120
ATOM    120  CB  MET d   1      20.843 -41.900  -0.149  0.00  0.00    -0.030 C 
ATOM    121  H   MET d   1      21.046 -42.051   0.911  0.00  0.00     0.037 H 
ATOM    122  H   MET d   1      21.103 -42.757  -0.770  0.00  0.00     0.037 H 
BRANCH 120 123
ATOM    123  CG  MET d   1      19.348 -41.667  -0.298  0.00  0.00    -0.021 C 
ATOM    124  H   MET d   1      19.070 -41.960  -1.310  0.00  0.00     0.049 H 
ATOM    125  H   MET d   1      19.157 -40.616  -0.081  0.00  0.00     0.049 H 
BRANCH 123 126
ATOM    126  SD  MET d   1      18.350 -42.645   0.842  0.00  0.00    -0.173 SA
BRANCH 126 127
ATOM    127  CE  MET d   1      19.080 -44.263   0.629  0.00  0.00    -0.035 C 
ATOM    128  H   MET d   1      18.981 -44.571  -0.412  0.00  0.00     0.041 H 
ATOM    129  H   MET d   1      20.136 -44.222   0.898  0.00  0.00     0.041 H 
ATOM    130  H   MET d   1      18.567 -44.979   1.271  0.00  0.00     0.041 H 
ENDBRANCH 126 127
ENDBRANCH 123 126
ENDBRANCH 120 123
ENDBRANCH  84 120
ENDBRANCH  82  84
ENDBRANCH  69  80
ENDBRANCH   1  66
BRANCH   1 131
ATOM    131  CB  VAL d   1      21.314 -34.669  -3.072  0.00  0.00    -0.033 C 
ATOM    132  H   VAL d   1      20.341 -34.482  -2.618  0.00  0.00     0.042 H 
BRANCH 131 133
ATOM    133  CG1 VAL d   1      22.137 -35.499  -2.113  0.00  0.00    -0.071 C 
ATOM    134  H   VAL d   1      21.614 -36.431  -1.900  0.00  0.00     0.028 H 
ATOM    135  H   VAL d   1      23.105 -35.719  -2.563  0.00  0.00     0.028 H 
ATOM    136  H   VAL d   1      22.283 -34.943  -1.187  0.00  0.00     0.028 H 
ENDBRANCH 131 133
BRANCH 131 137
ATOM    137  CG2 VAL d   1      21.976 -33.322  -3.327  0.00  0.00    -0.071 C 
ATOM    138  H   VAL d   1      22.942 -33.478  -3.808  0.00  0.00     0.028 H 
ATOM    139  H   VAL d   1      21.338 -32.722  -3.977  0.00  0.00     0.028 H 
ATOM    140  H   VAL d   1      22.120 -32.804  -2.379  0.00  0.00     0.028 H 
ENDBRANCH 131 137
ENDBRANCH   1 131
TORSDOF 41
