REMARK  13 active torsions:
REMARK  status: ('A' for Active; 'I' for Inactive)
REMARK    1  A    between atoms: CAL_12  and  CAA_1 
REMARK    2  A    between atoms: CAM_13  and  CAL_12 
REMARK    3  A    between atoms: CAN_14  and  CAM_13 
REMARK    4  A    between atoms: CAO_15  and  CAN_14 
REMARK    5  A    between atoms: CAP_16  and  CAO_15 
REMARK    6  A    between atoms: CAQ_17  and  CAP_16 
REMARK    7  A    between atoms: CAR_18  and  CAQ_17 
REMARK    8  A    between atoms: OAT_20  and  CAR_18 
REMARK    9  A    between atoms: SAU_21  and  CAS_19 
REMARK   10  A    between atoms: CAS_19  and  CAX_24 
REMARK   11  A    between atoms: CAY_25  and  OAT_20 
REMARK   12  A    between atoms: CAZ_26  and  SAU_21 
REMARK   13  A    between atoms: CAV_22  and  CBA_27 
ROOT
ATOM      1  CAE 2CN d   1     -28.575  11.833   9.852  0.00  0.00    -0.080 A 
ATOM      2  CAF 2CN d   1     -29.232  11.073   8.924  0.00  0.00    -0.076 A 
ATOM      3  CAH 2CN d   1     -27.507  12.592   9.486  0.00  0.00    -0.051 A 
ATOM      4  CAJ 2CN d   1     -27.754  11.831   7.248  0.00  0.00    -0.044 A 
ATOM      5  CAX 2CN d   1     -28.837  11.075   7.624  0.00  0.00    -0.046 A 
ATOM      6  CAY 2CN d   1     -27.099  12.594   8.181  0.00  0.00     0.069 A 
ATOM      7  H4  2CN d   1     -28.907  11.831  10.884  0.00  0.00     0.083 H 
ATOM      8  H5  2CN d   1     -30.075  10.464   9.228  0.00  0.00     0.084 H 
ATOM      9  H7  2CN d   1     -26.984  13.190  10.223  0.00  0.00     0.087 H 
ATOM     10  H9  2CN d   1     -27.418  11.825   6.217  0.00  0.00     0.088 H 
ENDROOT
BRANCH   6  11
ATOM     11  OAT 2CN d   1     -26.056  13.364   7.838  0.00  0.00    -0.351 OA
BRANCH  11  12
ATOM     12  CAR 2CN d   1     -25.790  13.318   6.494  0.00  0.00     0.026 C 
ATOM     13  H23 2CN d   1     -25.540  12.301   6.158  0.00  0.00     0.075 H 
ATOM     14  H24 2CN d   1     -26.627  13.706   5.895  0.00  0.00     0.075 H 
BRANCH  12  15
ATOM     15  CAQ 2CN d   1     -24.597  14.233   6.454  0.00  0.00    -0.045 C 
ATOM     16  H21 2CN d   1     -23.674  13.637   6.503  0.00  0.00     0.036 H 
ATOM     17  H22 2CN d   1     -24.609  14.813   5.519  0.00  0.00     0.036 H 
BRANCH  15  18
ATOM     18  CAP 2CN d   1     -24.654  15.172   7.631  0.00  0.00    -0.063 C 
ATOM     19  H19 2CN d   1     -25.501  14.890   8.274  0.00  0.00     0.033 H 
ATOM     20  H20 2CN d   1     -23.717  15.090   8.201  0.00  0.00     0.033 H 
BRANCH  18  21
ATOM     21  CAO 2CN d   1     -24.833  16.604   7.178  0.00  0.00    -0.065 C 
ATOM     22  H17 2CN d   1     -24.872  16.628   6.079  0.00  0.00     0.033 H 
ATOM     23  H18 2CN d   1     -25.777  16.992   7.587  0.00  0.00     0.033 H 
BRANCH  21  24
ATOM     24  CAN 2CN d   1     -23.689  17.492   7.650  0.00  0.00    -0.065 C 
ATOM     25  H15 2CN d   1     -23.444  17.238   8.692  0.00  0.00     0.033 H 
ATOM     26  H16 2CN d   1     -22.810  17.313   7.013  0.00  0.00     0.033 H 
BRANCH  24  27
ATOM     27  CAM 2CN d   1     -24.062  18.956   7.575  0.00  0.00    -0.065 C 
ATOM     28  H13 2CN d   1     -24.575  19.149   6.621  0.00  0.00     0.033 H 
ATOM     29  H14 2CN d   1     -24.735  19.200   8.410  0.00  0.00     0.033 H 
BRANCH  27  30
ATOM     30  CAL 2CN d   1     -22.839  19.820   7.660  0.00  0.00    -0.069 C 
ATOM     31  H11 2CN d   1     -22.096  19.334   8.309  0.00  0.00     0.032 H 
ATOM     32  H12 2CN d   1     -22.417  19.951   6.653  0.00  0.00     0.032 H 
BRANCH  30  33
ATOM     33  CAA 2CN d   1     -23.192  21.171   8.232  0.00  0.00    -0.077 C 
ATOM     34  H1  2CN d   1     -22.287  21.793   8.288  0.00  0.00     0.027 H 
ATOM     35  H2  2CN d   1     -23.613  21.044   9.240  0.00  0.00     0.027 H 
ATOM     36  H3  2CN d   1     -23.934  21.661   7.584  0.00  0.00     0.027 H 
ENDBRANCH  30  33
ENDBRANCH  27  30
ENDBRANCH  24  27
ENDBRANCH  21  24
ENDBRANCH  18  21
ENDBRANCH  15  18
ENDBRANCH  12  15
ENDBRANCH  11  12
ENDBRANCH   6  11
BRANCH   5  37
ATOM     37  CAS 2CN d   1     -29.562  10.213   6.629  0.00  0.00     0.005 C 
ATOM     38  H25 2CN d   1     -30.535   9.894   7.030  0.00  0.00     0.056 H 
ATOM     39  H26 2CN d   1     -29.715  10.757   5.685  0.00  0.00     0.056 H 
BRANCH  37  40
ATOM     40  SAU 2CN d   1     -28.480   8.785   6.374  0.00  0.00    -0.124 SA
BRANCH  40  41
ATOM     41  CAZ 2CN d   1     -29.278   7.914   5.136  0.00  0.00     0.018 A 
ATOM     42  CAI 2CN d   1     -30.466   8.435   4.696  0.00  0.00    -0.064 A 
ATOM     43  CAG 2CN d   1     -31.175   7.802   3.698  0.00  0.00    -0.065 A 
ATOM     44  H8  2CN d   1     -30.850   9.349   5.135  0.00  0.00     0.085 H 
ATOM     45  CAW 2CN d   1     -30.693   6.642   3.144  0.00  0.00     0.012 A 
ATOM     46  H6  2CN d   1     -32.113   8.220   3.351  0.00  0.00     0.085 H 
ATOM     47 BRAD 2CN d   1     -31.716   5.837   1.814  0.00  0.00    -0.051 Br
ATOM     48  CAK 2CN d   1     -29.496   6.106   3.579  0.00  0.00    -0.048 A 
ATOM     49  CBA 2CN d   1     -28.782   6.745   4.575  0.00  0.00     0.058 A 
ATOM     50  H10 2CN d   1     -29.119   5.189   3.141  0.00  0.00     0.087 H 
BRANCH  49  51
ATOM     51  CAV 2CN d   1     -27.477   6.102   5.004  0.00  0.00     0.210 C 
ATOM     52  OAB 2CN d   1     -26.609   6.785   5.598  0.00  0.00    -0.644 OA
ATOM     53  OAC 2CN d   1     -27.357   4.896   4.715  0.00  0.00    -0.644 OA
ENDBRANCH  49  51
ENDBRANCH  40  41
ENDBRANCH  37  40
ENDBRANCH   5  37
TORSDOF 13
