REMARK WARNING: 32 MAX_TORS EXCEEDED!!!
REMARK  42 active torsions:
REMARK  status: ('A' for Active; 'I' for Inactive)
REMARK    1  A    between atoms: N_1  and  CA_2 
REMARK    2  A    between atoms: CA_2  and  C_3 
REMARK    3  A    between atoms: CA_2  and  CB_5 
REMARK       I    between atoms: C_3  and  N_11 
REMARK    4  A    between atoms: CB_5  and  CG_6 
REMARK    5  A    between atoms: N_11  and  CA_12 
REMARK    6  A    between atoms: CA_12  and  C_13 
REMARK    7  A    between atoms: CA_12  and  CB_15 
REMARK       I    between atoms: C_13  and  N_19 
REMARK    8  A    between atoms: CB_15  and  CG_16 
REMARK    9  A    between atoms: CG_16  and  CD1_17 
REMARK   10  A    between atoms: CG_16  and  CD2_18 
REMARK   11  A    between atoms: N_19  and  CA_20 
REMARK   12  A    between atoms: CA_20  and  C_21 
REMARK   13  A    between atoms: CA_20  and  CB_23 
REMARK       I    between atoms: C_21  and  N_28 
REMARK   14  A    between atoms: CB_23  and  CG_24 
REMARK   15  A    between atoms: CG_24  and  CD_25 
REMARK   16  A    between atoms: CD_25  and  CE_26 
REMARK   17  A    between atoms: CE_26  and  NZ_27 
REMARK   18  A    between atoms: N_28  and  CA_29 
REMARK   19  A    between atoms: CA_29  and  C_30 
REMARK   20  A    between atoms: CA_29  and  CB_32 
REMARK       I    between atoms: C_30  and  N_34 
REMARK   21  A    between atoms: CB_32  and  OG_33 
REMARK   22  A    between atoms: N_34  and  CA_35 
REMARK   23  A    between atoms: CA_35  and  C_36 
REMARK   24  A    between atoms: CA_35  and  CB_38 
REMARK       I    between atoms: C_36  and  N_43 
REMARK   25  A    between atoms: CB_38  and  CG_39 
REMARK   26  A    between atoms: CG_39  and  CD_40 
REMARK   27  A    between atoms: CD_40  and  CE_41 
REMARK   28  A    between atoms: CE_41  and  NZ_42 
REMARK   29  A    between atoms: N_43  and  CA_44 
REMARK   30  A    between atoms: CA_44  and  C_45 
REMARK   31  A    between atoms: CA_44  and  CB_47 
REMARK       I    between atoms: C_45  and  N_52 
REMARK   32  A    between atoms: CB_47  and  CG_48 
REMARK   33  A    between atoms: CG_48  and  CD_49 
REMARK   34  A    between atoms: CD_49  and  CE_50 
REMARK   35  A    between atoms: CE_50  and  NZ_51 
REMARK   36  A    between atoms: N_52  and  CA_53 
REMARK   37  A    between atoms: CA_53  and  C_54 
REMARK       I    between atoms: C_54  and  N_56 
REMARK   38  A    between atoms: N_56  and  CA_57 
REMARK   39  A    between atoms: CA_57  and  C_58 
REMARK   40  A    between atoms: CA_57  and  CB_60 
REMARK   41  A    between atoms: CB_60  and  CG_61 
REMARK   42  A    between atoms: CG_61  and  CD_62 
REMARK       I    between atoms: CD_62  and  NE2_64 
ROOT
ATOM      1  N   LYS d   1       9.936  -0.049  -7.980  0.00  0.00    -0.346 N 
ATOM      2  H39 LYS d   1       9.578   0.287  -8.851  0.00  0.00     0.163 HD
ATOM      3  C   SER d   1      10.273  -1.332  -7.885  0.00  0.00     0.243 C 
ATOM      4  O   SER d   1      10.730  -1.837  -6.861  0.00  0.00    -0.271 OA
ENDROOT
BRANCH   3   5
ATOM      5  CA  SER d   1      10.051  -2.174  -9.143  0.00  0.00     0.109 C 
ATOM      6  H35 SER d   1      10.366  -1.573 -10.009  0.00  0.00     0.090 H 
BRANCH   5   7
ATOM      7  N   SER d   1      10.841  -3.411  -9.152  0.00  0.00    -0.344 N 
ATOM      8  C   LYS d   1      11.143  -4.061 -10.277  0.00  0.00     0.241 C 
ATOM      9  O   LYS d   1      10.778  -3.687 -11.394  0.00  0.00    -0.271 OA
ATOM     10  H34 SER d   1      11.165  -3.781  -8.281  0.00  0.00     0.163 HD
BRANCH   8  11
ATOM     11  CA  LYS d   1      11.970  -5.337 -10.115  0.00  0.00     0.089 C 
ATOM     12  H22 LYS d   1      12.042  -5.551  -9.039  0.00  0.00     0.087 H 
BRANCH  11  13
ATOM     13  N   LYS d   1      11.341  -6.494 -10.758  0.00  0.00    -0.346 N 
ATOM     14  C   LEU d   1      10.147  -6.958 -10.398  0.00  0.00     0.241 C 
ATOM     15  O   LEU d   1       9.439  -6.416  -9.549  0.00  0.00    -0.271 OA
ATOM     16  H21 LYS d   1      11.830  -6.954 -11.499  0.00  0.00     0.163 HD
BRANCH  14  17
ATOM     17  CA  LEU d   1       9.683  -8.230 -11.111  0.00  0.00     0.089 C 
ATOM     18  H11 LEU d   1      10.542  -8.917 -11.140  0.00  0.00     0.087 H 
BRANCH  17  19
ATOM     19  N   LEU d   1       8.598  -8.926 -10.419  0.00  0.00    -0.346 N 
ATOM     20  C   HIS d   1       8.735  -9.475  -9.211  0.00  0.00     0.249 C 
ATOM     21  O   HIS d   1       9.760  -9.377  -8.530  0.00  0.00    -0.271 OA
ATOM     22  H10 LEU d   1       7.710  -8.993 -10.874  0.00  0.00     0.163 HD
BRANCH  20  23
ATOM     23  CA  HIS d   1       7.526 -10.252  -8.691  0.00  0.00     0.181 C 
ATOM     24  H4  HIS d   1       7.568 -11.252  -9.147  0.00  0.00     0.099 H 
BRANCH  23  25
ATOM     25  N   HIS d   1       7.546 -10.447  -7.209  0.00  0.00    -0.066 N 
ATOM     26  H1  HIS d   1       6.728 -10.963  -6.927  0.00  0.00     0.275 HD
ATOM     27  H2  HIS d   1       7.551  -9.549  -6.752  0.00  0.00     0.275 HD
ATOM     28  H3  HIS d   1       8.373 -10.961  -6.949  0.00  0.00     0.275 HD
ENDBRANCH  23  25
BRANCH  23  29
ATOM     29  CB  HIS d   1       6.213  -9.601  -9.139  0.00  0.00     0.011 C 
ATOM     30  H5  HIS d   1       6.447  -8.812  -9.869  0.00  0.00     0.046 H 
ATOM     31  H6  HIS d   1       5.729  -9.153  -8.258  0.00  0.00     0.046 H 
BRANCH  29  32
ATOM     32  CG  HIS d   1       5.252 -10.560  -9.771  0.00  0.00     0.053 A 
ATOM     33  ND1 HIS d   1       5.393 -11.004 -11.068  0.00  0.00    -0.247 NA
ATOM     34  CE1 HIS d   1       4.410 -11.838 -11.356  0.00  0.00     0.064 A 
ATOM     35  NE2 HIS d   1       3.635 -11.950 -10.292  0.00  0.00    -0.359 N 
ATOM     36  H8  HIS d   1       4.263 -12.346 -12.308  0.00  0.00     0.143 H 
ATOM     37  CD2 HIS d   1       4.139 -11.161  -9.287  0.00  0.00     0.002 A 
ATOM     38  H9  HIS d   1       2.789 -12.534 -10.227  0.00  0.00     0.166 HD
ATOM     39  H7  HIS d   1       3.722 -11.041  -8.288  0.00  0.00     0.114 H 
ENDBRANCH  29  32
ENDBRANCH  23  29
ENDBRANCH  20  23
ENDBRANCH  17  19
BRANCH  17  40
ATOM     40  CB  LEU d   1       9.285  -7.917 -12.562  0.00  0.00    -0.035 C 
ATOM     41  H12 LEU d   1      10.163  -7.460 -13.043  0.00  0.00     0.037 H 
ATOM     42  H13 LEU d   1       8.467  -7.183 -12.518  0.00  0.00     0.037 H 
BRANCH  40  43
ATOM     43  CG  LEU d   1       8.815  -9.052 -13.480  0.00  0.00    -0.059 C 
ATOM     44  H14 LEU d   1       7.841  -9.406 -13.110  0.00  0.00     0.038 H 
BRANCH  43  45
ATOM     45  CD1 LEU d   1       8.627  -8.535 -14.901  0.00  0.00    -0.073 C 
ATOM     46  H15 LEU d   1       8.290  -9.358 -15.549  0.00  0.00     0.028 H 
ATOM     47  H16 LEU d   1       9.582  -8.140 -15.277  0.00  0.00     0.028 H 
ATOM     48  H17 LEU d   1       7.873  -7.734 -14.903  0.00  0.00     0.028 H 
ENDBRANCH  43  45
BRANCH  43  49
ATOM     49  CD2 LEU d   1       9.777 -10.233 -13.470  0.00  0.00    -0.073 C 
ATOM     50  H18 LEU d   1       9.903 -10.595 -12.439  0.00  0.00     0.028 H 
ATOM     51  H19 LEU d   1      10.752  -9.915 -13.868  0.00  0.00     0.028 H 
ATOM     52  H20 LEU d   1       9.371 -11.042 -14.095  0.00  0.00     0.028 H 
ENDBRANCH  43  49
ENDBRANCH  40  43
ENDBRANCH  17  40
ENDBRANCH  14  17
ENDBRANCH  11  13
BRANCH  11  53
ATOM     53  CB  LYS d   1      13.391  -5.138 -10.654  0.00  0.00    -0.038 C 
ATOM     54  H23 LYS d   1      13.799  -4.210 -10.226  0.00  0.00     0.036 H 
ATOM     55  H24 LYS d   1      13.338  -5.044 -11.749  0.00  0.00     0.036 H 
BRANCH  53  56
ATOM     56  CG  LYS d   1      14.338  -6.282 -10.314  0.00  0.00    -0.061 C 
ATOM     57  H25 LYS d   1      13.797  -7.233 -10.427  0.00  0.00     0.033 H 
ATOM     58  H26 LYS d   1      14.668  -6.169  -9.271  0.00  0.00     0.033 H 
BRANCH  56  59
ATOM     59  CD  LYS d   1      15.565  -6.309 -11.213  0.00  0.00    -0.043 C 
ATOM     60  H27 LYS d   1      16.181  -5.421 -11.011  0.00  0.00     0.035 H 
ATOM     61  H28 LYS d   1      15.243  -6.301 -12.265  0.00  0.00     0.035 H 
BRANCH  59  62
ATOM     62  CE  LYS d   1      16.389  -7.560 -10.951  0.00  0.00     0.080 C 
ATOM     63  H29 LYS d   1      15.731  -8.437 -11.033  0.00  0.00     0.075 H 
ATOM     64  H30 LYS d   1      16.799  -7.503  -9.932  0.00  0.00     0.075 H 
BRANCH  62  65
ATOM     65  NZ  LYS d   1      17.517  -7.722 -11.908  0.00  0.00    -0.079 N 
ATOM     66  H31 LYS d   1      18.026  -8.564 -11.688  0.00  0.00     0.274 HD
ATOM     67  H32 LYS d   1      18.134  -6.928 -11.838  0.00  0.00     0.274 HD
ATOM     68  H33 LYS d   1      17.155  -7.784 -12.847  0.00  0.00     0.274 HD
ENDBRANCH  62  65
ENDBRANCH  59  62
ENDBRANCH  56  59
ENDBRANCH  53  56
ENDBRANCH  11  53
ENDBRANCH   8  11
ENDBRANCH   5   7
BRANCH   5  69
ATOM     69  CB  SER d   1       8.561  -2.486  -9.293  0.00  0.00     0.044 C 
ATOM     70  H36 SER d   1       8.406  -3.064 -10.216  0.00  0.00     0.077 H 
ATOM     71  H37 SER d   1       8.001  -1.541  -9.354  0.00  0.00     0.077 H 
BRANCH  69  72
ATOM     72  OG  SER d   1       8.084  -3.235  -8.194  0.00  0.00    -0.398 OA
ATOM     73  H38 SER d   1       8.212  -2.738  -7.394  0.00  0.00     0.209 HD
ENDBRANCH  69  72
ENDBRANCH   5  69
ENDBRANCH   3   5
BRANCH   1  74
ATOM     74  CA  LYS d   1      10.066   0.891  -6.869  0.00  0.00     0.089 C 
ATOM     75  H40 LYS d   1      10.948   0.610  -6.275  0.00  0.00     0.087 H 
BRANCH  74  76
ATOM     76  C   LYS d   1       8.841   0.846  -5.973  0.00  0.00     0.241 C 
ATOM     77  O   LYS d   1       8.911   1.187  -4.795  0.00  0.00    -0.271 OA
ATOM     78  N   LYS d   1       7.715   0.451  -6.555  0.00  0.00    -0.346 N 
ATOM     79  H52 LYS d   1       7.721   0.266  -7.538  0.00  0.00     0.163 HD
BRANCH  78  80
ATOM     80  CA  LYS d   1       6.472   0.277  -5.819  0.00  0.00     0.089 C 
ATOM     81  H53 LYS d   1       6.711   0.129  -4.756  0.00  0.00     0.087 H 
BRANCH  80  82
ATOM     82  C   LYS d   1       5.750  -0.968  -6.332  0.00  0.00     0.240 C 
ATOM     83  O   LYS d   1       6.252  -1.665  -7.212  0.00  0.00    -0.271 OA
ATOM     84  N   GLY d   1       4.576  -1.245  -5.773  0.00  0.00    -0.351 N 
ATOM     85  H65 GLY d   1       4.225  -0.635  -5.063  0.00  0.00     0.163 HD
BRANCH  84  86
ATOM     86  CA  GLY d   1       3.780  -2.407  -6.158  0.00  0.00     0.069 C 
ATOM     87  H66 GLY d   1       4.437  -3.166  -6.608  0.00  0.00     0.078 H 
ATOM     88  H67 GLY d   1       3.019  -2.100  -6.891  0.00  0.00     0.078 H 
BRANCH  86  89
ATOM     89  C   GLY d   1       3.097  -2.994  -4.942  0.00  0.00     0.236 C 
ATOM     90  O   GLY d   1       2.757  -4.180  -4.917  0.00  0.00    -0.272 OA
ATOM     91  N   GLN d   1       2.901  -2.139  -3.939  0.00  0.00    -0.345 N 
ATOM     92  H68 GLN d   1       3.159  -1.184  -4.084  0.00  0.00     0.163 HD
BRANCH  91  93
ATOM     93  CA  GLN d   1       2.335  -2.502  -2.641  0.00  0.00     0.096 C 
ATOM     94  H69 GLN d   1       3.123  -3.002  -2.060  0.00  0.00     0.089 H 
BRANCH  93  95
ATOM     95  C   GLN d   1       1.147  -3.458  -2.737  0.00  0.00     0.196 C 
ATOM     96  O   GLN d   1       0.859  -4.224  -1.779  0.00  0.00    -0.646 OA
ATOM     97  O   GLN d   1       0.448  -3.480  -3.785  0.00  0.00    -0.646 OA
ENDBRANCH  93  95
BRANCH  93  98
ATOM     98  CB  GLN d   1       1.907  -1.238  -1.895  0.00  0.00    -0.029 C 
ATOM     99  H70 GLN d   1       1.499  -1.541  -0.919  0.00  0.00     0.037 H 
ATOM    100  H71 GLN d   1       1.119  -0.746  -2.485  0.00  0.00     0.037 H 
BRANCH  98 101
ATOM    101  CG  GLN d   1       3.012  -0.220  -1.646  0.00  0.00     0.011 C 
ATOM    102  H72 GLN d   1       3.320   0.209  -2.611  0.00  0.00     0.047 H 
ATOM    103  H73 GLN d   1       3.867  -0.735  -1.184  0.00  0.00     0.047 H 
BRANCH 101 104
ATOM    104  CD  GLN d   1       2.572   0.910  -0.730  0.00  0.00     0.215 C 
ATOM    105  OE1 GLN d   1       1.380   1.181  -0.577  0.00  0.00    -0.274 OA
ATOM    106  NE2 GLN d   1       3.539   1.575  -0.112  0.00  0.00    -0.370 N 
ATOM    107  H74 GLN d   1       3.312   2.329   0.504  0.00  0.00     0.159 HD
ATOM    108  H75 GLN d   1       4.495   1.322  -0.262  0.00  0.00     0.159 HD
ENDBRANCH 101 104
ENDBRANCH  98 101
ENDBRANCH  93  98
ENDBRANCH  91  93
ENDBRANCH  86  89
ENDBRANCH  84  86
ENDBRANCH  80  82
BRANCH  80 109
ATOM    109  CB  LYS d   1       5.587   1.525  -5.942  0.00  0.00    -0.038 C 
ATOM    110  H54 LYS d   1       4.993   1.440  -6.864  0.00  0.00     0.036 H 
ATOM    111  H55 LYS d   1       6.239   2.408  -6.006  0.00  0.00     0.036 H 
BRANCH 109 112
ATOM    112  CG  LYS d   1       4.632   1.716  -4.770  0.00  0.00    -0.061 C 
ATOM    113  H56 LYS d   1       5.088   1.285  -3.866  0.00  0.00     0.033 H 
ATOM    114  H57 LYS d   1       3.690   1.193  -4.990  0.00  0.00     0.033 H 
BRANCH 112 115
ATOM    115  CD  LYS d   1       4.332   3.182  -4.517  0.00  0.00    -0.043 C 
ATOM    116  H58 LYS d   1       3.486   3.490  -5.148  0.00  0.00     0.035 H 
ATOM    117  H59 LYS d   1       5.218   3.780  -4.774  0.00  0.00     0.035 H 
BRANCH 115 118
ATOM    118  CE  LYS d   1       3.976   3.422  -3.053  0.00  0.00     0.080 C 
ATOM    119  H60 LYS d   1       3.194   2.707  -2.760  0.00  0.00     0.075 H 
ATOM    120  H61 LYS d   1       3.593   4.448  -2.948  0.00  0.00     0.075 H 
BRANCH 118 121
ATOM    121  NZ  LYS d   1       5.143   3.253  -2.140  0.00  0.00    -0.079 N 
ATOM    122  H62 LYS d   1       4.853   3.422  -1.190  0.00  0.00     0.274 HD
ATOM    123  H63 LYS d   1       5.865   3.909  -2.393  0.00  0.00     0.274 HD
ATOM    124  H64 LYS d   1       5.499   2.313  -2.220  0.00  0.00     0.274 HD
ENDBRANCH 118 121
ENDBRANCH 115 118
ENDBRANCH 112 115
ENDBRANCH 109 112
ENDBRANCH  80 109
ENDBRANCH  78  80
ENDBRANCH  74  76
BRANCH  74 125
ATOM    125  CB  LYS d   1      10.257   2.314  -7.391  0.00  0.00    -0.038 C 
ATOM    126  H41 LYS d   1      10.271   3.000  -6.531  0.00  0.00     0.036 H 
ATOM    127  H42 LYS d   1       9.406   2.561  -8.043  0.00  0.00     0.036 H 
BRANCH 125 128
ATOM    128  CG  LYS d   1      11.529   2.511  -8.175  0.00  0.00    -0.061 C 
ATOM    129  H43 LYS d   1      11.649   1.675  -8.880  0.00  0.00     0.033 H 
ATOM    130  H44 LYS d   1      12.381   2.529  -7.479  0.00  0.00     0.033 H 
BRANCH 128 131
ATOM    131  CD  LYS d   1      11.496   3.812  -8.951  0.00  0.00    -0.043 C 
ATOM    132  H45 LYS d   1      11.485   4.654  -8.244  0.00  0.00     0.035 H 
ATOM    133  H46 LYS d   1      10.587   3.841  -9.570  0.00  0.00     0.035 H 
BRANCH 131 134
ATOM    134  CE  LYS d   1      12.710   3.930  -9.845  0.00  0.00     0.080 C 
ATOM    135  H47 LYS d   1      13.612   3.987  -9.218  0.00  0.00     0.075 H 
ATOM    136  H48 LYS d   1      12.623   4.846 -10.448  0.00  0.00     0.075 H 
BRANCH 134 137
ATOM    137  NZ  LYS d   1      12.828   2.757 -10.759  0.00  0.00    -0.079 N 
ATOM    138  H49 LYS d   1      13.644   2.865 -11.340  0.00  0.00     0.274 HD
ATOM    139  H50 LYS d   1      12.007   2.700 -11.341  0.00  0.00     0.274 HD
ATOM    140  H51 LYS d   1      12.913   1.913 -10.214  0.00  0.00     0.274 HD
ENDBRANCH 134 137
ENDBRANCH 131 134
ENDBRANCH 128 131
ENDBRANCH 125 128
ENDBRANCH  74 125
ENDBRANCH   1  74
TORSDOF 42
