REMARK  13 active torsions:
REMARK  status: ('A' for Active; 'I' for Inactive)
REMARK    1  A    between atoms: C24_34  and  N1_2 
REMARK    2  A    between atoms: N2_5  and  C18_28 
REMARK    3  A    between atoms: C11_21  and  O2_6 
REMARK    4  A    between atoms: O2_6  and  C17_27 
REMARK    5  A    between atoms: C19_29  and  O4_12 
REMARK    6  A    between atoms: O4_12  and  C20_30 
REMARK    7  A    between atoms: N6_16  and  C8_18 
REMARK    8  A    between atoms: C23_33  and  N6_16 
REMARK    9  A    between atoms: C15_25  and  C9_19 
REMARK   10  A    between atoms: C18_28  and  C19_29 
REMARK   11  A    between atoms: C20_30  and  C21_31 
REMARK   12  A    between atoms: C21_31  and  C22_32 
REMARK   13  A    between atoms: C23_33  and  C24_34 
ROOT
ATOM      1  N2  TGE d   1      20.168  -8.856  12.383  0.00  0.00    -0.307 N 
ATOM      2  N3  TGE d   1      20.365  -8.242  15.182  0.00  0.00    -0.223 NA
ATOM      3  O3  TGE d   1      21.732 -10.494  12.706  0.00  0.00    -0.264 OA
ATOM      4  C5  TGE d   1      19.513  -7.549  14.314  0.00  0.00     0.103 A 
ATOM      5  N5  TGE d   1      17.804  -5.831  14.137  0.00  0.00    -0.258 NA
ATOM      6  C6  TGE d   1      19.393  -7.824  12.939  0.00  0.00     0.070 A 
ATOM      7  C7  TGE d   1      21.048  -9.592  13.184  0.00  0.00     0.294 A 
ATOM      8  C8  TGE d   1      21.079  -9.218  14.640  0.00  0.00     0.193 A 
ATOM      9  C14 TGE d   1      18.693  -6.527  14.855  0.00  0.00     0.033 A 
ATOM     10  C15 TGE d   1      17.698  -6.126  12.802  0.00  0.00     0.070 A 
ATOM     11  C16 TGE d   1      18.473  -7.094  12.173  0.00  0.00    -0.026 A 
ATOM     12  H14 TGE d   1      18.792  -6.296  15.910  0.00  0.00     0.118 H 
ATOM     13  H15 TGE d   1      18.368  -7.281  11.110  0.00  0.00     0.090 H 
ENDROOT
BRANCH   8  14
ATOM     14  N6  TGE d   1      21.929  -9.977  15.417  0.00  0.00    -0.369 N 
ATOM     15  H10 TGE d   1      22.497 -10.715  14.977  0.00  0.00     0.161 HD
BRANCH  14  16
ATOM     16  C23 TGE d   1      22.034  -9.748  16.858  0.00  0.00     0.017 C 
ATOM     17  H30 TGE d   1      22.230  -8.680  17.034  0.00  0.00     0.066 H 
ATOM     18  H31 TGE d   1      22.870 -10.344  17.252  0.00  0.00     0.066 H 
BRANCH  16  19
ATOM     19  C24 TGE d   1      20.744 -10.146  17.605  0.00  0.00     0.098 C 
ATOM     20  H32 TGE d   1      20.601  -9.468  18.459  0.00  0.00     0.078 H 
ATOM     21  H33 TGE d   1      19.890 -10.056  16.918  0.00  0.00     0.078 H 
BRANCH  19  22
ATOM     22  N1  TGE d   1      20.821 -11.550  18.105  0.00  0.00    -0.066 N 
ATOM     23  C1  TGE d   1      20.884 -12.540  16.991  0.00  0.00     0.103 C 
ATOM     24  C2  TGE d   1      20.937 -13.953  17.601  0.00  0.00     0.042 C 
ATOM     25  H1  TGE d   1      21.785 -12.362  16.386  0.00  0.00     0.079 H 
ATOM     26  H2  TGE d   1      19.991 -12.443  16.356  0.00  0.00     0.079 H 
ATOM     27  O1  TGE d   1      19.802 -14.189  18.388  0.00  0.00    -0.388 OA
ATOM     28  H4  TGE d   1      21.837 -14.044  18.227  0.00  0.00     0.076 H 
ATOM     29  H5  TGE d   1      20.977 -14.696  16.791  0.00  0.00     0.076 H 
ATOM     30  C3  TGE d   1      19.692 -13.278  19.447  0.00  0.00     0.042 C 
ATOM     31  C4  TGE d   1      19.609 -11.834  18.931  0.00  0.00     0.103 C 
ATOM     32  H6  TGE d   1      20.573 -13.376  20.098  0.00  0.00     0.076 H 
ATOM     33  H7  TGE d   1      18.783 -13.506  20.023  0.00  0.00     0.076 H 
ATOM     34  H8  TGE d   1      18.705 -11.712  18.316  0.00  0.00     0.079 H 
ATOM     35  H9  TGE d   1      19.570 -11.139  19.782  0.00  0.00     0.079 H 
ATOM     36  H3  TGE d   1      21.647 -11.648  18.674  0.00  0.00     0.280 HD
ENDBRANCH  19  22
ENDBRANCH  16  19
ENDBRANCH  14  16
ENDBRANCH   8  14
BRANCH   1  37
ATOM     37  C18 TGE d   1      20.047  -9.194  10.949  0.00  0.00     0.023 C 
ATOM     38  H19 TGE d   1      19.076  -8.834  10.580  0.00  0.00     0.068 H 
ATOM     39  H20 TGE d   1      20.100 -10.287  10.836  0.00  0.00     0.068 H 
BRANCH  37  40
ATOM     40  C19 TGE d   1      21.166  -8.553  10.110  0.00  0.00     0.035 C 
ATOM     41  H21 TGE d   1      22.141  -8.709  10.595  0.00  0.00     0.076 H 
ATOM     42  H22 TGE d   1      21.184  -8.993   9.102  0.00  0.00     0.076 H 
BRANCH  40  43
ATOM     43  O4  TGE d   1      20.875  -7.176  10.035  0.00  0.00    -0.390 OA
BRANCH  43  44
ATOM     44  C20 TGE d   1      21.869  -6.459   9.331  0.00  0.00     0.019 C 
ATOM     45  H23 TGE d   1      21.982  -6.863   8.314  0.00  0.00     0.074 H 
ATOM     46  H24 TGE d   1      22.831  -6.523   9.860  0.00  0.00     0.074 H 
BRANCH  44  47
ATOM     47  C21 TGE d   1      21.393  -5.007   9.273  0.00  0.00    -0.049 C 
ATOM     48  H25 TGE d   1      22.231  -4.367   8.961  0.00  0.00     0.035 H 
ATOM     49  H26 TGE d   1      21.051  -4.701  10.273  0.00  0.00     0.035 H 
BRANCH  47  50
ATOM     50  C22 TGE d   1      20.251  -4.843   8.287  0.00  0.00    -0.075 C 
ATOM     51  H27 TGE d   1      19.931  -3.791   8.268  0.00  0.00     0.027 H 
ATOM     52  H28 TGE d   1      19.407  -5.477   8.595  0.00  0.00     0.027 H 
ATOM     53  H29 TGE d   1      20.587  -5.142   7.283  0.00  0.00     0.027 H 
ENDBRANCH  47  50
ENDBRANCH  44  47
ENDBRANCH  43  44
ENDBRANCH  40  43
ENDBRANCH  37  40
ENDBRANCH   1  37
BRANCH  10  54
ATOM     54  C9  TGE d   1      16.716  -5.377  12.024  0.00  0.00     0.010 A 
ATOM     55  C10 TGE d   1      15.567  -4.819  12.610  0.00  0.00     0.017 A 
ATOM     56  N4  TGE d   1      14.618  -4.155  11.920  0.00  0.00    -0.236 NA
ATOM     57  H11 TGE d   1      15.436  -4.929  13.680  0.00  0.00     0.116 H 
ATOM     58  C11 TGE d   1      14.832  -4.033  10.571  0.00  0.00     0.163 A 
ATOM     59  C12 TGE d   1      15.960  -4.525   9.901  0.00  0.00    -0.031 A 
ATOM     60  C13 TGE d   1      16.908  -5.196  10.656  0.00  0.00    -0.065 A 
ATOM     61  H12 TGE d   1      16.086  -4.386   8.833  0.00  0.00     0.090 H 
ATOM     62  H13 TGE d   1      17.803  -5.582  10.181  0.00  0.00     0.085 H 
BRANCH  58  63
ATOM     63  O2  TGE d   1      13.806  -3.374   9.973  0.00  0.00    -0.339 OA
BRANCH  63  64
ATOM     64  C17 TGE d   1      13.926  -3.139   8.589  0.00  0.00     0.012 C 
ATOM     65  H16 TGE d   1      13.036  -2.602   8.230  0.00  0.00     0.067 H 
ATOM     66  H17 TGE d   1      14.012  -4.100   8.060  0.00  0.00     0.067 H 
ATOM     67  H18 TGE d   1      14.823  -2.532   8.396  0.00  0.00     0.067 H 
ENDBRANCH  63  64
ENDBRANCH  58  63
ENDBRANCH  10  54
TORSDOF 13
