REMARK  7 active torsions:
REMARK  status: ('A' for Active; 'I' for Inactive)
REMARK    1  A    between atoms: C4_4  and  N1_7 
REMARK       I    between atoms: N1_7  and  C7_8 
REMARK    2  A    between atoms: C7_8  and  C8_10 
REMARK       I    between atoms: C8_10  and  N2_11 
REMARK    3  A    between atoms: N2_11  and  C9_12 
REMARK    4  A    between atoms: C11_14  and  C14_18 
REMARK    5  A    between atoms: C11_14  and  C15_19 
REMARK    6  A    between atoms: C12_16  and  C16_20 
REMARK    7  A    between atoms: C12_16  and  C17_21 
ROOT
ATOM      1  C9  03G d   1     -20.501  -0.482  20.523  0.00  0.00     0.017 C 
ATOM      2  C10 03G d   1     -19.508   0.080  21.522  0.00  0.00    -0.016 C 
ATOM      3  C11 03G d   1     -18.907   1.398  21.001  0.00  0.00     0.121 C 
ATOM      4  N3  03G d   1     -18.148   1.245  19.736  0.00  0.00    -0.059 N 
ATOM      5  C12 03G d   1     -18.782   0.393  18.688  0.00  0.00     0.121 C 
ATOM      6  C13 03G d   1     -19.724  -0.757  19.198  0.00  0.00    -0.016 C 
ATOM      7  H   03G d   1     -21.316   0.228  20.380  0.00  0.00     0.072 H 
ATOM      8  H   03G d   1     -18.705  -0.642  21.668  0.00  0.00     0.039 H 
ATOM      9  H   03G d   1     -20.023   0.273  22.463  0.00  0.00     0.039 H 
ATOM     10  H   03G d   1     -17.270   0.787  19.983  0.00  0.00     0.279 HD
ATOM     11  H   03G d   1     -18.070   2.180  19.335  0.00  0.00     0.279 HD
ATOM     12  H   03G d   1     -20.481  -0.892  18.426  0.00  0.00     0.039 H 
ATOM     13  H   03G d   1     -19.077  -1.611  19.398  0.00  0.00     0.039 H 
ENDROOT
BRANCH   1  14
ATOM     14  N2  03G d   1     -21.067  -1.753  21.001  0.00  0.00    -0.348 N 
ATOM     15  C8  03G d   1     -22.148  -2.352  20.350  0.00  0.00     0.310 C 
ATOM     16  O1  03G d   1     -22.980  -1.679  19.745  0.00  0.00    -0.262 OA
ATOM     17  H   03G d   1     -20.663  -2.204  21.822  0.00  0.00     0.163 HD
BRANCH  15  18
ATOM     18  C7  03G d   1     -22.355  -3.926  20.528  0.00  0.00     0.313 C 
ATOM     19  N1  03G d   1     -23.512  -4.543  19.957  0.00  0.00    -0.319 N 
ATOM     20  H   03G d   1     -24.220  -3.944  19.532  0.00  0.00     0.169 HD
ATOM     21  O2  03G d   1     -21.491  -4.517  21.094  0.00  0.00    -0.262 OA
BRANCH  19  22
ATOM     22  C4  03G d   1     -23.731  -5.988  19.952  0.00  0.00     0.035 A 
ATOM     23  C3  03G d   1     -23.281  -6.839  20.953  0.00  0.00    -0.056 A 
ATOM     24  C2  03G d   1     -23.437  -8.235  20.893  0.00  0.00    -0.060 A 
ATOM     25  H   03G d   1     -22.786  -6.406  21.822  0.00  0.00     0.087 H 
ATOM     26  C1  03G d   1     -24.041  -8.880  19.817  0.00  0.00     0.034 A 
ATOM     27  H   03G d   1     -23.070  -8.838  21.724  0.00  0.00     0.086 H 
ATOM     28  C6  03G d   1     -24.479  -8.041  18.802  0.00  0.00    -0.060 A 
ATOM     29 CL1  03G d   1     -24.174 -10.362  19.781  0.00  0.00    -0.084 Cl
ATOM     30  C5  03G d   1     -24.331  -6.637  18.847  0.00  0.00    -0.056 A 
ATOM     31  H   03G d   1     -24.959  -8.486  17.930  0.00  0.00     0.086 H 
ATOM     32  H   03G d   1     -24.688  -6.038  18.009  0.00  0.00     0.087 H 
ENDBRANCH  19  22
ENDBRANCH  15  18
ENDBRANCH   1  14
BRANCH   3  33
ATOM     33  C14 03G d   1     -17.968   1.989  22.074  0.00  0.00    -0.045 C 
ATOM     34  H   03G d   1     -18.535   2.180  22.985  0.00  0.00     0.030 H 
ATOM     35  H   03G d   1     -17.167   1.280  22.285  0.00  0.00     0.030 H 
ATOM     36  H   03G d   1     -17.541   2.922  21.707  0.00  0.00     0.030 H 
ENDBRANCH   3  33
BRANCH   3  37
ATOM     37  C15 03G d   1     -20.074   2.406  20.817  0.00  0.00    -0.045 C 
ATOM     38  H   03G d   1     -20.790   2.004  20.100  0.00  0.00     0.030 H 
ATOM     39  H   03G d   1     -20.569   2.566  21.775  0.00  0.00     0.030 H 
ATOM     40  H   03G d   1     -19.680   3.353  20.448  0.00  0.00     0.030 H 
ENDBRANCH   3  37
BRANCH   5  41
ATOM     41  C16 03G d   1     -19.552   1.270  17.678  0.00  0.00    -0.045 C 
ATOM     42  H   03G d   1     -20.328   1.828  18.201  0.00  0.00     0.030 H 
ATOM     43  H   03G d   1     -18.861   1.966  17.202  0.00  0.00     0.030 H 
ATOM     44  H   03G d   1     -20.009   0.633  16.920  0.00  0.00     0.030 H 
ENDBRANCH   5  41
BRANCH   5  45
ATOM     45  C17 03G d   1     -17.668  -0.271  17.867  0.00  0.00    -0.045 C 
ATOM     46  H   03G d   1     -17.053   0.499  17.401  0.00  0.00     0.030 H 
ATOM     47  H   03G d   1     -17.050  -0.883  18.524  0.00  0.00     0.030 H 
ATOM     48  H   03G d   1     -18.113  -0.899  17.095  0.00  0.00     0.030 H 
ENDBRANCH   5  45
TORSDOF 7
