REMARK WARNING: 32 MAX_TORS EXCEEDED!!!
REMARK  42 active torsions:
REMARK  status: ('A' for Active; 'I' for Inactive)
REMARK    1  A    between atoms: O2_18  and  C1_1 
REMARK    2  A    between atoms: C2_2  and  O2_7 
REMARK    3  A    between atoms: C3_3  and  O3_8 
REMARK    4  A    between atoms: C4_4  and  O4_9 
REMARK    5  A    between atoms: C5_5  and  C6_6 
REMARK    6  A    between atoms: C6_6  and  O6_11 
REMARK    7  A    between atoms: O4_31  and  C1_12 
REMARK    8  A    between atoms: C2_13  and  O2_18 
REMARK    9  A    between atoms: C3_14  and  O3_19 
REMARK   10  A    between atoms: C4_15  and  O4_20 
REMARK   11  A    between atoms: C5_16  and  C6_17 
REMARK   12  A    between atoms: C6_17  and  O6_22 
REMARK   13  A    between atoms: O3_19  and  C1_66 
REMARK   14  A    between atoms: O3_40  and  C1_23 
REMARK   15  A    between atoms: C2_24  and  O2_29 
REMARK   16  A    between atoms: C3_25  and  O3_30 
REMARK   17  A    between atoms: C4_26  and  O4_31 
REMARK   18  A    between atoms: C5_27  and  C6_28 
REMARK   19  A    between atoms: O2_50  and  C1_33 
REMARK   20  A    between atoms: C2_34  and  O2_39 
REMARK   21  A    between atoms: C3_35  and  O3_40 
REMARK   22  A    between atoms: C4_36  and  O4_41 
REMARK   23  A    between atoms: C5_37  and  C6_38 
REMARK   24  A    between atoms: C6_38  and  O6_43 
REMARK   25  A    between atoms: O4_64  and  C1_44 
REMARK   26  A    between atoms: C2_45  and  O2_50 
REMARK   27  A    between atoms: C3_46  and  O3_51 
REMARK   28  A    between atoms: C4_47  and  O4_52 
REMARK   29  A    between atoms: C5_48  and  C6_49 
REMARK   30  A    between atoms: C6_49  and  O6_54 
REMARK   31  A    between atoms: O3_51  and  C1_75 
REMARK   32  A    between atoms: C1_55  and  O1_61 
REMARK   33  A    between atoms: C2_56  and  O2_62 
REMARK   34  A    between atoms: C3_57  and  O3_63 
REMARK   35  A    between atoms: C4_58  and  O4_64 
REMARK   36  A    between atoms: C5_59  and  C6_60 
REMARK   37  A    between atoms: C2_67  and  O2_68 
REMARK   38  A    between atoms: C4_70  and  O4_71 
REMARK   39  A    between atoms: C5_72  and  C6_74 
REMARK   40  A    between atoms: C2_76  and  O2_77 
REMARK   41  A    between atoms: C4_79  and  O4_80 
REMARK   42  A    between atoms: C5_81  and  C6_83 
ROOT
ATOM      1  O3  GLA d   1      10.983 -11.294  35.281  0.00  0.00    -0.348 OA
ENDROOT
BRANCH   1   2
ATOM      2  C1  RAM d   1      11.897 -12.367  35.577  0.00  0.00     0.159 C 
ATOM      3  C2  RAM d   1      11.060 -13.633  35.714  0.00  0.00     0.110 C 
ATOM      4  C3  RAM d   1      10.331 -13.908  34.399  0.00  0.00     0.092 C 
ATOM      5  H   GLA d   1      10.321 -13.504  36.519  0.00  0.00     0.094 H 
ATOM      6  C4  RAM d   1      11.293 -14.015  33.230  0.00  0.00     0.093 C 
ATOM      7  H   GLA d   1       9.632 -13.081  34.205  0.00  0.00     0.091 H 
ATOM      8  C5  RAM d   1      12.250 -12.800  33.247  0.00  0.00     0.066 C 
ATOM      9  H   GLA d   1      11.835 -14.971  33.276  0.00  0.00     0.091 H 
ATOM     10  O5  RAM d   1      12.870 -12.563  34.548  0.00  0.00    -0.351 OA
ATOM     11  H   GLA d   1      11.684 -11.900  32.966  0.00  0.00     0.086 H 
ATOM     12  H   GLA d   1      12.416 -12.153  36.523  0.00  0.00     0.133 H 
BRANCH   3  13
ATOM     13  O2  RAM d   1      11.937 -14.722  36.039  0.00  0.00    -0.388 OA
ATOM     14  H   GLA d   1      12.578 -14.828  35.346  0.00  0.00     0.210 HD
ENDBRANCH   3  13
BRANCH   4  15
ATOM     15  O3  RAM d   1       9.588 -15.138  34.517  0.00  0.00    -0.390 OA
ATOM     16  H   GLA d   1       9.101 -15.290  33.716  0.00  0.00     0.210 HD
ENDBRANCH   4  15
BRANCH   6  17
ATOM     17  O4  RAM d   1      10.634 -13.840  31.952  0.00  0.00    -0.348 OA
BRANCH  17  18
ATOM     18  C1  MAN d   1       9.720 -14.793  31.408  0.00  0.00     0.159 C 
ATOM     19  C2  MAN d   1       9.575 -14.417  29.932  0.00  0.00     0.116 C 
ATOM     20  C3  MAN d   1       9.068 -12.995  29.777  0.00  0.00     0.098 C 
ATOM     21  H   GLA d   1      10.545 -14.563  29.435  0.00  0.00     0.095 H 
ATOM     22  C4  MAN d   1       7.715 -12.860  30.508  0.00  0.00     0.090 C 
ATOM     23  H   GLA d   1       9.794 -12.316  30.249  0.00  0.00     0.091 H 
ATOM     24  C5  MAN d   1       7.808 -13.356  31.965  0.00  0.00     0.089 C 
ATOM     25  H   GLA d   1       6.957 -13.457  29.979  0.00  0.00     0.091 H 
ATOM     26  O5  MAN d   1       8.435 -14.667  32.065  0.00  0.00    -0.348 OA
ATOM     27  H   GLA d   1       8.391 -12.628  32.548  0.00  0.00     0.090 H 
ATOM     28  H   GLA d   1      10.105 -15.817  31.520  0.00  0.00     0.133 H 
BRANCH  19  29
ATOM     29  O2  MAN d   1       8.542 -15.091  29.238  0.00  0.00    -0.346 OA
BRANCH  29  30
ATOM     30  C1  GLA d   1       8.960 -16.373  28.811  0.00  0.00     0.159 C 
ATOM     31  C2  GLA d   1       8.103 -16.846  27.623  0.00  0.00     0.110 C 
ATOM     32  C3  GLA d   1       6.617 -16.701  27.979  0.00  0.00     0.092 C 
ATOM     33  H   GLA d   1       8.319 -17.908  27.436  0.00  0.00     0.094 H 
ATOM     34  C4  GLA d   1       6.266 -17.329  29.338  0.00  0.00     0.090 C 
ATOM     35  H   GLA d   1       6.376 -15.628  28.019  0.00  0.00     0.091 H 
ATOM     36  C5  GLA d   1       7.335 -17.072  30.423  0.00  0.00     0.089 C 
ATOM     37  H   GLA d   1       5.316 -16.898  29.685  0.00  0.00     0.091 H 
ATOM     38  O5  GLA d   1       8.690 -17.249  29.925  0.00  0.00    -0.348 OA
ATOM     39  H   GLA d   1       7.216 -16.036  30.774  0.00  0.00     0.090 H 
ATOM     40  H   GLA d   1      10.027 -16.373  28.544  0.00  0.00     0.133 H 
BRANCH  31  41
ATOM     41  O2  GLA d   1       8.413 -16.100  26.422  0.00  0.00    -0.388 OA
ATOM     42  H   GLA d   1       8.217 -15.181  26.562  0.00  0.00     0.210 HD
ENDBRANCH  31  41
BRANCH  32  43
ATOM     43  O3  GLA d   1       5.821 -17.318  26.976  0.00  0.00    -0.390 OA
ATOM     44  H   GLA d   1       6.029 -16.938  26.130  0.00  0.00     0.210 HD
ENDBRANCH  32  43
BRANCH  34  45
ATOM     45  O4  GLA d   1       6.102 -18.727  29.149  0.00  0.00    -0.390 OA
ATOM     46  H   GLA d   1       5.444 -18.880  28.481  0.00  0.00     0.210 HD
ENDBRANCH  34  45
BRANCH  36  47
ATOM     47  C6  GLA d   1       7.184 -18.033  31.627  0.00  0.00     0.043 C 
ATOM     48  H   GLA d   1       8.179 -18.232  32.053  0.00  0.00     0.078 H 
ATOM     49  H   GLA d   1       6.739 -18.976  31.278  0.00  0.00     0.078 H 
BRANCH  47  50
ATOM     50  O6  GLA d   1       6.345 -17.470  32.646  0.00  0.00    -0.398 OA
ATOM     51  H   GLA d   1       6.272 -18.082  33.369  0.00  0.00     0.209 HD
ENDBRANCH  47  50
ENDBRANCH  36  47
ENDBRANCH  29  30
ENDBRANCH  19  29
BRANCH  20  52
ATOM     52  O3  MAN d   1       8.924 -12.603  28.380  0.00  0.00    -0.348 OA
BRANCH  52  53
ATOM     53  C1  PZU d   1       9.911 -11.621  27.998  0.00  0.00     0.157 C 
ATOM     54  C2  PZU d   1       9.518 -10.962  26.664  0.00  0.00     0.085 C 
ATOM     55  C3  PZU d   1       9.460 -12.024  25.556  0.00  0.00    -0.010 C 
ATOM     56  H   GLA d   1      10.274 -10.209  26.396  0.00  0.00     0.090 H 
ATOM     57  C4  PZU d   1      10.819 -12.717  25.441  0.00  0.00     0.062 C 
ATOM     58  H   GLA d   1       9.212 -11.542  24.599  0.00  0.00     0.041 H 
ATOM     59  H   GLA d   1       8.689 -12.769  25.802  0.00  0.00     0.041 H 
ATOM     60  C5  PZU d   1      11.181 -13.276  26.824  0.00  0.00     0.063 C 
ATOM     61  H   GLA d   1      11.578 -11.988  25.122  0.00  0.00     0.086 H 
ATOM     62  O5  PZU d   1      11.223 -12.186  27.801  0.00  0.00    -0.351 OA
ATOM     63  H   GLA d   1      10.397 -13.984  27.129  0.00  0.00     0.086 H 
ATOM     64  H   GLA d   1       9.963 -10.857  28.788  0.00  0.00     0.133 H 
BRANCH  54  65
ATOM     65  O2  PZU d   1       8.239 -10.311  26.817  0.00  0.00    -0.391 OA
ATOM     66  H   GLA d   1       7.992  -9.903  25.995  0.00  0.00     0.210 HD
ENDBRANCH  54  65
BRANCH  57  67
ATOM     67  O4  PZU d   1      10.767 -13.801  24.483  0.00  0.00    -0.393 OA
ATOM     68  H   GLA d   1      11.620 -14.215  24.429  0.00  0.00     0.210 HD
ENDBRANCH  57  67
BRANCH  60  69
ATOM     69  C6  PZU d   1      12.515 -14.033  26.777  0.00  0.00    -0.050 C 
ATOM     70  H   GLA d   1      12.751 -14.423  27.778  0.00  0.00     0.031 H 
ATOM     71  H   GLA d   1      13.313 -13.350  26.452  0.00  0.00     0.031 H 
ATOM     72  H   GLA d   1      12.437 -14.870  26.067  0.00  0.00     0.031 H 
ENDBRANCH  60  69
ENDBRANCH  52  53
ENDBRANCH  20  52
BRANCH  22  73
ATOM     73  O4  MAN d   1       7.337 -11.475  30.481  0.00  0.00    -0.390 OA
ATOM     74  H   GLA d   1       7.988 -10.961  30.945  0.00  0.00     0.210 HD
ENDBRANCH  22  73
BRANCH  24  75
ATOM     75  C6  MAN d   1       6.401 -13.497  32.567  0.00  0.00     0.043 C 
ATOM     76  H   GLA d   1       6.250 -14.529  32.917  0.00  0.00     0.078 H 
ATOM     77  H   GLA d   1       5.646 -13.255  31.804  0.00  0.00     0.078 H 
BRANCH  75  78
ATOM     78  O6  MAN d   1       6.279 -12.594  33.667  0.00  0.00    -0.398 OA
ATOM     79  H   GLA d   1       5.412 -12.674  34.046  0.00  0.00     0.209 HD
ENDBRANCH  75  78
ENDBRANCH  24  75
ENDBRANCH  17  18
ENDBRANCH   6  17
BRANCH   8  80
ATOM     80  C6  RAM d   1      13.339 -13.070  32.200  0.00  0.00    -0.050 C 
ATOM     81  H   GLA d   1      14.045 -12.226  32.179  0.00  0.00     0.031 H 
ATOM     82  H   GLA d   1      12.875 -13.185  31.209  0.00  0.00     0.031 H 
ATOM     83  H   GLA d   1      13.878 -13.992  32.461  0.00  0.00     0.031 H 
ENDBRANCH   8  80
ENDBRANCH   1   2
BRANCH   1  84
ATOM     84  C3  GLA d   1      11.637 -10.007  35.301  0.00  0.00     0.098 C 
ATOM     85  C2  GLA d   1      11.311  -9.280  36.611  0.00  0.00     0.110 C 
ATOM     86  C1  GLA d   1      11.825  -7.856  36.573  0.00  0.00     0.159 C 
ATOM     87  H   GLA d   1      10.223  -9.278  36.770  0.00  0.00     0.094 H 
ATOM     88  O5  GLA d   1      11.294  -7.191  35.400  0.00  0.00    -0.348 OA
ATOM     89  H   GLA d   1      11.509  -7.323  37.482  0.00  0.00     0.133 H 
ATOM     90  C5  GLA d   1      11.614  -7.791  34.141  0.00  0.00     0.089 C 
ATOM     91  C4  GLA d   1      11.079  -9.236  34.105  0.00  0.00     0.090 C 
ATOM     92  H   GLA d   1      12.703  -7.796  33.988  0.00  0.00     0.090 H 
ATOM     93  H   GLA d   1      11.396  -9.722  33.171  0.00  0.00     0.091 H 
ATOM     94  H   GLA d   1      12.726 -10.126  35.206  0.00  0.00     0.091 H 
BRANCH  85  95
ATOM     95  O2  GLA d   1      11.967  -9.959  37.695  0.00  0.00    -0.388 OA
ATOM     96  H   GLA d   1      12.906  -9.954  37.549  0.00  0.00     0.210 HD
ENDBRANCH  85  95
BRANCH  86  97
ATOM     97  O2  MAN d   1      13.264  -7.864  36.485  0.00  0.00    -0.346 OA
BRANCH  97  98
ATOM     98  C2  MAN d   1      13.848  -6.693  37.043  0.00  0.00     0.116 C 
ATOM     99  C1  MAN d   1      14.067  -5.619  35.998  0.00  0.00     0.159 C 
ATOM    100  O5  MAN d   1      14.927  -6.097  34.931  0.00  0.00    -0.348 OA
ATOM    101  H   GLA d   1      13.107  -5.284  35.577  0.00  0.00     0.133 H 
ATOM    102  C5  MAN d   1      16.213  -6.552  35.383  0.00  0.00     0.089 C 
ATOM    103  C4  MAN d   1      16.094  -7.591  36.519  0.00  0.00     0.090 C 
ATOM    104  H   GLA d   1      16.798  -5.696  35.750  0.00  0.00     0.090 H 
ATOM    105  C3  MAN d   1      15.175  -7.101  37.652  0.00  0.00     0.098 C 
ATOM    106  H   GLA d   1      15.658  -8.509  36.098  0.00  0.00     0.091 H 
ATOM    107  H   GLA d   1      15.635  -6.255  38.183  0.00  0.00     0.091 H 
ATOM    108  H   GLA d   1      13.187  -6.295  37.827  0.00  0.00     0.095 H 
BRANCH  99 109
ATOM    109  O4  RAM d   1      14.700  -4.580  36.692  0.00  0.00    -0.348 OA
BRANCH 109 110
ATOM    110  C4  RAM d   1      14.534  -3.281  36.129  0.00  0.00     0.093 C 
ATOM    111  C3  RAM d   1      15.941  -2.917  35.634  0.00  0.00     0.092 C 
ATOM    112  C2  RAM d   1      16.379  -1.445  35.939  0.00  0.00     0.110 C 
ATOM    113  H   GLA d   1      16.618  -3.539  36.238  0.00  0.00     0.091 H 
ATOM    114  C1  RAM d   1      15.382  -0.509  36.589  0.00  0.00     0.156 C 
ATOM    115  H   GLA d   1      17.096  -1.614  36.756  0.00  0.00     0.094 H 
ATOM    116  O5  RAM d   1      14.096  -1.037  36.896  0.00  0.00    -0.351 OA
ATOM    117  H   GLA d   1      15.280   0.471  36.099  0.00  0.00     0.133 H 
ATOM    118  C5  RAM d   1      14.117  -2.404  37.299  0.00  0.00     0.066 C 
ATOM    119  H   GLA d   1      14.810  -2.556  38.140  0.00  0.00     0.086 H 
ATOM    120  H   GLA d   1      13.794  -3.252  35.316  0.00  0.00     0.091 H 
BRANCH 111 121
ATOM    121  O3  RAM d   1      16.183  -3.312  34.294  0.00  0.00    -0.390 OA
ATOM    122  H   GLA d   1      17.065  -3.061  34.045  0.00  0.00     0.210 HD
ENDBRANCH 111 121
BRANCH 112 123
ATOM    123  O2  RAM d   1      17.183  -0.762  34.977  0.00  0.00    -0.388 OA
ATOM    124  H   GLA d   1      16.714  -0.711  34.153  0.00  0.00     0.210 HD
ENDBRANCH 112 123
BRANCH 114 125
ATOM    125  O1  RAM d   1      16.253  -0.564  37.728  0.00  0.00    -0.369 OA
ATOM    126  H   GLA d   1      15.878  -0.055  38.437  0.00  0.00     0.212 HD
ENDBRANCH 114 125
BRANCH 118 127
ATOM    127  C6  RAM d   1      12.685  -2.696  37.722  0.00  0.00    -0.050 C 
ATOM    128  H   GLA d   1      12.413  -2.048  38.568  0.00  0.00     0.031 H 
ATOM    129  H   GLA d   1      12.600  -3.750  38.026  0.00  0.00     0.031 H 
ATOM    130  H   GLA d   1      12.007  -2.502  36.878  0.00  0.00     0.031 H 
ENDBRANCH 118 127
ENDBRANCH 109 110
ENDBRANCH  99 109
BRANCH 102 131
ATOM    131  C6  MAN d   1      16.900  -7.164  34.154  0.00  0.00     0.043 C 
ATOM    132  H   GLA d   1      16.265  -7.958  33.735  0.00  0.00     0.078 H 
ATOM    133  H   GLA d   1      17.871  -7.588  34.448  0.00  0.00     0.078 H 
BRANCH 131 134
ATOM    134  O6  MAN d   1      17.101  -6.142  33.171  0.00  0.00    -0.398 OA
ATOM    135  H   GLA d   1      17.649  -5.457  33.536  0.00  0.00     0.209 HD
ENDBRANCH 131 134
ENDBRANCH 102 131
BRANCH 103 136
ATOM    136  O4  MAN d   1      17.418  -7.908  37.049  0.00  0.00    -0.390 OA
ATOM    137  H   GLA d   1      17.959  -8.265  36.354  0.00  0.00     0.210 HD
ENDBRANCH 103 136
BRANCH 105 138
ATOM    138  O3  MAN d   1      14.929  -8.226  38.581  0.00  0.00    -0.348 OA
BRANCH 138 139
ATOM    139  C1  PZU d   1      15.384  -7.906  39.877  0.00  0.00     0.157 C 
ATOM    140  C2  PZU d   1      15.342  -9.192  40.716  0.00  0.00     0.085 C 
ATOM    141  C3  PZU d   1      13.903  -9.629  41.003  0.00  0.00    -0.010 C 
ATOM    142  H   GLA d   1      15.842  -8.998  41.677  0.00  0.00     0.090 H 
ATOM    143  C4  PZU d   1      13.110  -8.453  41.586  0.00  0.00     0.062 C 
ATOM    144  H   GLA d   1      13.910 -10.459  41.725  0.00  0.00     0.041 H 
ATOM    145  H   GLA d   1      13.429  -9.961  40.068  0.00  0.00     0.041 H 
ATOM    146  C5  PZU d   1      13.171  -7.263  40.634  0.00  0.00     0.063 C 
ATOM    147  H   GLA d   1      13.558  -8.166  42.549  0.00  0.00     0.086 H 
ATOM    148  O5  PZU d   1      14.552  -6.887  40.435  0.00  0.00    -0.351 OA
ATOM    149  H   GLA d   1      12.726  -7.562  39.673  0.00  0.00     0.086 H 
ATOM    150  H   GLA d   1      16.419  -7.536  39.828  0.00  0.00     0.133 H 
BRANCH 140 151
ATOM    151  O2  PZU d   1      16.053 -10.230  40.029  0.00  0.00    -0.391 OA
ATOM    152  H   GLA d   1      15.645 -10.387  39.185  0.00  0.00     0.210 HD
ENDBRANCH 140 151
BRANCH 143 153
ATOM    153  O4  PZU d   1      11.730  -8.823  41.804  0.00  0.00    -0.393 OA
ATOM    154  H   GLA d   1      11.258  -8.082  42.165  0.00  0.00     0.210 HD
ENDBRANCH 143 153
BRANCH 146 155
ATOM    155  C6  PZU d   1      12.420  -6.006  41.164  0.00  0.00    -0.050 C 
ATOM    156  H   GLA d   1      12.505  -5.191  40.430  0.00  0.00     0.031 H 
ATOM    157  H   GLA d   1      12.865  -5.688  42.118  0.00  0.00     0.031 H 
ATOM    158  H   GLA d   1      11.359  -6.251  41.318  0.00  0.00     0.031 H 
ENDBRANCH 146 155
ENDBRANCH 138 139
ENDBRANCH 105 138
ENDBRANCH  97  98
ENDBRANCH  86  97
BRANCH  90 159
ATOM    159  C6  GLA d   1      10.924  -6.941  33.043  0.00  0.00     0.043 C 
ATOM    160  H   GLA d   1       9.935  -6.617  33.398  0.00  0.00     0.078 H 
ATOM    161  H   GLA d   1      10.806  -7.546  32.132  0.00  0.00     0.078 H 
BRANCH 159 162
ATOM    162  O6  GLA d   1      11.721  -5.799  32.754  0.00  0.00    -0.398 OA
ATOM    163  H   GLA d   1      11.822  -5.277  33.541  0.00  0.00     0.209 HD
ENDBRANCH 159 162
ENDBRANCH  90 159
BRANCH  91 164
ATOM    164  O4  GLA d   1       9.654  -9.229  34.178  0.00  0.00    -0.390 OA
ATOM    165  H   GLA d   1       9.332 -10.123  34.155  0.00  0.00     0.210 HD
ENDBRANCH  91 164
ENDBRANCH   1  84
TORSDOF 42
