REMARK  10 active torsions:
REMARK  status: ('A' for Active; 'I' for Inactive)
REMARK    1  A    between atoms: C4_5  and  N18_18 
REMARK    2  A    between atoms: C10_11  and  S16_17 
REMARK    3  A    between atoms: N18_18  and  C19_19 
REMARK    4  A    between atoms: C21_21  and  C25_25 
REMARK    5  A    between atoms: C24_24  and  C31_31 
REMARK    6  A    between atoms: C25_25  and  C26_26 
REMARK    7  A    between atoms: C26_26  and  C27_27 
REMARK    8  A    between atoms: C27_27  and  N28_28 
REMARK    9  A    between atoms: N28_28  and  C29_29 
REMARK   10  A    between atoms: N28_28  and  C30_30 
ROOT
ATOM      1  C19 3TA d   1     -45.661  11.478   6.964  0.00  0.00     0.074 A 
ATOM      2  C20 3TA d   1     -44.899  10.399   7.407  0.00  0.00    -0.047 A 
ATOM      3  C21 3TA d   1     -45.474   9.131   7.387  0.00  0.00    -0.038 A 
ATOM      4  C22 3TA d   1     -46.775   8.977   6.918  0.00  0.00     0.009 A 
ATOM      5  N23 3TA d   1     -47.479  10.010   6.504  0.00  0.00    -0.263 NA
ATOM      6  C24 3TA d   1     -46.962  11.244   6.507  0.00  0.00     0.057 A 
ATOM      7  H   3TA d   1     -43.878  10.544   7.760  0.00  0.00     0.087 H 
ATOM      8  H   3TA d   1     -47.220   7.982   6.893  0.00  0.00     0.115 H 
ENDROOT
BRANCH   1   9
ATOM      9  N18 3TA d   1     -45.169  12.721   6.951  0.00  0.00    -0.186 N 
ATOM     10  H   3TA d   1     -45.160  13.229   6.066  0.00  0.00     0.184 HD
BRANCH   9  11
ATOM     11  C4  3TA d   1     -44.695  13.324   8.024  0.00  0.00     0.727 A 
ATOM     12  N3  3TA d   1     -44.459  14.639   7.971  0.00  0.00    -0.074 NA
ATOM     13  C2  3TA d   1     -43.972  15.287   9.020  0.00  0.00     0.030 A 
ATOM     14  C1  3TA d   1     -43.704  14.592  10.192  0.00  0.00    -0.004 A 
ATOM     15  H   3TA d   1     -43.783  16.359   8.963  0.00  0.00     0.116 H 
ATOM     16  C6  3TA d   1     -43.973  13.239  10.234  0.00  0.00     0.096 A 
ATOM     17  C11 3TA d   1     -43.151  15.465  11.312  0.00  0.00     0.009 C 
ATOM     18  N5  3TA d   1     -44.451  12.626   9.143  0.00  0.00    -0.061 NA
ATOM     19  C8  3TA d   1     -43.749  12.377  11.296  0.00  0.00     0.023 A 
ATOM     20  C7  3TA d   1     -42.771  12.535  12.278  0.00  0.00     0.072 A 
ATOM     21  C15 3TA d   1     -44.603  11.277  11.301  0.00  0.00    -0.067 A 
ATOM     22  N9  3TA d   1     -41.872  13.528  12.368  0.00  0.00    -0.245 NA
ATOM     23  C14 3TA d   1     -42.639  11.564  13.274  0.00  0.00    -0.033 A 
ATOM     24  C10 3TA d   1     -41.935  14.799  11.940  0.00  0.00     0.073 C 
ATOM     25  C13 3TA d   1     -43.500  10.458  13.284  0.00  0.00     0.036 A 
ATOM     26  H   3TA d   1     -41.870  11.666  14.040  0.00  0.00     0.089 H 
ATOM     27 CL1  3TA d   1     -43.387   9.234  14.507  0.00  0.00    -0.084 Cl
ATOM     28  C12 3TA d   1     -44.476  10.317  12.300  0.00  0.00    -0.061 A 
ATOM     29  H   3TA d   1     -45.141   9.454  12.313  0.00  0.00     0.086 H 
ATOM     30  H   3TA d   1     -45.365  11.169  10.529  0.00  0.00     0.085 H 
ATOM     31  H   3TA d   1     -43.919  15.600  12.074  0.00  0.00     0.050 H 
ATOM     32  H   3TA d   1     -42.858  16.431  10.902  0.00  0.00     0.050 H 
BRANCH  24  33
ATOM     33  S16 3TA d   1     -40.511  15.809  12.138  0.00  0.00    -0.128 SA
ATOM     34  H   3TA d   1     -40.761  17.024  11.659  0.00  0.00     0.108 HD
ENDBRANCH  24  33
ENDBRANCH   9  11
ENDBRANCH   1   9
BRANCH   6  35
ATOM     35  C31 3TA d   1     -47.836  12.390   6.006  0.00  0.00    -0.033 C 
ATOM     36  H   3TA d   1     -48.118  12.204   4.970  0.00  0.00     0.035 H 
ATOM     37  H   3TA d   1     -48.733  12.457   6.622  0.00  0.00     0.035 H 
ATOM     38  H   3TA d   1     -47.279  13.325   6.070  0.00  0.00     0.035 H 
ENDBRANCH   6  35
BRANCH   3  39
ATOM     39  C25 3TA d   1     -44.702   7.880   7.855  0.00  0.00    -0.038 C 
ATOM     40  H   3TA d   1     -43.668   7.997   7.530  0.00  0.00     0.040 H 
ATOM     41  H   3TA d   1     -45.204   7.011   7.429  0.00  0.00     0.040 H 
BRANCH  39  42
ATOM     42  C26 3TA d   1     -44.683   7.695   9.373  0.00  0.00    -0.036 C 
ATOM     43  H   3TA d   1     -45.714   7.627   9.719  0.00  0.00     0.035 H 
ATOM     44  H   3TA d   1     -44.156   8.543   9.812  0.00  0.00     0.035 H 
BRANCH  42  45
ATOM     45  C27 3TA d   1     -43.952   6.409   9.792  0.00  0.00     0.113 C 
ATOM     46  H   3TA d   1     -44.546   5.574   9.420  0.00  0.00     0.079 H 
ATOM     47  H   3TA d   1     -43.841   6.449  10.876  0.00  0.00     0.079 H 
BRANCH  45  48
ATOM     48  N28 3TA d   1     -42.583   6.250   9.225  0.00  0.00     0.080 N 
BRANCH  48  49
ATOM     49  C29 3TA d   1     -41.629   7.351   9.513  0.00  0.00     0.095 C 
ATOM     50  H   3TA d   1     -42.020   8.284   9.107  0.00  0.00     0.071 H 
ATOM     51  H   3TA d   1     -41.502   7.447  10.591  0.00  0.00     0.071 H 
ATOM     52  H   3TA d   1     -40.667   7.127   9.051  0.00  0.00     0.071 H 
ENDBRANCH  48  49
BRANCH  48  53
ATOM     53  C30 3TA d   1     -42.031   4.981   9.750  0.00  0.00     0.095 C 
ATOM     54  H   3TA d   1     -41.991   5.026  10.838  0.00  0.00     0.071 H 
ATOM     55  H   3TA d   1     -42.670   4.154   9.443  0.00  0.00     0.071 H 
ATOM     56  H   3TA d   1     -41.026   4.832   9.354  0.00  0.00     0.071 H 
ENDBRANCH  48  53
ENDBRANCH  45  48
ENDBRANCH  42  45
ENDBRANCH  39  42
ENDBRANCH   3  39
TORSDOF 10
