REMARK  5 active torsions:
REMARK  status: ('A' for Active; 'I' for Inactive)
REMARK    1  A    between atoms: C2_2  and  O2_3 
REMARK    2  A    between atoms: C3_4  and  O3_5 
REMARK    3  A    between atoms: C4_6  and  O4_7 
REMARK    4  A    between atoms: C5_8  and  C6_10 
REMARK    5  A    between atoms: C6_10  and  O6_11 
ROOT
ATOM      1  C1  DGJ d   1      -4.419  -7.835   5.289  0.00  0.00     0.108 C 
ATOM      2  C2  DGJ d   1      -3.414  -6.673   5.251  0.00  0.00     0.086 C 
ATOM      3  C3  DGJ d   1      -2.508  -6.597   6.510  0.00  0.00     0.088 C 
ATOM      4  C4  DGJ d   1      -3.458  -6.750   7.634  0.00  0.00     0.092 C 
ATOM      5  C5  DGJ d   1      -4.077  -8.166   7.729  0.00  0.00     0.149 C 
ATOM      6  N5  DGJ d   1      -5.040  -8.016   6.628  0.00  0.00    -0.064 N 
ATOM      7  H1  DGJ d   1      -3.894  -8.763   5.017  0.00  0.00     0.079 H 
ATOM      8  H2  DGJ d   1      -5.215  -7.635   4.556  0.00  0.00     0.079 H 
ATOM      9  H3  DGJ d   1      -3.996  -5.740   5.214  0.00  0.00     0.089 H 
ATOM     10  H5  DGJ d   1      -1.729  -7.374   6.505  0.00  0.00     0.091 H 
ATOM     11  H7  DGJ d   1      -2.759  -6.749   8.483  0.00  0.00     0.090 H 
ATOM     12  H9  DGJ d   1      -3.321  -8.946   7.555  0.00  0.00     0.091 H 
ATOM     13  H10 DGJ d   1      -5.617  -8.842   6.599  0.00  0.00     0.277 HD
ATOM     14  H11 DGJ d   1      -5.615  -7.211   6.820  0.00  0.00     0.277 HD
ENDROOT
BRANCH   5  15
ATOM     15  C6  DGJ d   1      -4.892  -8.510   8.982  0.00  0.00     0.046 C 
ATOM     16  H12 DGJ d   1      -5.385  -9.482   8.832  0.00  0.00     0.077 H 
ATOM     17  H13 DGJ d   1      -5.654  -7.732   9.137  0.00  0.00     0.077 H 
BRANCH  15  18
ATOM     18  O6  DGJ d   1      -4.036  -8.587  10.178  0.00  0.00    -0.399 OA
ATOM     19  H14 DGJ d   1      -3.611  -7.749  10.316  0.00  0.00     0.209 HD
ENDBRANCH  15  18
ENDBRANCH   5  15
BRANCH   4  20
ATOM     20  O4  DGJ d   1      -4.330  -5.724   8.028  0.00  0.00    -0.391 OA
ATOM     21  H8  DGJ d   1      -4.854  -6.020   8.763  0.00  0.00     0.210 HD
ENDBRANCH   4  20
BRANCH   3  22
ATOM     22  O3  DGJ d   1      -1.938  -5.287   6.621  0.00  0.00    -0.390 OA
ATOM     23  H6  DGJ d   1      -1.418  -5.103   5.848  0.00  0.00     0.210 HD
ENDBRANCH   3  22
BRANCH   2  24
ATOM     24  O2  DGJ d   1      -2.614  -6.740   4.053  0.00  0.00    -0.391 OA
ATOM     25  H4  DGJ d   1      -2.138  -7.562   4.037  0.00  0.00     0.210 HD
ENDBRANCH   2  24
TORSDOF 5
