REMARK  12 active torsions:
REMARK  status: ('A' for Active; 'I' for Inactive)
REMARK    1  A    between atoms: C14_13  and  C4_1 
REMARK    2  A    between atoms: C13_5  and  C3_11 
REMARK    3  A    between atoms: C12_12  and  C20_8 
REMARK    4  A    between atoms: C19_16  and  C22_10 
REMARK       I    between atoms: C22_10  and  N25_19 
REMARK    5  A    between atoms: C18_15  and  C12_12 
REMARK    6  A    between atoms: N25_19  and  C37_23 
REMARK    7  A    between atoms: C37_23  and  C38_24 
REMARK    8  A    between atoms: C38_24  and  N4_25 
REMARK    9  A    between atoms: N4_25  and  C39_26 
REMARK   10  A    between atoms: N4_25  and  C40_27 
REMARK   11  A    between atoms: C39_26  and  C42_29 
REMARK   12  A    between atoms: C40_27  and  C41_28 
ROOT
ATOM      1  C13 B49 d   1     -90.925  -8.954 -82.594  0.00  0.00    -0.018 A 
ATOM      2  C14 B49 d   1     -89.726 -10.657 -83.508  0.00  0.00     0.022 A 
ATOM      3  C18 B49 d   1     -91.534  -9.357 -83.792  0.00  0.00     0.040 A 
ATOM      4  C19 B49 d   1     -89.787  -9.748 -82.405  0.00  0.00     0.062 A 
ATOM      5  N23 B49 d   1     -90.791 -10.401 -84.335  0.00  0.00    -0.359 N 
ATOM      6  H11 B49 d   1     -91.005 -10.899 -85.211  0.00  0.00     0.166 HD
ENDROOT
BRANCH   4   7
ATOM      7  C22 B49 d   1     -88.819  -9.660 -81.200  0.00  0.00     0.254 C 
ATOM      8  N25 B49 d   1     -89.341  -9.450 -79.849  0.00  0.00    -0.355 N 
ATOM      9  H13 B49 d   1     -90.325  -9.354 -79.701  0.00  0.00     0.162 HD
ATOM     10  O28 B49 d   1     -87.578  -9.784 -81.378  0.00  0.00    -0.268 OA
BRANCH   8  11
ATOM     11  C37 B49 d   1     -88.441  -9.382 -78.742  0.00  0.00     0.018 C 
ATOM     12  H14 B49 d   1     -87.436  -9.223 -79.160  0.00  0.00     0.066 H 
ATOM     13  H15 B49 d   1     -88.479 -10.361 -78.242  0.00  0.00     0.066 H 
BRANCH  11  14
ATOM     14  C38 B49 d   1     -88.638  -8.337 -77.670  0.00  0.00     0.098 C 
ATOM     15  H16 B49 d   1     -87.732  -8.342 -77.047  0.00  0.00     0.078 H 
ATOM     16  H17 B49 d   1     -89.500  -8.656 -77.066  0.00  0.00     0.078 H 
BRANCH  14  17
ATOM     17  N4  B49 d   1     -88.881  -6.944 -78.059  0.00  0.00    -0.070 N 
ATOM     18  H18 B49 d   1     -88.967  -6.911 -79.063  0.00  0.00     0.279 HD
BRANCH  17  19
ATOM     19  C39 B49 d   1     -90.105  -6.450 -77.491  0.00  0.00     0.080 C 
ATOM     20  H19 B49 d   1     -90.765  -6.190 -78.332  0.00  0.00     0.075 H 
ATOM     21  H20 B49 d   1     -89.851  -5.539 -76.929  0.00  0.00     0.075 H 
BRANCH  19  22
ATOM     22  C42 B49 d   1     -90.897  -7.320 -76.572  0.00  0.00    -0.053 C 
ATOM     23  H26 B49 d   1     -91.795  -6.779 -76.238  0.00  0.00     0.029 H 
ATOM     24  H27 B49 d   1     -90.283  -7.586 -75.699  0.00  0.00     0.029 H 
ATOM     25  H28 B49 d   1     -91.197  -8.236 -77.102  0.00  0.00     0.029 H 
ENDBRANCH  19  22
ENDBRANCH  17  19
BRANCH  17  26
ATOM     26  C40 B49 d   1     -87.784  -6.115 -77.680  0.00  0.00     0.080 C 
ATOM     27  H21 B49 d   1     -87.853  -5.191 -78.272  0.00  0.00     0.075 H 
ATOM     28  H22 B49 d   1     -86.862  -6.652 -77.946  0.00  0.00     0.075 H 
BRANCH  26  29
ATOM     29  C41 B49 d   1     -87.664  -5.705 -76.209  0.00  0.00    -0.053 C 
ATOM     30  H23 B49 d   1     -86.774  -5.072 -76.076  0.00  0.00     0.029 H 
ATOM     31  H24 B49 d   1     -87.570  -6.605 -75.584  0.00  0.00     0.029 H 
ATOM     32  H25 B49 d   1     -88.561  -5.144 -75.910  0.00  0.00     0.029 H 
ENDBRANCH  26  29
ENDBRANCH  17  26
ENDBRANCH  14  17
ENDBRANCH  11  14
ENDBRANCH   8  11
ENDBRANCH   4   7
BRANCH   1  33
ATOM     33  C3  B49 d   1     -91.417  -7.853 -81.691  0.00  0.00    -0.048 C 
ATOM     34  H7  B49 d   1     -92.336  -7.418 -82.111  0.00  0.00     0.033 H 
ATOM     35  H8  B49 d   1     -90.646  -7.073 -81.610  0.00  0.00     0.033 H 
ATOM     36  H9  B49 d   1     -91.629  -8.264 -80.693  0.00  0.00     0.033 H 
ENDBRANCH   1  33
BRANCH   2  37
ATOM     37  C4  B49 d   1     -88.664 -11.737 -83.751  0.00  0.00    -0.036 C 
ATOM     38  H1  B49 d   1     -88.892 -12.272 -84.685  0.00  0.00     0.035 H 
ATOM     39  H2  B49 d   1     -88.665 -12.448 -82.912  0.00  0.00     0.035 H 
ATOM     40  H3  B49 d   1     -87.673 -11.266 -83.831  0.00  0.00     0.035 H 
ENDBRANCH   2  37
BRANCH   3  41
ATOM     41  C12 B49 d   1     -92.811  -8.721 -84.322  0.00  0.00    -0.042 C 
ATOM     42  H10 B49 d   1     -93.445  -8.135 -83.658  0.00  0.00     0.088 H 
BRANCH  41  43
ATOM     43  C20 B49 d   1     -93.205  -8.908 -85.802  0.00  0.00     0.033 A 
ATOM     44  C17 B49 d   1     -94.329  -8.180 -86.351  0.00  0.00     0.008 A 
ATOM     45  C7  B49 d   1     -95.197  -7.255 -85.753  0.00  0.00    -0.033 A 
ATOM     46  C16 B49 d   1     -94.452  -8.523 -87.667  0.00  0.00     0.045 A 
ATOM     47  C15 B49 d   1     -96.229  -6.671 -86.511  0.00  0.00     0.117 A 
ATOM     48  H6  B49 d   1     -95.073  -6.990 -84.709  0.00  0.00     0.089 H 
ATOM     49  C5  B49 d   1     -96.379  -7.005 -87.860  0.00  0.00    -0.043 A 
ATOM     50  F29 B49 d   1     -97.035  -5.814 -85.908  0.00  0.00    -0.206 F 
ATOM     51  C6  B49 d   1     -95.498  -7.929 -88.451  0.00  0.00    -0.053 A 
ATOM     52  H4  B49 d   1     -97.170  -6.554 -88.448  0.00  0.00     0.088 H 
ATOM     53  H5  B49 d   1     -95.609  -8.192 -89.497  0.00  0.00     0.087 H 
ATOM     54  N24 B49 d   1     -93.416  -9.465 -87.955  0.00  0.00    -0.333 N 
ATOM     55  C21 B49 d   1     -92.669  -9.702 -86.832  0.00  0.00     0.190 A 
ATOM     56  H12 B49 d   1     -93.260  -9.889 -88.847  0.00  0.00     0.168 HD
ATOM     57  O27 B49 d   1     -91.590 -10.559 -86.752  0.00  0.00    -0.171 OA
ENDBRANCH  41  43
ENDBRANCH   3  41
TORSDOF 12
