REMARK  11 active torsions:
REMARK  status: ('A' for Active; 'I' for Inactive)
REMARK    1  A    between atoms: CAA_1  and  CAG_7 
REMARK    2  A    between atoms: CAC_3  and  NAZ_17 
REMARK    3  A    between atoms: NBG_24  and  CAD_4 
REMARK    4  A    between atoms: CAE_5  and  CAJ_10 
REMARK    5  A    between atoms: CAJ_10  and  CAK_11 
REMARK    6  A    between atoms: CAJ_10  and  OAW_14 
REMARK    7  A    between atoms: CAK_11  and  CAL_12 
REMARK    8  A    between atoms: CAK_11  and  OAY_16 
REMARK    9  A    between atoms: CAL_12  and  OAM_13 
REMARK   10  A    between atoms: OAW_14  and  CAX_15 
REMARK       I    between atoms: NAZ_17  and  CBA_18 
REMARK       I    between atoms: CBA_18  and  NBB_19 
REMARK   11  A    between atoms: CBD_21  and  CBE_22 
REMARK       I    between atoms: CBD_21  and  NBG_24 
ROOT
ATOM      1  CAA LNV d   1      29.446  13.207 -22.779  0.00  0.00     0.124 C 
ATOM      2  CAB LNV d   1      30.878  13.723 -22.626  0.00  0.00    -0.010 C 
ATOM      3  CAC LNV d   1      31.221  14.531 -21.369  0.00  0.00     0.051 C 
ATOM      4  CAD LNV d   1      30.019  14.857 -20.440  0.00  0.00     0.059 C 
ATOM      5  CAE LNV d   1      28.581  14.562 -20.941  0.00  0.00     0.088 C 
ATOM      6  OAF LNV d   1      28.367  13.762 -22.088  0.00  0.00    -0.365 OA
ATOM      7  H1  LNV d   1      29.567  12.299 -22.170  0.00  0.00     0.100 H 
ATOM      8  H2  LNV d   1      31.089  14.364 -23.495  0.00  0.00     0.040 H 
ATOM      9  H3  LNV d   1      31.545  12.848 -22.645  0.00  0.00     0.040 H 
ATOM     10  H4  LNV d   1      31.359  15.523 -21.824  0.00  0.00     0.076 H 
ATOM     11  H5  LNV d   1      30.113  13.932 -19.853  0.00  0.00     0.079 H 
ATOM     12  H6  LNV d   1      28.344  15.553 -21.356  0.00  0.00     0.090 H 
ENDROOT
BRANCH   5  13
ATOM     13  CAJ LNV d   1      27.489  14.428 -19.942  0.00  0.00     0.091 C 
ATOM     14  H7  LNV d   1      27.643  15.165 -19.140  0.00  0.00     0.091 H 
BRANCH  13  15
ATOM     15  CAK LNV d   1      26.126  14.687 -20.546  0.00  0.00     0.083 C 
ATOM     16  H8  LNV d   1      26.022  13.974 -21.377  0.00  0.00     0.090 H 
BRANCH  15  17
ATOM     17  CAL LNV d   1      25.006  14.368 -19.585  0.00  0.00     0.043 C 
ATOM     18  H9  LNV d   1      25.120  13.324 -19.258  0.00  0.00     0.078 H 
ATOM     19  H10 LNV d   1      24.051  14.483 -20.119  0.00  0.00     0.078 H 
BRANCH  17  20
ATOM     20  OAM LNV d   1      24.972  15.189 -18.437  0.00  0.00    -0.398 OA
ATOM     21  H11 LNV d   1      24.863  16.095 -18.700  0.00  0.00     0.209 HD
ENDBRANCH  17  20
ENDBRANCH  15  17
BRANCH  15  22
ATOM     22  OAY LNV d   1      26.021  15.941 -21.113  0.00  0.00    -0.391 OA
ATOM     23  H15 LNV d   1      25.205  16.002 -21.595  0.00  0.00     0.210 HD
ENDBRANCH  15  22
ENDBRANCH  13  15
BRANCH  13  24
ATOM     24  OAW LNV d   1      27.619  13.167 -19.416  0.00  0.00    -0.385 OA
BRANCH  24  25
ATOM     25  CAX LNV d   1      27.665  13.010 -18.039  0.00  0.00     0.005 C 
ATOM     26  H12 LNV d   1      27.770  11.943 -17.795  0.00  0.00     0.066 H 
ATOM     27  H13 LNV d   1      26.736  13.398 -17.595  0.00  0.00     0.066 H 
ATOM     28  H14 LNV d   1      28.524  13.565 -17.635  0.00  0.00     0.066 H 
ENDBRANCH  24  25
ENDBRANCH  13  24
ENDBRANCH   5  13
BRANCH   4  29
ATOM     29  NBG LNV d   1      30.153  15.730 -19.308  0.00  0.00    -0.352 N 
ATOM     30  CBD LNV d   1      30.832  15.429 -18.086  0.00  0.00     0.214 C 
ATOM     31  OBF LNV d   1      31.060  14.278 -17.725  0.00  0.00    -0.274 OA
ATOM     32  H24 LNV d   1      29.732  16.634 -19.381  0.00  0.00     0.163 HD
BRANCH  30  33
ATOM     33  CBE LNV d   1      30.968  16.584 -17.148  0.00  0.00    -0.003 C 
ATOM     34  H21 LNV d   1      30.717  17.516 -17.675  0.00  0.00     0.040 H 
ATOM     35  H22 LNV d   1      32.003  16.638 -16.780  0.00  0.00     0.040 H 
ATOM     36  H23 LNV d   1      30.283  16.448 -16.298  0.00  0.00     0.040 H 
ENDBRANCH  30  33
ENDBRANCH   4  29
BRANCH   3  37
ATOM     37  NAZ LNV d   1      32.543  14.365 -20.813  0.00  0.00    -0.220 N 
ATOM     38  CBA LNV d   1      33.307  15.399 -20.170  0.00  0.00     0.665 C 
ATOM     39  NBB LNV d   1      34.402  15.035 -19.540  0.00  0.00    -0.235 N 
ATOM     40  NBC LNV d   1      32.974  16.684 -20.271  0.00  0.00    -0.235 N 
ATOM     41  H17 LNV d   1      34.982  15.741 -19.064  0.00  0.00     0.174 HD
ATOM     42  H18 LNV d   1      34.680  14.043 -19.522  0.00  0.00     0.174 HD
ATOM     43  H19 LNV d   1      32.113  16.956 -20.767  0.00  0.00     0.174 HD
ATOM     44  H20 LNV d   1      33.577  17.407 -19.853  0.00  0.00     0.174 HD
ATOM     45  H16 LNV d   1      32.973  13.432 -20.883  0.00  0.00     0.178 HD
ENDBRANCH   3  37
BRANCH   1  46
ATOM     46  CAG LNV d   1      29.045  12.568 -24.061  0.00  0.00     0.203 C 
ATOM     47  OAH LNV d   1      30.014  11.973 -24.835  0.00  0.00    -0.646 OA
ATOM     48  OAI LNV d   1      27.852  12.496 -24.328  0.00  0.00    -0.646 OA
ENDBRANCH   1  46
TORSDOF 11
