REMARK  12 active torsions:
REMARK  status: ('A' for Active; 'I' for Inactive)
REMARK    1  A    between atoms: CAA_1  and  CAG_7 
REMARK    2  A    between atoms: CAC_3  and  NAZ_19 
REMARK    3  A    between atoms: NBG_26  and  CAD_4 
REMARK    4  A    between atoms: CAE_5  and  CAJ_10 
REMARK    5  A    between atoms: CAJ_10  and  CAK_11 
REMARK    6  A    between atoms: CAJ_10  and  OAW_16 
REMARK    7  A    between atoms: CAK_11  and  CAL_12 
REMARK    8  A    between atoms: CAK_11  and  OAY_18 
REMARK    9  A    between atoms: CAL_12  and  OAM_13 
REMARK   10  A    between atoms: OAM_13  and  CAN_14 
REMARK   11  A    between atoms: OAW_16  and  CAX_17 
REMARK       I    between atoms: NAZ_19  and  CBA_20 
REMARK       I    between atoms: CBA_20  and  NBB_21 
REMARK   12  A    between atoms: CBD_23  and  CBE_24 
REMARK       I    between atoms: CBD_23  and  NBG_26 
ROOT
ATOM      1  CAA LVO d   1      29.567  13.378 -22.779  0.00  0.00     0.124 C 
ATOM      2  CAB LVO d   1      31.004  13.647 -22.532  0.00  0.00    -0.010 C 
ATOM      3  CAC LVO d   1      31.329  14.513 -21.288  0.00  0.00     0.051 C 
ATOM      4  CAD LVO d   1      30.186  14.558 -20.255  0.00  0.00     0.059 C 
ATOM      5  CAE LVO d   1      28.771  14.523 -20.881  0.00  0.00     0.088 C 
ATOM      6  OAF LVO d   1      28.637  13.518 -21.821  0.00  0.00    -0.365 OA
ATOM      7  H1  LVO d   1      29.366  14.339 -23.275  0.00  0.00     0.100 H 
ATOM      8  H2  LVO d   1      31.407  14.163 -23.416  0.00  0.00     0.040 H 
ATOM      9  H3  LVO d   1      31.512  12.679 -22.410  0.00  0.00     0.040 H 
ATOM     10  H4  LVO d   1      31.351  15.536 -21.691  0.00  0.00     0.076 H 
ATOM     11  H5  LVO d   1      30.274  13.613 -19.699  0.00  0.00     0.079 H 
ATOM     12  H6  LVO d   1      28.612  15.484 -21.392  0.00  0.00     0.090 H 
ENDROOT
BRANCH   5  13
ATOM     13  CAJ LVO d   1      27.716  14.379 -19.832  0.00  0.00     0.091 C 
ATOM     14  H7  LVO d   1      27.727  15.246 -19.155  0.00  0.00     0.091 H 
BRANCH  13  15
ATOM     15  CAK LVO d   1      26.408  14.293 -20.538  0.00  0.00     0.084 C 
ATOM     16  H8  LVO d   1      26.489  13.518 -21.315  0.00  0.00     0.090 H 
BRANCH  15  17
ATOM     17  CAL LVO d   1      25.363  13.843 -19.536  0.00  0.00     0.054 C 
ATOM     18  H9  LVO d   1      24.819  14.734 -19.190  0.00  0.00     0.079 H 
ATOM     19  H10 LVO d   1      25.885  13.379 -18.686  0.00  0.00     0.079 H 
BRANCH  17  20
ATOM     20  OAM LVO d   1      24.430  12.930 -20.016  0.00  0.00    -0.326 OA
BRANCH  20  21
ATOM     21  CAN LVO d   1      24.625  11.664 -20.077  0.00  0.00     0.206 C 
ATOM     22  OAV LVO d   1      24.868  10.964 -19.102  0.00  0.00    -0.276 OA
ATOM     23  H11 LVO d   1      24.571  11.183 -21.053  0.00  0.00     0.192 H 
ENDBRANCH  20  21
ENDBRANCH  17  20
ENDBRANCH  15  17
BRANCH  15  24
ATOM     24  OAY LVO d   1      26.083  15.443 -21.158  0.00  0.00    -0.391 OA
ATOM     25  H15 LVO d   1      26.770  15.676 -21.771  0.00  0.00     0.210 HD
ENDBRANCH  15  24
ENDBRANCH  13  15
BRANCH  13  26
ATOM     26  OAW LVO d   1      27.946  13.228 -19.119  0.00  0.00    -0.385 OA
BRANCH  26  27
ATOM     27  CAX LVO d   1      27.653  13.374 -17.809  0.00  0.00     0.005 C 
ATOM     28  H12 LVO d   1      27.852  12.430 -17.281  0.00  0.00     0.066 H 
ATOM     29  H13 LVO d   1      26.591  13.639 -17.698  0.00  0.00     0.066 H 
ATOM     30  H14 LVO d   1      28.277  14.172 -17.381  0.00  0.00     0.066 H 
ENDBRANCH  26  27
ENDBRANCH  13  26
ENDBRANCH   5  13
BRANCH   4  31
ATOM     31  NBG LVO d   1      30.331  15.569 -19.280  0.00  0.00    -0.352 N 
ATOM     32  CBD LVO d   1      30.980  15.319 -18.060  0.00  0.00     0.214 C 
ATOM     33  OBF LVO d   1      31.240  14.306 -17.625  0.00  0.00    -0.274 OA
ATOM     34  H24 LVO d   1      29.964  16.481 -19.462  0.00  0.00     0.163 HD
BRANCH  32  35
ATOM     35  CBE LVO d   1      31.215  16.587 -17.325  0.00  0.00    -0.003 C 
ATOM     36  H21 LVO d   1      30.886  17.435 -17.943  0.00  0.00     0.040 H 
ATOM     37  H22 LVO d   1      32.288  16.689 -17.103  0.00  0.00     0.040 H 
ATOM     38  H23 LVO d   1      30.645  16.576 -16.384  0.00  0.00     0.040 H 
ENDBRANCH  32  35
ENDBRANCH   4  31
BRANCH   3  39
ATOM     39  NAZ LVO d   1      32.656  14.355 -20.730  0.00  0.00    -0.220 N 
ATOM     40  CBA LVO d   1      33.440  15.388 -20.177  0.00  0.00     0.665 C 
ATOM     41  NBB LVO d   1      34.522  15.032 -19.559  0.00  0.00    -0.235 N 
ATOM     42  NBC LVO d   1      33.171  16.608 -20.436  0.00  0.00    -0.235 N 
ATOM     43  H17 LVO d   1      35.132  15.746 -19.136  0.00  0.00     0.174 HD
ATOM     44  H18 LVO d   1      34.772  14.035 -19.491  0.00  0.00     0.174 HD
ATOM     45  H19 LVO d   1      32.300  16.850 -20.929  0.00  0.00     0.174 HD
ATOM     46  H20 LVO d   1      33.825  17.351 -20.152  0.00  0.00     0.174 HD
ATOM     47  H16 LVO d   1      33.061  13.408 -20.738  0.00  0.00     0.178 HD
ENDBRANCH   3  39
BRANCH   1  48
ATOM     48  CAG LVO d   1      29.187  12.506 -23.929  0.00  0.00     0.203 C 
ATOM     49  OAH LVO d   1      30.180  11.966 -24.648  0.00  0.00    -0.646 OA
ATOM     50  OAI LVO d   1      28.067  12.412 -24.174  0.00  0.00    -0.646 OA
ENDBRANCH   1  48
TORSDOF 12
