REMARK  10 active torsions:
REMARK  status: ('A' for Active; 'I' for Inactive)
REMARK    1  A    between atoms: C1_1  and  C2_4 
REMARK    2  A    between atoms: C4_6  and  NE_20 
REMARK    3  A    between atoms: C5_7  and  N5_8 
REMARK       I    between atoms: N5_8  and  C10_9 
REMARK    4  A    between atoms: C10_9  and  C11_11 
REMARK    5  A    between atoms: C6_12  and  C7_14 
REMARK    6  A    between atoms: C7_14  and  O7_15 
REMARK    7  A    between atoms: C7_14  and  C8_16 
REMARK    8  A    between atoms: C8_16  and  O8_17 
REMARK    9  A    between atoms: C8_16  and  C9_18 
REMARK   10  A    between atoms: C9_18  and  O9_19 
REMARK       I    between atoms: NE_20  and  CZ_21 
REMARK       I    between atoms: CZ_21  and  NH1_22 
ROOT
ATOM      1  C2  ZMR d   1      29.405  13.286 -22.888  0.00  0.00     0.124 C 
ATOM      2  C3  ZMR d   1      30.879  13.717 -22.645  0.00  0.00    -0.010 C 
ATOM      3  C4  ZMR d   1      31.166  14.610 -21.431  0.00  0.00     0.051 C 
ATOM      4  C5  ZMR d   1      30.028  14.817 -20.445  0.00  0.00     0.059 C 
ATOM      5  C6  ZMR d   1      28.607  14.620 -20.945  0.00  0.00     0.088 C 
ATOM      6  O6  ZMR d   1      28.366  13.806 -22.082  0.00  0.00    -0.365 OA
ATOM      7  H1  ZMR d   1      29.523  12.402 -22.245  0.00  0.00     0.100 H 
ATOM      8  H2  ZMR d   1      31.215  14.261 -23.540  0.00  0.00     0.040 H 
ATOM      9  H3  ZMR d   1      31.475  12.800 -22.527  0.00  0.00     0.040 H 
ATOM     10  H4  ZMR d   1      31.240  15.607 -21.889  0.00  0.00     0.076 H 
ATOM     11  H5  ZMR d   1      30.135  13.871 -19.895  0.00  0.00     0.079 H 
ATOM     12  H10 ZMR d   1      28.373  15.633 -21.305  0.00  0.00     0.090 H 
ENDROOT
BRANCH   5  13
ATOM     13  C7  ZMR d   1      27.497  14.338 -19.963  0.00  0.00     0.089 C 
ATOM     14  H11 ZMR d   1      27.625  14.995 -19.090  0.00  0.00     0.091 H 
BRANCH  13  15
ATOM     15  O7  ZMR d   1      27.623  13.081 -19.552  0.00  0.00    -0.390 OA
ATOM     16  H12 ZMR d   1      26.932  12.881 -18.931  0.00  0.00     0.210 HD
ENDBRANCH  13  15
BRANCH  13  17
ATOM     17  C8  ZMR d   1      26.126  14.656 -20.582  0.00  0.00     0.083 C 
ATOM     18  H13 ZMR d   1      25.977  13.879 -21.346  0.00  0.00     0.090 H 
BRANCH  17  19
ATOM     19  O8  ZMR d   1      26.044  15.810 -21.262  0.00  0.00    -0.391 OA
ATOM     20  H14 ZMR d   1      25.163  15.914 -21.603  0.00  0.00     0.210 HD
ENDBRANCH  17  19
BRANCH  17  21
ATOM     21  C9  ZMR d   1      25.010  14.456 -19.597  0.00  0.00     0.043 C 
ATOM     22  H15 ZMR d   1      25.108  13.446 -19.172  0.00  0.00     0.078 H 
ATOM     23  H16 ZMR d   1      24.057  14.533 -20.142  0.00  0.00     0.078 H 
BRANCH  21  24
ATOM     24  O9  ZMR d   1      24.981  15.317 -18.601  0.00  0.00    -0.398 OA
ATOM     25  H17 ZMR d   1      24.883  16.196 -18.947  0.00  0.00     0.209 HD
ENDBRANCH  21  24
ENDBRANCH  17  21
ENDBRANCH  13  17
ENDBRANCH   5  13
BRANCH   4  26
ATOM     26  N5  ZMR d   1      30.202  15.698 -19.356  0.00  0.00    -0.352 N 
ATOM     27  C10 ZMR d   1      30.821  15.404 -18.152  0.00  0.00     0.214 C 
ATOM     28  O10 ZMR d   1      31.110  14.328 -17.842  0.00  0.00    -0.274 OA
ATOM     29  H6  ZMR d   1      29.843  16.625 -19.464  0.00  0.00     0.163 HD
BRANCH  27  30
ATOM     30  C11 ZMR d   1      30.973  16.600 -17.240  0.00  0.00    -0.003 C 
ATOM     31  H7  ZMR d   1      31.470  16.290 -16.309  0.00  0.00     0.040 H 
ATOM     32  H8  ZMR d   1      29.980  17.011 -17.006  0.00  0.00     0.040 H 
ATOM     33  H9  ZMR d   1      31.580  17.369 -17.741  0.00  0.00     0.040 H 
ENDBRANCH  27  30
ENDBRANCH   4  26
BRANCH   3  34
ATOM     34  NE  ZMR d   1      32.453  14.433 -20.904  0.00  0.00    -0.220 N 
ATOM     35  CZ  ZMR d   1      33.307  15.448 -20.395  0.00  0.00     0.665 C 
ATOM     36  NH1 ZMR d   1      32.851  16.633 -20.382  0.00  0.00    -0.235 N 
ATOM     37  NH2 ZMR d   1      34.372  15.098 -19.731  0.00  0.00    -0.235 N 
ATOM     38  H19 ZMR d   1      33.431  17.404 -20.023  0.00  0.00     0.174 HD
ATOM     39  H20 ZMR d   1      31.901  16.823 -20.731  0.00  0.00     0.174 HD
ATOM     40  H21 ZMR d   1      34.707  14.125 -19.770  0.00  0.00     0.174 HD
ATOM     41  H22 ZMR d   1      34.879  15.795 -19.167  0.00  0.00     0.174 HD
ATOM     42  H18 ZMR d   1      32.816  13.469 -20.884  0.00  0.00     0.178 HD
ENDBRANCH   3  34
BRANCH   1  43
ATOM     43  C1  ZMR d   1      29.024  12.441 -24.078  0.00  0.00     0.203 C 
ATOM     44  O1A ZMR d   1      27.873  12.369 -24.383  0.00  0.00    -0.646 OA
ATOM     45  O1B ZMR d   1      30.065  12.127 -24.887  0.00  0.00    -0.646 OA
ENDBRANCH   1  43
TORSDOF 10
