REMARK  10 active torsions:
REMARK  status: ('A' for Active; 'I' for Inactive)
REMARK    1  A    between atoms: C1_1  and  C2_4 
REMARK    2  A    between atoms: C4_6  and  N4_20 
REMARK    3  A    between atoms: C5_7  and  N5_8 
REMARK       I    between atoms: N5_8  and  C10_9 
REMARK    4  A    between atoms: C10_9  and  C11_11 
REMARK    5  A    between atoms: C6_12  and  O7_14 
REMARK    6  A    between atoms: O7_14  and  C8_15 
REMARK    7  A    between atoms: C8_15  and  C9_16 
REMARK    8  A    between atoms: C8_15  and  C81_17 
REMARK    9  A    between atoms: C9_16  and  C91_19 
REMARK   10  A    between atoms: C81_17  and  C82_18 
ROOT
ATOM      1  C2  G39 d   1     -29.274  13.104  23.183  0.00  0.00     0.035 C 
ATOM      2  C3  G39 d   1     -30.750  13.129  22.644  0.00  0.00    -0.024 C 
ATOM      3  C4  G39 d   1     -31.014  14.253  21.662  0.00  0.00     0.122 C 
ATOM      4  C5  G39 d   1     -30.004  14.490  20.574  0.00  0.00     0.064 C 
ATOM      5  C6  G39 d   1     -28.532  14.293  20.898  0.00  0.00     0.061 C 
ATOM      6  C7  G39 d   1     -28.136  13.422  22.125  0.00  0.00    -0.026 C 
ATOM      7  H1  G39 d   1     -29.301  14.096  23.657  0.00  0.00     0.056 H 
ATOM      8  H2  G39 d   1     -31.431  13.246  23.499  0.00  0.00     0.037 H 
ATOM      9  H3  G39 d   1     -30.954  12.172  22.141  0.00  0.00     0.037 H 
ATOM     10  H4  G39 d   1     -30.784  15.114  22.307  0.00  0.00     0.087 H 
ATOM     11  H5  G39 d   1     -30.184  13.602  19.950  0.00  0.00     0.079 H 
ATOM     12  H10 G39 d   1     -28.342  15.284  21.335  0.00  0.00     0.086 H 
ATOM     13  H11 G39 d   1     -27.762  12.461  21.742  0.00  0.00     0.038 H 
ATOM     14  H12 G39 d   1     -27.327  13.945  22.656  0.00  0.00     0.038 H 
ENDROOT
BRANCH   5  15
ATOM     15  O7  G39 d   1     -27.577  14.341  19.847  0.00  0.00    -0.379 OA
BRANCH  15  16
ATOM     16  C8  G39 d   1     -26.916  15.544  19.487  0.00  0.00     0.038 C 
ATOM     17  H13 G39 d   1     -27.705  16.307  19.413  0.00  0.00     0.083 H 
BRANCH  16  18
ATOM     18  C9  G39 d   1     -25.959  16.065  20.552  0.00  0.00    -0.044 C 
ATOM     19  H14 G39 d   1     -26.553  16.254  21.458  0.00  0.00     0.036 H 
ATOM     20  H15 G39 d   1     -25.544  17.014  20.181  0.00  0.00     0.036 H 
BRANCH  18  21
ATOM     21  C91 G39 d   1     -24.804  15.204  20.952  0.00  0.00    -0.074 C 
ATOM     22  H21 G39 d   1     -24.213  15.719  21.724  0.00  0.00     0.027 H 
ATOM     23  H22 G39 d   1     -24.170  15.010  20.074  0.00  0.00     0.027 H 
ATOM     24  H23 G39 d   1     -25.179  14.250  21.352  0.00  0.00     0.027 H 
ENDBRANCH  18  21
ENDBRANCH  16  18
BRANCH  16  25
ATOM     25  C81 G39 d   1     -26.314  15.443  18.101  0.00  0.00    -0.044 C 
ATOM     26  H16 G39 d   1     -25.424  14.800  18.170  0.00  0.00     0.036 H 
ATOM     27  H17 G39 d   1     -26.012  16.455  17.794  0.00  0.00     0.036 H 
BRANCH  25  28
ATOM     28  C82 G39 d   1     -27.197  14.883  17.019  0.00  0.00    -0.074 C 
ATOM     29  H18 G39 d   1     -26.644  14.863  16.068  0.00  0.00     0.027 H 
ATOM     30  H19 G39 d   1     -28.090  15.516  16.911  0.00  0.00     0.027 H 
ATOM     31  H20 G39 d   1     -27.502  13.861  17.287  0.00  0.00     0.027 H 
ENDBRANCH  25  28
ENDBRANCH  16  25
ENDBRANCH  15  16
ENDBRANCH   5  15
BRANCH   4  32
ATOM     32  N5  G39 d   1     -30.311  15.547  19.623  0.00  0.00    -0.352 N 
ATOM     33  C10 G39 d   1     -30.828  15.278  18.292  0.00  0.00     0.214 C 
ATOM     34  O10 G39 d   1     -30.929  14.128  17.890  0.00  0.00    -0.274 OA
ATOM     35  H6  G39 d   1     -30.160  16.497  19.896  0.00  0.00     0.163 HD
BRANCH  33  36
ATOM     36  C11 G39 d   1     -31.120  16.454  17.379  0.00  0.00    -0.003 C 
ATOM     37  H7  G39 d   1     -31.502  16.084  16.416  0.00  0.00     0.040 H 
ATOM     38  H8  G39 d   1     -30.196  17.026  17.211  0.00  0.00     0.040 H 
ATOM     39  H9  G39 d   1     -31.874  17.104  17.848  0.00  0.00     0.040 H 
ENDBRANCH  33  36
ENDBRANCH   4  32
BRANCH   3  40
ATOM     40  N4  G39 d   1     -32.389  14.539  21.367  0.00  0.00    -0.073 N 
ATOM     41  H24 G39 d   1     -32.955  14.338  22.176  0.00  0.00     0.274 HD
ATOM     42  H25 G39 d   1     -32.693  13.968  20.594  0.00  0.00     0.274 HD
ATOM     43  H26 G39 d   1     -32.485  15.512  21.123  0.00  0.00     0.274 HD
ENDBRANCH   3  40
BRANCH   1  44
ATOM     44  C1  G39 d   1     -28.899  12.358  24.407  0.00  0.00     0.177 C 
ATOM     45  O1A G39 d   1     -29.755  12.004  25.199  0.00  0.00    -0.648 OA
ATOM     46  O1B G39 d   1     -27.565  12.195  24.683  0.00  0.00    -0.648 OA
ENDBRANCH   1  44
TORSDOF 10
