REMARK  11 active torsions:
REMARK  status: ('A' for Active; 'I' for Inactive)
REMARK    1  A    between atoms: CAA_1  and  CAG_7 
REMARK    2  A    between atoms: CAC_3  and  NAZ_17 
REMARK    3  A    between atoms: NBG_24  and  CAD_4 
REMARK    4  A    between atoms: CAE_5  and  CAJ_10 
REMARK    5  A    between atoms: CAJ_10  and  CAK_11 
REMARK    6  A    between atoms: CAJ_10  and  OAW_14 
REMARK    7  A    between atoms: CAK_11  and  CAL_12 
REMARK    8  A    between atoms: CAK_11  and  OAY_16 
REMARK    9  A    between atoms: CAL_12  and  OAM_13 
REMARK   10  A    between atoms: OAW_14  and  CAX_15 
REMARK       I    between atoms: NAZ_17  and  CBA_18 
REMARK       I    between atoms: CBA_18  and  NBB_19 
REMARK   11  A    between atoms: CBD_21  and  CBE_22 
REMARK       I    between atoms: CBD_21  and  NBG_24 
ROOT
ATOM      1  CAA LNV d   1      21.023 -22.413 -53.827  0.00  0.00     0.124 C 
ATOM      2  CAB LNV d   1      20.350 -21.121 -53.369  0.00  0.00    -0.010 C 
ATOM      3  CAC LNV d   1      21.217 -20.138 -52.574  0.00  0.00     0.051 C 
ATOM      4  CAD LNV d   1      22.659 -20.607 -52.226  0.00  0.00     0.059 C 
ATOM      5  CAE LNV d   1      23.012 -22.104 -52.456  0.00  0.00     0.088 C 
ATOM      6  OAF LNV d   1      22.087 -22.953 -53.108  0.00  0.00    -0.365 OA
ATOM      7  H1  LNV d   1      21.600 -21.981 -54.658  0.00  0.00     0.100 H 
ATOM      8  H2  LNV d   1      19.494 -21.397 -52.736  0.00  0.00     0.040 H 
ATOM      9  H3  LNV d   1      19.989 -20.597 -54.266  0.00  0.00     0.040 H 
ATOM     10  H4  LNV d   1      20.751 -20.246 -51.583  0.00  0.00     0.076 H 
ATOM     11  H5  LNV d   1      23.135 -20.219 -53.139  0.00  0.00     0.079 H 
ATOM     12  H6  LNV d   1      22.861 -22.453 -51.424  0.00  0.00     0.090 H 
ENDROOT
BRANCH   5  13
ATOM     13  CAJ LNV d   1      24.443 -22.505 -52.627  0.00  0.00     0.091 C 
ATOM     14  H7  LNV d   1      25.051 -21.906 -51.933  0.00  0.00     0.091 H 
BRANCH  13  15
ATOM     15  CAK LNV d   1      24.650 -23.958 -52.249  0.00  0.00     0.083 C 
ATOM     16  H8  LNV d   1      24.100 -24.542 -53.001  0.00  0.00     0.090 H 
BRANCH  15  17
ATOM     17  CAL LNV d   1      26.092 -24.394 -52.376  0.00  0.00     0.043 C 
ATOM     18  H9  LNV d   1      26.398 -24.246 -53.422  0.00  0.00     0.078 H 
ATOM     19  H10 LNV d   1      26.144 -25.464 -52.127  0.00  0.00     0.078 H 
BRANCH  17  20
ATOM     20  OAM LNV d   1      27.014 -23.716 -51.558  0.00  0.00    -0.398 OA
ATOM     21  H11 LNV d   1      26.779 -23.841 -50.646  0.00  0.00     0.209 HD
ENDBRANCH  17  20
ENDBRANCH  15  17
BRANCH  15  22
ATOM     22  OAY LNV d   1      24.070 -24.282 -51.035  0.00  0.00    -0.391 OA
ATOM     23  H15 LNV d   1      24.090 -25.224 -50.917  0.00  0.00     0.210 HD
ENDBRANCH  15  22
ENDBRANCH  13  15
BRANCH  13  24
ATOM     24  OAW LNV d   1      24.835 -22.176 -53.902  0.00  0.00    -0.385 OA
BRANCH  24  25
ATOM     25  CAX LNV d   1      25.899 -21.304 -54.070  0.00  0.00     0.005 C 
ATOM     26  H12 LNV d   1      26.080 -21.149 -55.144  0.00  0.00     0.066 H 
ATOM     27  H13 LNV d   1      26.800 -21.730 -53.604  0.00  0.00     0.066 H 
ATOM     28  H14 LNV d   1      25.662 -20.340 -53.595  0.00  0.00     0.066 H 
ENDBRANCH  24  25
ENDBRANCH  13  24
ENDBRANCH   5  13
BRANCH   4  29
ATOM     29  NBG LNV d   1      23.466 -19.865 -51.300  0.00  0.00    -0.352 N 
ATOM     30  CBD LNV d   1      24.219 -18.699 -51.625  0.00  0.00     0.214 C 
ATOM     31  OBF LNV d   1      24.366 -18.337 -52.788  0.00  0.00    -0.274 OA
ATOM     32  H24 LNV d   1      23.503 -20.191 -50.355  0.00  0.00     0.163 HD
BRANCH  30  33
ATOM     33  CBE LNV d   1      24.862 -17.979 -50.481  0.00  0.00    -0.003 C 
ATOM     34  H21 LNV d   1      24.594 -18.477 -49.537  0.00  0.00     0.040 H 
ATOM     35  H22 LNV d   1      24.510 -16.937 -50.459  0.00  0.00     0.040 H 
ATOM     36  H23 LNV d   1      25.955 -17.994 -50.606  0.00  0.00     0.040 H 
ENDBRANCH  30  33
ENDBRANCH   4  29
BRANCH   3  37
ATOM     37  NAZ LNV d   1      20.988 -18.740 -52.782  0.00  0.00    -0.220 N 
ATOM     38  CBA LNV d   1      21.073 -17.754 -51.745  0.00  0.00     0.665 C 
ATOM     39  NBB LNV d   1      21.077 -16.493 -52.119  0.00  0.00    -0.235 N 
ATOM     40  NBC LNV d   1      20.993 -18.097 -50.459  0.00  0.00    -0.235 N 
ATOM     41  H17 LNV d   1      21.137 -15.746 -51.412  0.00  0.00     0.174 HD
ATOM     42  H18 LNV d   1      21.021 -16.252 -53.119  0.00  0.00     0.174 HD
ATOM     43  H19 LNV d   1      20.992 -19.091 -50.190  0.00  0.00     0.174 HD
ATOM     44  H20 LNV d   1      20.933 -17.368 -49.734  0.00  0.00     0.174 HD
ATOM     45  H16 LNV d   1      20.748 -18.424 -53.733  0.00  0.00     0.178 HD
ENDBRANCH   3  37
BRANCH   1  46
ATOM     46  CAG LNV d   1      20.232 -23.410 -54.607  0.00  0.00     0.203 C 
ATOM     47  OAH LNV d   1      18.986 -23.046 -55.044  0.00  0.00    -0.646 OA
ATOM     48  OAI LNV d   1      20.534 -24.586 -54.498  0.00  0.00    -0.646 OA
ENDBRANCH   1  46
TORSDOF 11
