REMARK  10 active torsions:
REMARK  status: ('A' for Active; 'I' for Inactive)
REMARK    1  A    between atoms: C1_1  and  C2_4 
REMARK    2  A    between atoms: C4_6  and  NE_20 
REMARK    3  A    between atoms: C5_7  and  N5_8 
REMARK       I    between atoms: N5_8  and  C10_9 
REMARK    4  A    between atoms: C10_9  and  C11_11 
REMARK    5  A    between atoms: C6_12  and  C7_14 
REMARK    6  A    between atoms: C7_14  and  O7_15 
REMARK    7  A    between atoms: C7_14  and  C8_16 
REMARK    8  A    between atoms: C8_16  and  O8_17 
REMARK    9  A    between atoms: C8_16  and  C9_18 
REMARK   10  A    between atoms: C9_18  and  O9_19 
REMARK       I    between atoms: NE_20  and  CZ_21 
REMARK       I    between atoms: CZ_21  and  NH1_22 
ROOT
ATOM      1  C2  ZMR d   1      12.793 -28.093  49.910  0.00  0.00     0.124 C 
ATOM      2  C3  ZMR d   1      13.017 -26.764  49.127  0.00  0.00    -0.010 C 
ATOM      3  C4  ZMR d   1      11.878 -25.783  49.102  0.00  0.00     0.051 C 
ATOM      4  C5  ZMR d   1      10.610 -26.222  49.777  0.00  0.00     0.059 C 
ATOM      5  C6  ZMR d   1      10.391 -27.686  50.115  0.00  0.00     0.088 C 
ATOM      6  O6  ZMR d   1      11.434 -28.583  50.020  0.00  0.00    -0.365 OA
ATOM      7  H1  ZMR d   1      12.963 -27.741  50.938  0.00  0.00     0.100 H 
ATOM      8  H2  ZMR d   1      13.249 -27.029  48.085  0.00  0.00     0.040 H 
ATOM      9  H3  ZMR d   1      13.882 -26.256  49.578  0.00  0.00     0.040 H 
ATOM     10  H4  ZMR d   1      11.563 -25.906  48.055  0.00  0.00     0.076 H 
ATOM     11  H5  ZMR d   1      10.882 -25.885  50.788  0.00  0.00     0.079 H 
ATOM     12  H10 ZMR d   1       9.857 -27.956  49.192  0.00  0.00     0.090 H 
ENDROOT
BRANCH   5  13
ATOM     13  C7  ZMR d   1       9.331 -28.121  51.118  0.00  0.00     0.089 C 
ATOM     14  H11 ZMR d   1       8.433 -27.517  50.922  0.00  0.00     0.091 H 
BRANCH  13  15
ATOM     15  O7  ZMR d   1       9.735 -27.839  52.352  0.00  0.00    -0.390 OA
ATOM     16  H12 ZMR d   1      10.546 -28.300  52.532  0.00  0.00     0.210 HD
ENDBRANCH  13  15
BRANCH  13  17
ATOM     17  C8  ZMR d   1       8.922 -29.560  50.964  0.00  0.00     0.083 C 
ATOM     18  H13 ZMR d   1       9.815 -30.126  51.266  0.00  0.00     0.090 H 
BRANCH  17  19
ATOM     19  O8  ZMR d   1       8.714 -29.936  49.723  0.00  0.00    -0.391 OA
ATOM     20  H14 ZMR d   1       8.461 -30.852  49.709  0.00  0.00     0.210 HD
ENDBRANCH  17  19
BRANCH  17  21
ATOM     21  C9  ZMR d   1       7.868 -29.999  51.934  0.00  0.00     0.043 C 
ATOM     22  H15 ZMR d   1       8.250 -29.861  52.956  0.00  0.00     0.078 H 
ATOM     23  H16 ZMR d   1       7.653 -31.064  51.763  0.00  0.00     0.078 H 
BRANCH  21  24
ATOM     24  O9  ZMR d   1       6.754 -29.320  51.807  0.00  0.00    -0.398 OA
ATOM     25  H17 ZMR d   1       6.411 -29.438  50.929  0.00  0.00     0.209 HD
ENDBRANCH  21  24
ENDBRANCH  17  21
ENDBRANCH  13  17
ENDBRANCH   5  13
BRANCH   4  26
ATOM     26  N5  ZMR d   1       9.449 -25.442  49.631  0.00  0.00    -0.352 N 
ATOM     27  C10 ZMR d   1       9.102 -24.253  50.253  0.00  0.00     0.214 C 
ATOM     28  O10 ZMR d   1       9.685 -23.768  51.112  0.00  0.00    -0.274 OA
ATOM     29  H6  ZMR d   1       8.775 -25.797  48.983  0.00  0.00     0.163 HD
BRANCH  27  30
ATOM     30  C11 ZMR d   1       7.878 -23.611  49.669  0.00  0.00    -0.003 C 
ATOM     31  H7  ZMR d   1       7.662 -22.677  50.208  0.00  0.00     0.040 H 
ATOM     32  H8  ZMR d   1       7.023 -24.296  49.766  0.00  0.00     0.040 H 
ATOM     33  H9  ZMR d   1       8.052 -23.389  48.606  0.00  0.00     0.040 H 
ENDBRANCH  27  30
ENDBRANCH   4  26
BRANCH   3  34
ATOM     34  NE  ZMR d   1      12.201 -24.409  49.065  0.00  0.00    -0.220 N 
ATOM     35  CZ  ZMR d   1      11.547 -23.441  48.269  0.00  0.00     0.665 C 
ATOM     36  NH1 ZMR d   1      10.625 -23.726  47.388  0.00  0.00    -0.235 N 
ATOM     37  NH2 ZMR d   1      11.953 -22.225  48.458  0.00  0.00    -0.235 N 
ATOM     38  H19 ZMR d   1      10.187 -22.973  46.839  0.00  0.00     0.174 HD
ATOM     39  H20 ZMR d   1      10.337 -24.704  47.242  0.00  0.00     0.174 HD
ATOM     40  H21 ZMR d   1      12.681 -22.028  49.159  0.00  0.00     0.174 HD
ATOM     41  H22 ZMR d   1      11.547 -21.455  47.907  0.00  0.00     0.174 HD
ATOM     42  H18 ZMR d   1      12.974 -24.087  49.665  0.00  0.00     0.178 HD
ENDBRANCH   3  34
BRANCH   1  43
ATOM     43  C1  ZMR d   1      13.854 -29.153  49.807  0.00  0.00     0.203 C 
ATOM     44  O1A ZMR d   1      13.620 -30.202  50.209  0.00  0.00    -0.646 OA
ATOM     45  O1B ZMR d   1      15.061 -28.740  49.393  0.00  0.00    -0.646 OA
ENDBRANCH   1  43
TORSDOF 10
