REMARK WARNING: 32 MAX_TORS EXCEEDED!!!
REMARK  93 active torsions:
REMARK  status: ('A' for Active; 'I' for Inactive)
REMARK    1  A    between atoms: N_1  and  CA_2 
REMARK    2  A    between atoms: CA_2  and  C_3 
REMARK    3  A    between atoms: CA_2  and  CB_5 
REMARK       I    between atoms: C_3  and  N_8 
REMARK    4  A    between atoms: CB_5  and  CG1_6 
REMARK    5  A    between atoms: CB_5  and  CG2_7 
REMARK    6  A    between atoms: N_8  and  CA_9 
REMARK    7  A    between atoms: CA_9  and  C_10 
REMARK    8  A    between atoms: CA_9  and  CB_12 
REMARK       I    between atoms: C_10  and  N_15 
REMARK    9  A    between atoms: CB_12  and  OG1_13 
REMARK   10  A    between atoms: CB_12  and  CG2_14 
REMARK   11  A    between atoms: N_15  and  CA_16 
REMARK   12  A    between atoms: CA_16  and  C_17 
REMARK   13  A    between atoms: CA_16  and  CB_19 
REMARK       I    between atoms: C_17  and  N_23 
REMARK   14  A    between atoms: CB_19  and  CG_20 
REMARK   15  A    between atoms: CG_20  and  CD1_21 
REMARK   16  A    between atoms: CG_20  and  CD2_22 
REMARK   17  A    between atoms: N_23  and  CA_24 
REMARK   18  A    between atoms: CA_24  and  C_25 
REMARK   19  A    between atoms: CA_24  and  CB_27 
REMARK       I    between atoms: C_25  and  N_34 
REMARK   20  A    between atoms: CB_27  and  CG_28 
REMARK   21  A    between atoms: CG_28  and  CD_29 
REMARK   22  A    between atoms: CD_29  and  NE_30 
REMARK       I    between atoms: NE_30  and  CZ_31 
REMARK       I    between atoms: CZ_31  and  NH1_32 
REMARK       I    between atoms: CZ_31  and  NH2_33 
REMARK   23  A    between atoms: N_34  and  CA_35 
REMARK   24  A    between atoms: CA_35  and  C_36 
REMARK   25  A    between atoms: CA_35  and  CB_38 
REMARK       I    between atoms: C_36  and  N_45 
REMARK   26  A    between atoms: CB_38  and  CG_39 
REMARK   27  A    between atoms: CG_39  and  CD_40 
REMARK   28  A    between atoms: CD_40  and  NE_41 
REMARK       I    between atoms: NE_41  and  CZ_42 
REMARK       I    between atoms: CZ_42  and  NH1_43 
REMARK       I    between atoms: CZ_42  and  NH2_44 
REMARK   29  A    between atoms: N_45  and  CA_46 
REMARK   30  A    between atoms: CA_46  and  C_47 
REMARK   31  A    between atoms: CA_46  and  CB_49 
REMARK       I    between atoms: C_47  and  N_56 
REMARK   32  A    between atoms: CB_49  and  CG_50 
REMARK   33  A    between atoms: CG_50  and  CD_51 
REMARK   34  A    between atoms: CD_51  and  NE_52 
REMARK       I    between atoms: NE_52  and  CZ_53 
REMARK       I    between atoms: CZ_53  and  NH1_54 
REMARK       I    between atoms: CZ_53  and  NH2_55 
REMARK   35  A    between atoms: N_56  and  CA_57 
REMARK   36  A    between atoms: CA_57  and  C_58 
REMARK   37  A    between atoms: CA_57  and  CB_60 
REMARK       I    between atoms: C_58  and  N_64 
REMARK   38  A    between atoms: CB_60  and  CG_61 
REMARK   39  A    between atoms: CG_61  and  SD_62 
REMARK   40  A    between atoms: SD_62  and  CE_63 
REMARK   41  A    between atoms: N_64  and  CA_65 
REMARK   42  A    between atoms: CA_65  and  C_66 
REMARK   43  A    between atoms: CA_65  and  CB_68 
REMARK       I    between atoms: C_66  and  N_72 
REMARK   44  A    between atoms: CB_68  and  CG_69 
REMARK   45  A    between atoms: CG_69  and  CD1_70 
REMARK   46  A    between atoms: CG_69  and  CD2_71 
REMARK   47  A    between atoms: N_72  and  CA_73 
REMARK   48  A    between atoms: CA_73  and  C_74 
REMARK   49  A    between atoms: CA_73  and  CB_76 
REMARK       I    between atoms: C_74  and  N_77 
REMARK   50  A    between atoms: N_77  and  CA_78 
REMARK   51  A    between atoms: CA_78  and  C_79 
REMARK   52  A    between atoms: CA_78  and  CB_81 
REMARK       I    between atoms: C_79  and  N_82 
REMARK   53  A    between atoms: N_82  and  CA_83 
REMARK   54  A    between atoms: CA_83  and  C_84 
REMARK   55  A    between atoms: CA_83  and  CB_86 
REMARK       I    between atoms: C_84  and  N_87 
REMARK   56  A    between atoms: N_87  and  CA_88 
REMARK   57  A    between atoms: CA_88  and  C_89 
REMARK   58  A    between atoms: CA_88  and  CB_91 
REMARK       I    between atoms: C_89  and  N_92 
REMARK   59  A    between atoms: N_92  and  CA_93 
REMARK   60  A    between atoms: CA_93  and  C_94 
REMARK   61  A    between atoms: CA_93  and  CB_96 
REMARK       I    between atoms: C_94  and  N_101 
REMARK   62  A    between atoms: CB_96  and  CG_97 
REMARK   63  A    between atoms: CG_97  and  CD_98 
REMARK   64  A    between atoms: N_101  and  CA_102 
REMARK   65  A    between atoms: CA_102  and  C_103 
REMARK   66  A    between atoms: CA_102  and  CB_105 
REMARK       I    between atoms: C_103  and  N_112 
REMARK   67  A    between atoms: CB_105  and  CG_106 
REMARK   68  A    between atoms: CG_106  and  CD_107 
REMARK   69  A    between atoms: CD_107  and  NE_108 
REMARK       I    between atoms: NE_108  and  CZ_109 
REMARK       I    between atoms: CZ_109  and  NH1_110 
REMARK       I    between atoms: CZ_109  and  NH2_111 
REMARK   70  A    between atoms: N_112  and  CA_113 
REMARK   71  A    between atoms: CA_113  and  C_114 
REMARK   72  A    between atoms: CA_113  and  CB_116 
REMARK       I    between atoms: C_114  and  N_123 
REMARK   73  A    between atoms: CB_116  and  CG_117 
REMARK   74  A    between atoms: CG_117  and  CD_118 
REMARK   75  A    between atoms: CD_118  and  NE_119 
REMARK       I    between atoms: NE_119  and  CZ_120 
REMARK       I    between atoms: CZ_120  and  NH1_121 
REMARK   76  A    between atoms: N_123  and  CA_124 
REMARK   77  A    between atoms: CA_124  and  C_125 
REMARK   78  A    between atoms: CA_124  and  CB_127 
REMARK       I    between atoms: C_125  and  N_131 
REMARK   79  A    between atoms: CB_127  and  CG_128 
REMARK   80  A    between atoms: CG_128  and  CD1_129 
REMARK   81  A    between atoms: CG_128  and  CD2_130 
REMARK   82  A    between atoms: N_131  and  CA_132 
REMARK   83  A    between atoms: CA_132  and  C_133 
REMARK   84  A    between atoms: CA_132  and  CB_135 
REMARK       I    between atoms: C_133  and  N_140 
REMARK   85  A    between atoms: CB_135  and  CG_136 
REMARK   86  A    between atoms: CG_136  and  CD_137 
REMARK       I    between atoms: CD_137  and  NE2_139 
REMARK   87  A    between atoms: N_140  and  CA_141 
REMARK   88  A    between atoms: CA_141  and  C_142 
REMARK   89  A    between atoms: CA_141  and  CB_144 
REMARK   90  A    between atoms: CB_144  and  CG_145 
REMARK   91  A    between atoms: CG_145  and  CD_146 
REMARK   92  A    between atoms: CD_146  and  CE_147 
REMARK   93  A    between atoms: CE_147  and  NZ_148 
ROOT
ATOM      1  C   LEU d   1      14.490  -8.569 -17.707  0.00  0.00     0.241 C 
ATOM      2  O   LEU d   1      15.494  -7.910 -17.446  0.00  0.00    -0.271 OA
ATOM      3  N   ALA d   1      14.535  -9.669 -18.446  0.00  0.00    -0.346 N 
ATOM      4  H   ALA d   1      13.679 -10.202 -18.602  0.00  0.00     0.163 HD
ENDROOT
BRANCH   3   5
ATOM      5  CA  ALA d   1      15.784 -10.132 -19.041  0.00  0.00     0.086 C 
ATOM      6  H   ALA d   1      16.516 -10.194 -18.236  0.00  0.00     0.086 H 
BRANCH   5   7
ATOM      7  C   ALA d   1      16.340  -9.155 -20.073  0.00  0.00     0.240 C 
ATOM      8  O   ALA d   1      17.532  -8.875 -20.073  0.00  0.00    -0.271 OA
ATOM      9  N   ALA d   1      15.480  -8.626 -20.941  0.00  0.00    -0.346 N 
ATOM     10  H   ALA d   1      14.486  -8.837 -20.851  0.00  0.00     0.163 HD
BRANCH   9  11
ATOM     11  CA  ALA d   1      15.933  -7.746 -22.025  0.00  0.00     0.086 C 
ATOM     12  H   ALA d   1      16.722  -8.283 -22.551  0.00  0.00     0.086 H 
BRANCH  11  13
ATOM     13  C   ALA d   1      16.537  -6.450 -21.511  0.00  0.00     0.240 C 
ATOM     14  O   ALA d   1      17.482  -5.931 -22.093  0.00  0.00    -0.271 OA
ATOM     15  N   ALA d   1      15.990  -5.935 -20.416  0.00  0.00    -0.346 N 
ATOM     16  H   ALA d   1      15.194  -6.409 -19.989  0.00  0.00     0.163 HD
BRANCH  15  17
ATOM     17  CA  ALA d   1      16.493  -4.716 -19.809  0.00  0.00     0.086 C 
ATOM     18  H   ALA d   1      16.564  -3.945 -20.576  0.00  0.00     0.086 H 
BRANCH  17  19
ATOM     19  C   ALA d   1      17.867  -4.961 -19.227  0.00  0.00     0.240 C 
ATOM     20  O   ALA d   1      18.728  -4.095 -19.285  0.00  0.00    -0.271 OA
ATOM     21  N   ALA d   1      18.062  -6.143 -18.650  0.00  0.00    -0.346 N 
ATOM     22  H   ALA d   1      17.300  -6.821 -18.640  0.00  0.00     0.163 HD
BRANCH  21  23
ATOM     23  CA  ALA d   1      19.334  -6.497 -18.032  0.00  0.00     0.086 C 
ATOM     24  H   ALA d   1      19.656  -5.665 -17.406  0.00  0.00     0.086 H 
BRANCH  23  25
ATOM     25  C   ALA d   1      20.396  -6.737 -19.094  0.00  0.00     0.240 C 
ATOM     26  O   ALA d   1      21.553  -6.352 -18.928  0.00  0.00    -0.271 OA
ATOM     27  N   GLU d   1      19.994  -7.382 -20.183  0.00  0.00    -0.346 N 
ATOM     28  H   GLU d   1      19.026  -7.696 -20.247  0.00  0.00     0.163 HD
BRANCH  27  29
ATOM     29  CA  GLU d   1      20.901  -7.650 -21.285  0.00  0.00     0.090 C 
ATOM     30  H   GLU d   1      21.792  -8.143 -20.897  0.00  0.00     0.087 H 
BRANCH  29  31
ATOM     31  C   GLU d   1      21.360  -6.349 -21.936  0.00  0.00     0.241 C 
ATOM     32  O   GLU d   1      22.509  -6.232 -22.342  0.00  0.00    -0.271 OA
ATOM     33  N   ARG d   1      20.469  -5.366 -22.021  0.00  0.00    -0.346 N 
ATOM     34  H   ARG d   1      19.510  -5.532 -21.716  0.00  0.00     0.163 HD
BRANCH  33  35
ATOM     35  CA  ARG d   1      20.838  -4.057 -22.541  0.00  0.00     0.089 C 
ATOM     36  H   ARG d   1      21.260  -4.201 -23.536  0.00  0.00     0.087 H 
BRANCH  35  37
ATOM     37  C   ARG d   1      21.881  -3.405 -21.651  0.00  0.00     0.241 C 
ATOM     38  O   ARG d   1      22.833  -2.804 -22.137  0.00  0.00    -0.271 OA
ATOM     39  N   ARG d   1      21.694  -3.525 -20.342  0.00  0.00    -0.346 N 
ATOM     40  H   ARG d   1      20.860  -3.997 -19.992  0.00  0.00     0.163 HD
BRANCH  39  41
ATOM     41  CA  ARG d   1      22.666  -2.990 -19.402  0.00  0.00     0.089 C 
ATOM     42  H   ARG d   1      22.776  -1.925 -19.608  0.00  0.00     0.087 H 
BRANCH  41  43
ATOM     43  C   ARG d   1      24.033  -3.648 -19.590  0.00  0.00     0.241 C 
ATOM     44  O   ARG d   1      25.067  -2.981 -19.547  0.00  0.00    -0.271 OA
ATOM     45  N   LEU d   1      24.043  -4.956 -19.820  0.00  0.00    -0.346 N 
ATOM     46  H   LEU d   1      23.164  -5.468 -19.887  0.00  0.00     0.163 HD
BRANCH  45  47
ATOM     47  CA  LEU d   1      25.310  -5.660 -19.977  0.00  0.00     0.089 C 
ATOM     48  H   LEU d   1      25.991  -5.221 -19.248  0.00  0.00     0.087 H 
BRANCH  47  49
ATOM     49  C   LEU d   1      25.977  -5.422 -21.339  0.00  0.00     0.241 C 
ATOM     50  O   LEU d   1      27.198  -5.488 -21.449  0.00  0.00    -0.271 OA
ATOM     51  N   GLN d   1      25.187  -5.117 -22.365  0.00  0.00    -0.346 N 
ATOM     52  H   GLN d   1      24.175  -5.132 -22.240  0.00  0.00     0.163 HD
BRANCH  51  53
ATOM     53  CA  GLN d   1      25.745  -4.760 -23.669  0.00  0.00     0.090 C 
ATOM     54  H   GLN d   1      26.675  -5.316 -23.787  0.00  0.00     0.087 H 
BRANCH  53  55
ATOM     55  C   GLN d   1      26.070  -3.263 -23.749  0.00  0.00     0.241 C 
ATOM     56  O   GLN d   1      25.862  -2.622 -24.781  0.00  0.00    -0.271 OA
ATOM     57  N   LYS d   1      26.586  -2.717 -22.652  0.00  0.00    -0.345 N 
ATOM     58  H   LYS d   1      26.780  -3.314 -21.848  0.00  0.00     0.163 HD
BRANCH  57  59
ATOM     59  CA  LYS d   1      26.884  -1.294 -22.560  0.00  0.00     0.096 C 
ATOM     60  H   LYS d   1      27.407  -0.986 -23.465  0.00  0.00     0.089 H 
BRANCH  59  61
ATOM     61  C   LYS d   1      27.792  -1.014 -21.362  0.00  0.00     0.196 C 
ATOM     62  O   LYS d   1      28.939  -0.516 -21.519  0.00  0.00    -0.646 OA
ATOM     63  O   LYS d   1      27.387  -1.286 -20.200  0.00  0.00    -0.646 OA
ENDBRANCH  59  61
BRANCH  59  64
ATOM     64  CB  LYS d   1      25.584  -0.493 -22.444  0.00  0.00    -0.037 C 
ATOM     65  H   LYS d   1      25.381  -0.364 -21.381  0.00  0.00     0.036 H 
ATOM     66  H   LYS d   1      24.817  -1.048 -22.984  0.00  0.00     0.036 H 
BRANCH  64  67
ATOM     67  CG  LYS d   1      25.647   0.894 -23.058  0.00  0.00    -0.061 C 
ATOM     68  H   LYS d   1      24.659   1.348 -22.988  0.00  0.00     0.033 H 
ATOM     69  H   LYS d   1      25.970   0.798 -24.095  0.00  0.00     0.033 H 
BRANCH  67  70
ATOM     70  CD  LYS d   1      26.639   1.784 -22.325  0.00  0.00    -0.043 C 
ATOM     71  H   LYS d   1      27.413   1.153 -21.887  0.00  0.00     0.035 H 
ATOM     72  H   LYS d   1      26.102   2.344 -21.559  0.00  0.00     0.035 H 
BRANCH  70  73
ATOM     73  CE  LYS d   1      27.301   2.774 -23.274  0.00  0.00     0.080 C 
ATOM     74  H   LYS d   1      27.962   3.413 -22.688  0.00  0.00     0.075 H 
ATOM     75  H   LYS d   1      26.515   3.339 -23.774  0.00  0.00     0.075 H 
BRANCH  73  76
ATOM     76  NZ  LYS d   1      28.121   2.096 -24.321  0.00  0.00    -0.079 N 
ATOM     77  H   LYS d   1      28.542   2.798 -24.929  0.00  0.00     0.274 HD
ATOM     78  H   LYS d   1      28.856   1.548 -23.874  0.00  0.00     0.274 HD
ATOM     79  H   LYS d   1      27.524   1.480 -24.873  0.00  0.00     0.274 HD
ENDBRANCH  73  76
ENDBRANCH  70  73
ENDBRANCH  67  70
ENDBRANCH  64  67
ENDBRANCH  59  64
ENDBRANCH  57  59
ENDBRANCH  53  55
BRANCH  53  80
ATOM     80  CB  GLN d   1      24.795  -5.155 -24.799  0.00  0.00    -0.030 C 
ATOM     81  H   GLN d   1      24.444  -6.165 -24.586  0.00  0.00     0.037 H 
ATOM     82  H   GLN d   1      25.350  -5.063 -25.733  0.00  0.00     0.037 H 
BRANCH  80  83
ATOM     83  CG  GLN d   1      23.570  -4.271 -24.918  0.00  0.00     0.011 C 
ATOM     84  H   GLN d   1      23.829  -3.284 -24.533  0.00  0.00     0.047 H 
ATOM     85  H   GLN d   1      22.762  -4.739 -24.357  0.00  0.00     0.047 H 
BRANCH  83  86
ATOM     86  CD  GLN d   1      23.109  -4.107 -26.354  0.00  0.00     0.215 C 
ATOM     87  OE1 GLN d   1      22.991  -5.082 -27.098  0.00  0.00    -0.274 OA
ATOM     88  NE2 GLN d   1      22.853  -2.865 -26.754  0.00  0.00    -0.370 N 
ATOM     89  H   GLN d   1      22.546  -2.691 -27.711  0.00  0.00     0.159 HD
ATOM     90  H   GLN d   1      22.964  -2.087 -26.104  0.00  0.00     0.159 HD
ENDBRANCH  83  86
ENDBRANCH  80  83
ENDBRANCH  53  80
ENDBRANCH  51  53
ENDBRANCH  47  49
BRANCH  47  91
ATOM     91  CB  LEU d   1      25.185  -7.154 -19.627  0.00  0.00    -0.035 C 
ATOM     92  H   LEU d   1      24.754  -7.118 -18.626  0.00  0.00     0.037 H 
ATOM     93  H   LEU d   1      26.177  -7.530 -19.879  0.00  0.00     0.037 H 
BRANCH  91  94
ATOM     94  CG  LEU d   1      24.271  -8.165 -20.332  0.00  0.00    -0.059 C 
ATOM     95  H   LEU d   1      23.291  -7.700 -20.441  0.00  0.00     0.038 H 
BRANCH  94  96
ATOM     96  CD1 LEU d   1      24.783  -8.516 -21.715  0.00  0.00    -0.073 C 
ATOM     97  H   LEU d   1      24.830  -7.613 -22.324  0.00  0.00     0.028 H 
ATOM     98  H   LEU d   1      25.778  -8.952 -21.633  0.00  0.00     0.028 H 
ATOM     99  H   LEU d   1      24.107  -9.234 -22.180  0.00  0.00     0.028 H 
ENDBRANCH  94  96
BRANCH  94 100
ATOM    100  CD2 LEU d   1      24.151  -9.437 -19.496  0.00  0.00    -0.073 C 
ATOM    101  H   LEU d   1      25.139  -9.878 -19.364  0.00  0.00     0.028 H 
ATOM    102  H   LEU d   1      23.729  -9.191 -18.522  0.00  0.00     0.028 H 
ATOM    103  H   LEU d   1      23.500 -10.146 -20.007  0.00  0.00     0.028 H 
ENDBRANCH  94 100
ENDBRANCH  91  94
ENDBRANCH  47  91
ENDBRANCH  45  47
ENDBRANCH  41  43
BRANCH  41 104
ATOM    104  CB  ARG d   1      22.179  -3.142 -17.961  0.00  0.00    -0.036 C 
ATOM    105  H   ARG d   1      22.960  -2.763 -17.302  0.00  0.00     0.036 H 
ATOM    106  H   ARG d   1      21.960  -4.196 -17.791  0.00  0.00     0.036 H 
BRANCH 104 107
ATOM    107  CG  ARG d   1      20.925  -2.361 -17.687  0.00  0.00    -0.048 C 
ATOM    108  H   ARG d   1      20.076  -2.943 -18.046  0.00  0.00     0.035 H 
ATOM    109  H   ARG d   1      21.005  -1.399 -18.194  0.00  0.00     0.035 H 
BRANCH 107 110
ATOM    110  CD  ARG d   1      20.730  -2.102 -16.215  0.00  0.00     0.009 C 
ATOM    111  H   ARG d   1      19.880  -1.430 -16.098  0.00  0.00     0.064 H 
ATOM    112  H   ARG d   1      21.651  -1.672 -15.821  0.00  0.00     0.064 H 
BRANCH 110 113
ATOM    113  NE  ARG d   1      20.448  -3.320 -15.477  0.00  0.00    -0.227 N 
ATOM    114  CZ  ARG d   1      19.256  -3.899 -15.412  0.00  0.00     0.665 C 
ATOM    115  NH1 ARG d   1      19.098  -5.000 -14.701  0.00  0.00    -0.235 N 
ATOM    116  NH2 ARG d   1      18.222  -3.385 -16.051  0.00  0.00    -0.235 N 
ATOM    117  H   ARG d   1      19.891  -5.404 -14.203  0.00  0.00     0.174 HD
ATOM    118  H   ARG d   1      18.183  -5.447 -14.650  0.00  0.00     0.174 HD
ATOM    119  H   ARG d   1      18.335  -2.534 -16.602  0.00  0.00     0.174 HD
ATOM    120  H   ARG d   1      17.310  -3.839 -15.994  0.00  0.00     0.174 HD
ATOM    121  H   ARG d   1      21.218  -3.760 -14.974  0.00  0.00     0.177 HD
ENDBRANCH 110 113
ENDBRANCH 107 110
ENDBRANCH 104 107
ENDBRANCH  41 104
ENDBRANCH  39  41
ENDBRANCH  35  37
BRANCH  35 122
ATOM    122  CB  ARG d   1      19.617  -3.150 -22.661  0.00  0.00    -0.036 C 
ATOM    123  H   ARG d   1      19.977  -2.139 -22.855  0.00  0.00     0.036 H 
ATOM    124  H   ARG d   1      19.050  -3.238 -21.734  0.00  0.00     0.036 H 
BRANCH 122 125
ATOM    125  CG  ARG d   1      18.695  -3.530 -23.796  0.00  0.00    -0.048 C 
ATOM    126  H   ARG d   1      18.183  -4.455 -23.530  0.00  0.00     0.035 H 
ATOM    127  H   ARG d   1      19.292  -3.649 -24.700  0.00  0.00     0.035 H 
BRANCH 125 128
ATOM    128  CD  ARG d   1      17.650  -2.459 -24.048  0.00  0.00     0.009 C 
ATOM    129  H   ARG d   1      17.689  -2.193 -25.104  0.00  0.00     0.064 H 
ATOM    130  H   ARG d   1      17.871  -1.613 -23.397  0.00  0.00     0.064 H 
BRANCH 128 131
ATOM    131  NE  ARG d   1      16.295  -2.919 -23.747  0.00  0.00    -0.227 N 
ATOM    132  CZ  ARG d   1      15.629  -2.626 -22.632  0.00  0.00     0.665 C 
ATOM    133  NH1 ARG d   1      16.184  -1.867 -21.692  0.00  0.00    -0.235 N 
ATOM    134  NH2 ARG d   1      14.400  -3.091 -22.459  0.00  0.00    -0.235 N 
ATOM    135  H   ARG d   1      17.128  -1.504 -21.822  0.00  0.00     0.174 HD
ATOM    136  H   ARG d   1      15.666  -1.648 -20.841  0.00  0.00     0.174 HD
ATOM    137  H   ARG d   1      13.968  -3.671 -23.178  0.00  0.00     0.174 HD
ATOM    138  H   ARG d   1      13.886  -2.869 -21.606  0.00  0.00     0.174 HD
ATOM    139  H   ARG d   1      15.828  -3.505 -24.439  0.00  0.00     0.177 HD
ENDBRANCH 128 131
ENDBRANCH 125 128
ENDBRANCH 122 125
ENDBRANCH  35 122
ENDBRANCH  33  35
ENDBRANCH  29  31
BRANCH  29 140
ATOM    140  CB  GLU d   1      20.256  -8.607 -22.290  0.00  0.00    -0.029 C 
ATOM    141  H   GLU d   1      20.880  -8.639 -23.183  0.00  0.00     0.037 H 
ATOM    142  H   GLU d   1      19.252  -8.246 -22.512  0.00  0.00     0.037 H 
BRANCH 140 143
ATOM    143  CG  GLU d   1      20.146 -10.014 -21.734  0.00  0.00     0.018 C 
ATOM    144  H   GLU d   1      19.936  -9.925 -20.668  0.00  0.00     0.049 H 
ATOM    145  H   GLU d   1      21.082 -10.525 -21.960  0.00  0.00     0.049 H 
BRANCH 143 146
ATOM    146  CD  GLU d   1      19.027 -10.832 -22.346  0.00  0.00     0.172 C 
ATOM    147  OE1 GLU d   1      18.285 -10.301 -23.194  0.00  0.00    -0.648 OA
ATOM    148  OE2 GLU d   1      18.886 -12.015 -21.972  0.00  0.00    -0.648 OA
ENDBRANCH 143 146
ENDBRANCH 140 143
ENDBRANCH  29 140
ENDBRANCH  27  29
ENDBRANCH  23  25
BRANCH  23 149
ATOM    149  CB  ALA d   1      19.173  -7.724 -17.158  0.00  0.00    -0.049 C 
ATOM    150  H   ALA d   1      18.443  -7.518 -16.376  0.00  0.00     0.030 H 
ATOM    151  H   ALA d   1      18.829  -8.560 -17.767  0.00  0.00     0.030 H 
ATOM    152  H   ALA d   1      20.132  -7.974 -16.705  0.00  0.00     0.030 H 
ENDBRANCH  23 149
ENDBRANCH  21  23
ENDBRANCH  17  19
BRANCH  17 153
ATOM    153  CB  ALA d   1      15.546  -4.232 -18.731  0.00  0.00    -0.049 C 
ATOM    154  H   ALA d   1      14.569  -4.033 -19.171  0.00  0.00     0.030 H 
ATOM    155  H   ALA d   1      15.451  -4.999 -17.962  0.00  0.00     0.030 H 
ATOM    156  H   ALA d   1      15.940  -3.317 -18.287  0.00  0.00     0.030 H 
ENDBRANCH  17 153
ENDBRANCH  15  17
ENDBRANCH  11  13
BRANCH  11 157
ATOM    157  CB  ALA d   1      14.809  -7.455 -22.991  0.00  0.00    -0.049 C 
ATOM    158  H   ALA d   1      14.453  -8.390 -23.424  0.00  0.00     0.030 H 
ATOM    159  H   ALA d   1      13.993  -6.965 -22.460  0.00  0.00     0.030 H 
ATOM    160  H   ALA d   1      15.173  -6.801 -23.784  0.00  0.00     0.030 H 
ENDBRANCH  11 157
ENDBRANCH   9  11
ENDBRANCH   5   7
BRANCH   5 161
ATOM    161  CB  ALA d   1      15.600 -11.508 -19.658  0.00  0.00    -0.049 C 
ATOM    162  H   ALA d   1      15.292 -12.213 -18.886  0.00  0.00     0.030 H 
ATOM    163  H   ALA d   1      14.835 -11.458 -20.433  0.00  0.00     0.030 H 
ATOM    164  H   ALA d   1      16.542 -11.837 -20.097  0.00  0.00     0.030 H 
ENDBRANCH   5 161
ENDBRANCH   3   5
BRANCH   1 165
ATOM    165  CA  LEU d   1      13.120  -8.145 -17.177  0.00  0.00     0.089 C 
ATOM    166  H   LEU d   1      13.201  -7.102 -16.872  0.00  0.00     0.087 H 
BRANCH 165 167
ATOM    167  N   LEU d   1      12.092  -8.232 -18.192  0.00  0.00    -0.346 N 
ATOM    168  C   MET d   1      12.129  -7.525 -19.314  0.00  0.00     0.241 C 
ATOM    169  O   MET d   1      13.000  -6.688 -19.556  0.00  0.00    -0.271 OA
ATOM    170  H   LEU d   1      11.306  -8.864 -18.038  0.00  0.00     0.163 HD
BRANCH 168 171
ATOM    171  CA  MET d   1      11.009  -7.814 -20.316  0.00  0.00     0.090 C 
ATOM    172  H   MET d   1      11.320  -7.432 -21.288  0.00  0.00     0.087 H 
BRANCH 171 173
ATOM    173  N   MET d   1      10.776  -9.249 -20.455  0.00  0.00    -0.346 N 
ATOM    174  C   ARG d   1      11.692 -10.038 -21.001  0.00  0.00     0.241 C 
ATOM    175  O   ARG d   1      12.739  -9.604 -21.457  0.00  0.00    -0.271 OA
ATOM    176  H   MET d   1       9.897  -9.650 -20.128  0.00  0.00     0.163 HD
BRANCH 174 177
ATOM    177  CA  ARG d   1      11.395 -11.530 -21.040  0.00  0.00     0.089 C 
ATOM    178  H   ARG d   1      12.360 -12.037 -21.021  0.00  0.00     0.087 H 
BRANCH 177 179
ATOM    179  N   ARG d   1      10.656 -11.988 -19.875  0.00  0.00    -0.346 N 
ATOM    180  C   ARG d   1      11.211 -11.967 -18.671  0.00  0.00     0.241 C 
ATOM    181  O   ARG d   1      12.363 -11.576 -18.474  0.00  0.00    -0.271 OA
ATOM    182  H   ARG d   1       9.701 -12.329 -19.985  0.00  0.00     0.163 HD
BRANCH 180 183
ATOM    183  CA  ARG d   1      10.326 -12.412 -17.513  0.00  0.00     0.089 C 
ATOM    184  H   ARG d   1      10.643 -11.869 -16.623  0.00  0.00     0.087 H 
BRANCH 183 185
ATOM    185  N   ARG d   1       8.934 -12.075 -17.776  0.00  0.00    -0.346 N 
ATOM    186  C   ARG d   1       8.583 -10.799 -17.900  0.00  0.00     0.241 C 
ATOM    187  O   ARG d   1       9.411  -9.892 -17.920  0.00  0.00    -0.271 OA
ATOM    188  H   ARG d   1       8.234 -12.812 -17.864  0.00  0.00     0.163 HD
BRANCH 186 189
ATOM    189  CA  ARG d   1       7.089 -10.484 -18.014  0.00  0.00     0.089 C 
ATOM    190  H   ARG d   1       7.010  -9.507 -18.490  0.00  0.00     0.087 H 
BRANCH 189 191
ATOM    191  N   ARG d   1       6.355 -11.383 -18.894  0.00  0.00    -0.346 N 
ATOM    192  C   LEU d   1       6.698 -11.505 -20.170  0.00  0.00     0.241 C 
ATOM    193  O   LEU d   1       7.717 -10.999 -20.633  0.00  0.00    -0.271 OA
ATOM    194  H   ARG d   1       5.571 -11.923 -18.527  0.00  0.00     0.163 HD
BRANCH 192 195
ATOM    195  CA  LEU d   1       5.769 -12.317 -21.057  0.00  0.00     0.089 C 
ATOM    196  H   LEU d   1       4.827 -12.481 -20.533  0.00  0.00     0.087 H 
BRANCH 195 197
ATOM    197  N   LEU d   1       5.523 -11.592 -22.294  0.00  0.00    -0.346 N 
ATOM    198  C   THR d   1       4.456 -10.828 -22.490  0.00  0.00     0.243 C 
ATOM    199  O   THR d   1       3.596 -10.625 -21.640  0.00  0.00    -0.271 OA
ATOM    200  H   LEU d   1       6.205 -11.675 -23.048  0.00  0.00     0.163 HD
BRANCH 198 201
ATOM    201  CA  THR d   1       4.341 -10.215 -23.870  0.00  0.00     0.113 C 
ATOM    202  H   THR d   1       4.572 -10.969 -24.622  0.00  0.00     0.091 H 
BRANCH 201 203
ATOM    203  N   THR d   1       2.980  -9.772 -24.103  0.00  0.00    -0.344 N 
ATOM    204  C   VAL d   1       2.345 -10.090 -25.226  0.00  0.00     0.249 C 
ATOM    205  O   VAL d   1       2.868 -10.755 -26.123  0.00  0.00    -0.271 OA
ATOM    206  H   THR d   1       2.505  -9.210 -23.397  0.00  0.00     0.163 HD
BRANCH 204 207
ATOM    207  CA  VAL d   1       0.914  -9.581 -25.360  0.00  0.00     0.178 C 
ATOM    208  H   VAL d   1       0.870  -8.533 -25.064  0.00  0.00     0.099 H 
BRANCH 207 209
ATOM    209  N   VAL d   1       0.462  -9.646 -26.742  0.00  0.00    -0.066 N 
ATOM    210  H   VAL d   1       1.083  -9.088 -27.328  0.00  0.00     0.275 HD
ATOM    211  H   VAL d   1       0.475 -10.616 -27.058  0.00  0.00     0.275 HD
ATOM    212  H   VAL d   1      -0.488  -9.280 -26.805  0.00  0.00     0.275 HD
ENDBRANCH 207 209
BRANCH 207 213
ATOM    213  CB  VAL d   1       0.009 -10.408 -24.435  0.00  0.00    -0.025 C 
ATOM    214  H   VAL d   1       0.312 -10.236 -23.402  0.00  0.00     0.042 H 
BRANCH 213 215
ATOM    215  CG1 VAL d   1      -1.429  -9.977 -24.594  0.00  0.00    -0.071 C 
ATOM    216  H   VAL d   1      -1.752 -10.165 -25.618  0.00  0.00     0.028 H 
ATOM    217  H   VAL d   1      -2.055 -10.543 -23.904  0.00  0.00     0.028 H 
ATOM    218  H   VAL d   1      -1.514  -8.913 -24.374  0.00  0.00     0.028 H 
ENDBRANCH 213 215
BRANCH 213 219
ATOM    219  CG2 VAL d   1       0.157 -11.890 -24.736  0.00  0.00    -0.071 C 
ATOM    220  H   VAL d   1      -0.463 -12.463 -24.047  0.00  0.00     0.028 H 
ATOM    221  H   VAL d   1      -0.160 -12.085 -25.760  0.00  0.00     0.028 H 
ATOM    222  H   VAL d   1       1.200 -12.181 -24.616  0.00  0.00     0.028 H 
ENDBRANCH 213 219
ENDBRANCH 207 213
ENDBRANCH 204 207
ENDBRANCH 201 203
BRANCH 201 223
ATOM    223  CB  THR d   1       5.380  -9.073 -24.052  0.00  0.00     0.060 C 
ATOM    224  H   THR d   1       6.370  -9.489 -23.864  0.00  0.00     0.086 H 
BRANCH 223 225
ATOM    225  OG1 THR d   1       5.114  -8.017 -23.128  0.00  0.00    -0.393 OA
ATOM    226  H   THR d   1       5.171  -8.356 -22.232  0.00  0.00     0.210 HD
ENDBRANCH 223 225
BRANCH 223 227
ATOM    227  CG2 THR d   1       5.341  -8.518 -25.469  0.00  0.00    -0.050 C 
ATOM    228  H   THR d   1       5.570  -9.315 -26.176  0.00  0.00     0.031 H 
ATOM    229  H   THR d   1       4.347  -8.122 -25.675  0.00  0.00     0.031 H 
ATOM    230  H   THR d   1       6.078  -7.721 -25.566  0.00  0.00     0.031 H 
ENDBRANCH 223 227
ENDBRANCH 201 223
ENDBRANCH 198 201
ENDBRANCH 195 197
BRANCH 195 231
ATOM    231  CB  LEU d   1       6.408 -13.665 -21.381  0.00  0.00    -0.035 C 
ATOM    232  H   LEU d   1       7.391 -13.426 -21.788  0.00  0.00     0.037 H 
ATOM    233  H   LEU d   1       5.692 -14.174 -22.026  0.00  0.00     0.037 H 
BRANCH 231 234
ATOM    234  CG  LEU d   1       6.674 -14.636 -20.230  0.00  0.00    -0.059 C 
ATOM    235  H   LEU d   1       7.370 -14.162 -19.538  0.00  0.00     0.038 H 
BRANCH 234 236
ATOM    236  CD1 LEU d   1       5.403 -14.942 -19.456  0.00  0.00    -0.073 C 
ATOM    237  H   LEU d   1       4.999 -14.018 -19.043  0.00  0.00     0.028 H 
ATOM    238  H   LEU d   1       4.670 -15.392 -20.126  0.00  0.00     0.028 H 
ATOM    239  H   LEU d   1       5.630 -15.635 -18.646  0.00  0.00     0.028 H 
ENDBRANCH 234 236
BRANCH 234 240
ATOM    240  CD2 LEU d   1       7.300 -15.909 -20.762  0.00  0.00    -0.073 C 
ATOM    241  H   LEU d   1       6.621 -16.375 -21.476  0.00  0.00     0.028 H 
ATOM    242  H   LEU d   1       8.242 -15.670 -21.256  0.00  0.00     0.028 H 
ATOM    243  H   LEU d   1       7.486 -16.594 -19.935  0.00  0.00     0.028 H 
ENDBRANCH 234 240
ENDBRANCH 231 234
ENDBRANCH 195 231
ENDBRANCH 192 195
ENDBRANCH 189 191
BRANCH 189 244
ATOM    244  CB  ARG d   1       6.463 -10.426 -16.617  0.00  0.00    -0.036 C 
ATOM    245  H   ARG d   1       6.583 -11.404 -16.151  0.00  0.00     0.036 H 
ATOM    246  H   ARG d   1       5.415 -10.148 -16.727  0.00  0.00     0.036 H 
BRANCH 244 247
ATOM    247  CG  ARG d   1       7.132  -9.399 -15.733  0.00  0.00    -0.048 C 
ATOM    248  H   ARG d   1       7.128  -8.442 -16.254  0.00  0.00     0.035 H 
ATOM    249  H   ARG d   1       8.146  -9.737 -15.520  0.00  0.00     0.035 H 
BRANCH 247 250
ATOM    250  CD  ARG d   1       6.405  -9.232 -14.429  0.00  0.00     0.009 C 
ATOM    251  H   ARG d   1       5.335  -9.293 -14.625  0.00  0.00     0.064 H 
ATOM    252  H   ARG d   1       6.688  -8.270 -14.002  0.00  0.00     0.064 H 
BRANCH 250 253
ATOM    253  NE  ARG d   1       6.752 -10.273 -13.475  0.00  0.00    -0.227 N 
ATOM    254  CZ  ARG d   1       6.296 -10.315 -12.226  0.00  0.00     0.665 C 
ATOM    255  NH1 ARG d   1       6.661 -11.295 -11.417  0.00  0.00    -0.235 N 
ATOM    256  NH2 ARG d   1       5.471  -9.376 -11.788  0.00  0.00    -0.235 N 
ATOM    257  H   ARG d   1       7.294 -12.022 -11.750  0.00  0.00     0.174 HD
ATOM    258  H   ARG d   1       6.309 -11.324 -10.460  0.00  0.00     0.174 HD
ATOM    259  H   ARG d   1       5.184  -8.619 -12.409  0.00  0.00     0.174 HD
ATOM    260  H   ARG d   1       5.122  -9.410 -10.830  0.00  0.00     0.174 HD
ATOM    261  H   ARG d   1       7.382 -11.014 -13.781  0.00  0.00     0.177 HD
ENDBRANCH 250 253
ENDBRANCH 247 250
ENDBRANCH 244 247
ENDBRANCH 189 244
ENDBRANCH 186 189
ENDBRANCH 183 185
BRANCH 183 262
ATOM    262  CB  ARG d   1      10.499 -13.897 -17.199  0.00  0.00    -0.036 C 
ATOM    263  H   ARG d   1       9.772 -14.133 -16.422  0.00  0.00     0.036 H 
ATOM    264  H   ARG d   1      11.546 -14.033 -16.929  0.00  0.00     0.036 H 
BRANCH 262 265
ATOM    265  CG  ARG d   1      10.227 -14.849 -18.338  0.00  0.00    -0.048 C 
ATOM    266  H   ARG d   1      10.748 -14.491 -19.226  0.00  0.00     0.035 H 
ATOM    267  H   ARG d   1       9.151 -14.893 -18.509  0.00  0.00     0.035 H 
BRANCH 265 268
ATOM    268  CD  ARG d   1      10.731 -16.258 -18.006  0.00  0.00     0.009 C 
ATOM    269  H   ARG d   1      10.193 -16.613 -17.127  0.00  0.00     0.064 H 
ATOM    270  H   ARG d   1      11.806 -16.202 -17.835  0.00  0.00     0.064 H 
BRANCH 268 271
ATOM    271  NE  ARG d   1      10.492 -17.200 -19.096  0.00  0.00    -0.227 N 
ATOM    272  CZ  ARG d   1      11.167 -17.209 -20.244  0.00  0.00     0.665 C 
ATOM    273  NH1 ARG d   1      12.138 -16.330 -20.462  0.00  0.00    -0.235 N 
ATOM    274  NH2 ARG d   1      10.875 -18.101 -21.180  0.00  0.00    -0.235 N 
ATOM    275  H   ARG d   1      12.372 -15.641 -19.747  0.00  0.00     0.174 HD
ATOM    276  H   ARG d   1      12.650 -16.344 -21.344  0.00  0.00     0.174 HD
ATOM    277  H   ARG d   1      10.132 -18.782 -21.022  0.00  0.00     0.174 HD
ATOM    278  H   ARG d   1      11.393 -18.106 -22.059  0.00  0.00     0.174 HD
ATOM    279  H   ARG d   1       9.759 -17.898 -18.970  0.00  0.00     0.177 HD
ENDBRANCH 268 271
ENDBRANCH 265 268
ENDBRANCH 262 265
ENDBRANCH 183 262
ENDBRANCH 180 183
ENDBRANCH 177 179
BRANCH 177 280
ATOM    280  CB  ARG d   1      10.666 -11.911 -22.326  0.00  0.00    -0.036 C 
ATOM    281  H   ARG d   1      11.226 -11.491 -23.162  0.00  0.00     0.036 H 
ATOM    282  H   ARG d   1       9.649 -11.525 -22.258  0.00  0.00     0.036 H 
BRANCH 280 283
ATOM    283  CG  ARG d   1      10.578 -13.406 -22.535  0.00  0.00    -0.048 C 
ATOM    284  H   ARG d   1       9.700 -13.773 -22.004  0.00  0.00     0.035 H 
ATOM    285  H   ARG d   1      11.499 -13.857 -22.164  0.00  0.00     0.035 H 
BRANCH 283 286
ATOM    286  CD  ARG d   1      10.431 -13.767 -23.996  0.00  0.00     0.009 C 
ATOM    287  H   ARG d   1      11.251 -13.320 -24.558  0.00  0.00     0.064 H 
ATOM    288  H   ARG d   1       9.475 -13.392 -24.361  0.00  0.00     0.064 H 
BRANCH 286 289
ATOM    289  NE  ARG d   1      10.471 -15.214 -24.164  0.00  0.00    -0.227 N 
ATOM    290  CZ  ARG d   1       9.442 -15.954 -24.553  0.00  0.00     0.665 C 
ATOM    291  NH1 ARG d   1       8.288 -15.384 -24.846  0.00  0.00    -0.235 N 
ATOM    292  NH2 ARG d   1       9.571 -17.266 -24.665  0.00  0.00    -0.235 N 
ATOM    293  H   ARG d   1       8.186 -14.372 -24.773  0.00  0.00     0.174 HD
ATOM    294  H   ARG d   1       7.498 -15.956 -25.145  0.00  0.00     0.174 HD
ATOM    295  H   ARG d   1      10.464 -17.711 -24.452  0.00  0.00     0.174 HD
ATOM    296  H   ARG d   1       8.778 -17.833 -24.965  0.00  0.00     0.174 HD
ATOM    297  H   ARG d   1      11.351 -15.690 -23.969  0.00  0.00     0.177 HD
ENDBRANCH 286 289
ENDBRANCH 283 286
ENDBRANCH 280 283
ENDBRANCH 177 280
ENDBRANCH 174 177
ENDBRANCH 171 173
BRANCH 171 298
ATOM    298  CB  MET d   1       9.726  -7.105 -19.891  0.00  0.00    -0.030 C 
ATOM    299  H   MET d   1       9.517  -7.401 -18.863  0.00  0.00     0.037 H 
ATOM    300  H   MET d   1       8.948  -7.390 -20.599  0.00  0.00     0.037 H 
BRANCH 298 301
ATOM    301  CG  MET d   1       9.824  -5.593 -19.913  0.00  0.00    -0.021 C 
ATOM    302  H   MET d   1      10.048  -5.279 -20.932  0.00  0.00     0.049 H 
ATOM    303  H   MET d   1      10.605  -5.290 -19.215  0.00  0.00     0.049 H 
BRANCH 301 304
ATOM    304  SD  MET d   1       8.282  -4.817 -19.408  0.00  0.00    -0.173 SA
BRANCH 304 305
ATOM    305  CE  MET d   1       8.137  -5.473 -17.749  0.00  0.00    -0.035 C 
ATOM    306  H   MET d   1       8.093  -6.561 -17.793  0.00  0.00     0.041 H 
ATOM    307  H   MET d   1       9.002  -5.166 -17.161  0.00  0.00     0.041 H 
ATOM    308  H   MET d   1       7.228  -5.090 -17.286  0.00  0.00     0.041 H 
ENDBRANCH 304 305
ENDBRANCH 301 304
ENDBRANCH 298 301
ENDBRANCH 171 298
ENDBRANCH 168 171
ENDBRANCH 165 167
BRANCH 165 309
ATOM    309  CB  LEU d   1      12.730  -9.007 -15.981  0.00  0.00    -0.035 C 
ATOM    310  H   LEU d   1      13.666  -9.276 -15.491  0.00  0.00     0.037 H 
ATOM    311  H   LEU d   1      12.129  -9.821 -16.386  0.00  0.00     0.037 H 
BRANCH 309 312
ATOM    312  CG  LEU d   1      11.869  -8.352 -14.901  0.00  0.00    -0.059 C 
ATOM    313  H   LEU d   1      12.483  -7.637 -14.353  0.00  0.00     0.038 H 
BRANCH 312 314
ATOM    314  CD1 LEU d   1      10.721  -7.554 -15.490  0.00  0.00    -0.073 C 
ATOM    315  H   LEU d   1      11.118  -6.767 -16.131  0.00  0.00     0.028 H 
ATOM    316  H   LEU d   1      10.084  -8.216 -16.077  0.00  0.00     0.028 H 
ATOM    317  H   LEU d   1      10.139  -7.108 -14.684  0.00  0.00     0.028 H 
ENDBRANCH 312 314
BRANCH 312 318
ATOM    318  CD2 LEU d   1      11.372  -9.419 -13.947  0.00  0.00    -0.073 C 
ATOM    319  H   LEU d   1      10.778 -10.149 -14.497  0.00  0.00     0.028 H 
ATOM    320  H   LEU d   1      12.224  -9.917 -13.485  0.00  0.00     0.028 H 
ATOM    321  H   LEU d   1      10.757  -8.956 -13.175  0.00  0.00     0.028 H 
ENDBRANCH 312 318
ENDBRANCH 309 312
ENDBRANCH 165 309
ENDBRANCH   1 165
TORSDOF 93
