REMARK  5 active torsions:
REMARK  status: ('A' for Active; 'I' for Inactive)
REMARK    1  A    between atoms: N01_1  and  C02_2 
REMARK    2  A    between atoms: N01_1  and  C08_8 
REMARK    3  A    between atoms: C05_5  and  O19_19 
REMARK    4  A    between atoms: C08_8  and  C09_9 
REMARK    5  A    between atoms: C10_10  and  O20_20 
ROOT
ATOM      1  C09 3TI d   1     -92.119  -8.920 -85.399  0.00  0.00     0.004 A 
ATOM      2  C10 3TI d   1     -92.030  -9.669 -86.590  0.00  0.00     0.074 A 
ATOM      3  C11 3TI d   1     -92.884  -9.413 -87.664  0.00  0.00    -0.050 A 
ATOM      4  C12 3TI d   1     -93.868  -8.393 -87.552  0.00  0.00    -0.070 A 
ATOM      5  C13 3TI d   1     -93.974  -7.618 -86.339  0.00  0.00    -0.025 A 
ATOM      6  C14 3TI d   1     -93.124  -7.870 -85.275  0.00  0.00    -0.015 A 
ATOM      7  C15 3TI d   1     -93.235  -7.097 -84.080  0.00  0.00    -0.072 A 
ATOM      8  C16 3TI d   1     -94.214  -6.071 -83.971  0.00  0.00    -0.082 A 
ATOM      9  C17 3TI d   1     -95.083  -5.823 -85.055  0.00  0.00    -0.082 A 
ATOM     10  C18 3TI d   1     -94.975  -6.571 -86.223  0.00  0.00    -0.072 A 
ATOM     11  H8  3TI d   1     -92.797  -9.989 -88.578  0.00  0.00     0.087 H 
ATOM     12  H9  3TI d   1     -94.540  -8.197 -88.379  0.00  0.00     0.085 H 
ATOM     13  H10 3TI d   1     -92.568  -7.294 -83.249  0.00  0.00     0.084 H 
ATOM     14  H11 3TI d   1     -94.292  -5.484 -83.063  0.00  0.00     0.083 H 
ATOM     15  H12 3TI d   1     -95.837  -5.048 -84.977  0.00  0.00     0.083 H 
ATOM     16  H13 3TI d   1     -95.643  -6.371 -87.053  0.00  0.00     0.084 H 
ENDROOT
BRANCH   1  17
ATOM     17  C08 3TI d   1     -91.151  -9.222 -84.211  0.00  0.00     0.020 C 
ATOM     18  H6  3TI d   1     -90.641  -8.280 -83.960  0.00  0.00     0.071 H 
ATOM     19  H7  3TI d   1     -91.770  -9.541 -83.360  0.00  0.00     0.071 H 
BRANCH  17  20
ATOM     20  N01 3TI d   1     -90.119 -10.235 -84.397  0.00  0.00    -0.386 N 
ATOM     21  H1  3TI d   1     -90.092 -10.759 -85.283  0.00  0.00     0.160 HD
BRANCH  20  22
ATOM     22  C02 3TI d   1     -89.121 -10.534 -83.371  0.00  0.00     0.028 A 
ATOM     23  C03 3TI d   1     -88.636 -11.845 -83.218  0.00  0.00    -0.055 A 
ATOM     24  C04 3TI d   1     -87.673 -12.139 -82.223  0.00  0.00    -0.049 A 
ATOM     25  H2  3TI d   1     -89.001 -12.634 -83.865  0.00  0.00     0.087 H 
ATOM     26  C05 3TI d   1     -87.199 -11.140 -81.400  0.00  0.00     0.065 A 
ATOM     27  H3  3TI d   1     -87.307 -13.153 -82.108  0.00  0.00     0.087 H 
ATOM     28  C06 3TI d   1     -87.685  -9.834 -81.547  0.00  0.00    -0.049 A 
ATOM     29  C07 3TI d   1     -88.655  -9.536 -82.544  0.00  0.00    -0.055 A 
ATOM     30  H4  3TI d   1     -87.320  -9.047 -80.898  0.00  0.00     0.087 H 
ATOM     31  H5  3TI d   1     -89.027  -8.524 -82.653  0.00  0.00     0.087 H 
BRANCH  26  32
ATOM     32  O19 3TI d   1     -86.269 -11.433 -80.437  0.00  0.00    -0.361 OA
ATOM     33  H14 3TI d   1     -85.486 -10.917 -80.587  0.00  0.00     0.217 HD
ENDBRANCH  26  32
ENDBRANCH  20  22
ENDBRANCH  17  20
ENDBRANCH   1  17
BRANCH   2  34
ATOM     34  O20 3TI d   1     -91.075 -10.661 -86.705  0.00  0.00    -0.360 OA
ATOM     35  H15 3TI d   1     -90.576 -10.714 -85.898  0.00  0.00     0.217 HD
ENDBRANCH   2  34
TORSDOF 5
