REMARK  3 active torsions:
REMARK  status: ('A' for Active; 'I' for Inactive)
REMARK       I    between atoms: C12_19  and  N3_9 
REMARK    1  A    between atoms: N3_9  and  C15_22 
REMARK    2  A    between atoms: C11_18  and  C12_19 
REMARK    3  A    between atoms: C16_23  and  C14_21 
ROOT
ATOM      1  C1  0TP d   1     109.146  63.650   5.262  0.00  0.00     0.034 C 
ATOM      2  O1  0TP d   1     109.494  62.928   4.098  0.00  0.00    -0.388 OA
ATOM      3  C2  0TP d   1     112.843  64.517   9.116  0.00  0.00    -0.070 A 
ATOM      4  C3  0TP d   1     110.921  62.990   3.767  0.00  0.00     0.034 C 
ATOM      5  C4  0TP d   1     111.650  62.234   4.863  0.00  0.00     0.015 C 
ATOM      6  N4  0TP d   1     111.311  62.943   6.093  0.00  0.00    -0.377 N 
ATOM      7  C5  0TP d   1     113.458  64.057   6.297  0.00  0.00    -0.057 A 
ATOM      8  C6  0TP d   1     109.848  63.003   6.418  0.00  0.00     0.015 C 
ATOM      9  C16 0TP d   1     114.059  65.051   8.490  0.00  0.00    -0.019 A 
ATOM     10  C17 0TP d   1     111.927  63.768   8.339  0.00  0.00    -0.057 A 
ATOM     11  C18 0TP d   1     112.225  63.544   6.909  0.00  0.00     0.030 A 
ATOM     12  C19 0TP d   1     114.370  64.802   7.070  0.00  0.00    -0.070 A 
ATOM     13  H   0TP d   1     108.067  63.634   5.413  0.00  0.00     0.076 H 
ATOM     14  H   0TP d   1     109.447  64.694   5.168  0.00  0.00     0.076 H 
ATOM     15  H   0TP d   1     112.647  64.696  10.173  0.00  0.00     0.085 H 
ATOM     16  H   0TP d   1     111.264  64.023   3.710  0.00  0.00     0.076 H 
ATOM     17  H   0TP d   1     111.115  62.546   2.791  0.00  0.00     0.076 H 
ATOM     18  H   0TP d   1     112.726  62.209   4.692  0.00  0.00     0.067 H 
ATOM     19  H   0TP d   1     111.350  61.187   4.902  0.00  0.00     0.067 H 
ATOM     20  H   0TP d   1     113.667  63.861   5.245  0.00  0.00     0.086 H 
ATOM     21  H   0TP d   1     109.457  61.999   6.584  0.00  0.00     0.067 H 
ATOM     22  H   0TP d   1     109.687  63.580   7.329  0.00  0.00     0.067 H 
ATOM     23  H   0TP d   1     111.019  63.364   8.787  0.00  0.00     0.086 H 
ATOM     24  H   0TP d   1     115.288  65.187   6.627  0.00  0.00     0.085 H 
ENDROOT
BRANCH   9  25
ATOM     25  C14 0TP d   1     114.951  65.951   9.276  0.00  0.00     0.017 A 
ATOM     26  S1  0TP d   1     114.626  66.519  10.828  0.00  0.00    -0.088 SA
ATOM     27  C9  0TP d   1     115.943  67.313  10.988  0.00  0.00     0.036 A 
ATOM     28  C8  0TP d   1     116.690  67.159   9.779  0.00  0.00     0.029 A 
ATOM     29  C11 0TP d   1     116.402  68.080  12.122  0.00  0.00     0.067 A 
ATOM     30  C7  0TP d   1     116.199  66.417   8.799  0.00  0.00    -0.051 A 
ATOM     31  C10 0TP d   1     117.990  67.897   9.826  0.00  0.00     0.132 A 
ATOM     32  H   0TP d   1     116.658  66.210   7.832  0.00  0.00     0.087 H 
ATOM     33  N1  0TP d   1     118.438  68.631  10.907  0.00  0.00    -0.242 NA
ATOM     34  N2  0TP d   1     118.800  67.906   8.746  0.00  0.00    -0.383 N 
ATOM     35  C13 0TP d   1     117.697  68.743  12.045  0.00  0.00     0.021 A 
ATOM     36  H   0TP d   1     118.070  69.323  12.889  0.00  0.00     0.116 H 
ATOM     37  H   0TP d   1     118.525  67.410   7.898  0.00  0.00     0.157 HD
ATOM     38  H   0TP d   1     119.687  68.409   8.778  0.00  0.00     0.157 HD
BRANCH  29  39
ATOM     39  C12 0TP d   1     115.596  68.197  13.334  0.00  0.00     0.254 C 
ATOM     40  O2  0TP d   1     114.532  67.648  13.501  0.00  0.00    -0.268 OA
ATOM     41  N3  0TP d   1     116.109  68.982  14.293  0.00  0.00    -0.361 N 
ATOM     42  H   0TP d   1     117.099  69.228  14.289  0.00  0.00     0.162 HD
BRANCH  41  43
ATOM     43  C15 0TP d   1     115.222  69.478  15.345  0.00  0.00    -0.018 C 
ATOM     44  H   0TP d   1     114.426  70.073  14.897  0.00  0.00     0.056 H 
ATOM     45  H   0TP d   1     114.788  68.634  15.881  0.00  0.00     0.056 H 
ATOM     46  H   0TP d   1     115.793  70.096  16.038  0.00  0.00     0.056 H 
ENDBRANCH  41  43
ENDBRANCH  29  39
ENDBRANCH   9  25
TORSDOF 3
