REMARK  10 active torsions:
REMARK  status: ('A' for Active; 'I' for Inactive)
REMARK    1  A    between atoms: C1_1  and  C3_9 
REMARK    2  A    between atoms: C1_1  and  C4_12 
REMARK    3  A    between atoms: N4_13  and  C1_1 
REMARK    4  A    between atoms: C1_1  and  C6_15 
REMARK    5  A    between atoms: C10_19  and  N2_6 
REMARK    6  A    between atoms: S2_8  and  N4_13 
REMARK    7  A    between atoms: C18_27  and  S2_8 
REMARK       I    between atoms: C12_21  and  N3_10 
REMARK    8  A    between atoms: N3_10  and  C15_24 
REMARK    9  A    between atoms: C11_20  and  C12_21 
REMARK   10  A    between atoms: C16_25  and  C14_23 
ROOT
ATOM      1  C2  6TP d   1     112.033  64.819   8.282  0.00  0.00    -0.070 A 
ATOM      2  C5  6TP d   1     112.934  64.441   5.532  0.00  0.00    -0.059 A 
ATOM      3  C16 6TP d   1     113.365  65.307   7.833  0.00  0.00    -0.019 A 
ATOM      4  C17 6TP d   1     111.163  64.149   7.369  0.00  0.00    -0.059 A 
ATOM      5  C18 6TP d   1     111.676  64.000   6.046  0.00  0.00     0.079 A 
ATOM      6  C19 6TP d   1     113.785  65.101   6.444  0.00  0.00    -0.070 A 
ATOM      7  H   6TP d   1     111.719  64.974   9.314  0.00  0.00     0.084 H 
ATOM      8  H   6TP d   1     113.221  64.277   4.493  0.00  0.00     0.085 H 
ATOM      9  H   6TP d   1     110.180  63.779   7.661  0.00  0.00     0.085 H 
ATOM     10  H   6TP d   1     114.760  65.460   6.114  0.00  0.00     0.084 H 
ENDROOT
BRANCH   3  11
ATOM     11  C14 6TP d   1     114.327  66.017   8.784  0.00  0.00     0.017 A 
ATOM     12  S1  6TP d   1     113.958  66.505  10.376  0.00  0.00    -0.088 SA
ATOM     13  C9  6TP d   1     115.397  67.103  10.794  0.00  0.00     0.036 A 
ATOM     14  C8  6TP d   1     116.175  66.920   9.635  0.00  0.00     0.029 A 
ATOM     15  C11 6TP d   1     115.779  67.651  12.010  0.00  0.00     0.067 A 
ATOM     16  C7  6TP d   1     115.668  66.317   8.455  0.00  0.00    -0.051 A 
ATOM     17  C10 6TP d   1     117.531  67.432   9.873  0.00  0.00     0.132 A 
ATOM     18  H   6TP d   1     116.190  66.129   7.516  0.00  0.00     0.087 H 
ATOM     19  N1  6TP d   1     117.958  67.985  11.067  0.00  0.00    -0.242 NA
ATOM     20  C13 6TP d   1     117.125  68.107  12.132  0.00  0.00     0.021 A 
ATOM     21  H   6TP d   1     117.479  68.546  13.065  0.00  0.00     0.116 H 
BRANCH  17  22
ATOM     22  N2  6TP d   1     118.406  67.421   8.820  0.00  0.00    -0.383 N 
ATOM     23  H   6TP d   1     118.107  67.066   7.912  0.00  0.00     0.157 HD
ATOM     24  H   6TP d   1     119.357  67.768   8.944  0.00  0.00     0.157 HD
ENDBRANCH  17  22
BRANCH  15  25
ATOM     25  C12 6TP d   1     114.876  67.733  13.187  0.00  0.00     0.254 C 
ATOM     26  O2  6TP d   1     113.855  67.092  13.352  0.00  0.00    -0.268 OA
ATOM     27  N3  6TP d   1     115.266  68.583  14.129  0.00  0.00    -0.361 N 
ATOM     28  H   6TP d   1     116.134  69.112  14.043  0.00  0.00     0.162 HD
BRANCH  27  29
ATOM     29  C15 6TP d   1     114.414  68.725  15.273  0.00  0.00    -0.018 C 
ATOM     30  H   6TP d   1     113.432  69.073  14.952  0.00  0.00     0.056 H 
ATOM     31  H   6TP d   1     114.314  67.761  15.772  0.00  0.00     0.056 H 
ATOM     32  H   6TP d   1     114.850  69.448  15.962  0.00  0.00     0.056 H 
ENDBRANCH  27  29
ENDBRANCH  15  25
ENDBRANCH   3  11
BRANCH   5  33
ATOM     33  S2  6TP d   1     110.749  63.173   4.888  0.00  0.00     0.259 S 
ATOM     34  O1  6TP d   1     109.444  62.893   5.370  0.00  0.00    -0.201 OA
ATOM     35  O3  6TP d   1     110.791  63.939   3.703  0.00  0.00    -0.201 OA
BRANCH  33  36
ATOM     36  N4  6TP d   1     111.576  61.635   4.680  0.00  0.00    -0.307 N 
ATOM     37  H   6TP d   1     112.093  61.522   3.808  0.00  0.00     0.173 HD
BRANCH  36  38
ATOM     38  C1  6TP d   1     111.619  60.458   5.630  0.00  0.00     0.029 C 
BRANCH  38  39
ATOM     39  C3  6TP d   1     111.430  59.075   4.982  0.00  0.00    -0.053 C 
ATOM     40  H   6TP d   1     111.610  58.299   5.726  0.00  0.00     0.030 H 
ATOM     41  H   6TP d   1     110.411  58.989   4.604  0.00  0.00     0.030 H 
ATOM     42  H   6TP d   1     112.135  58.961   4.159  0.00  0.00     0.030 H 
ENDBRANCH  38  39
BRANCH  38  43
ATOM     43  C4  6TP d   1     110.612  60.521   6.744  0.00  0.00    -0.053 C 
ATOM     44  H   6TP d   1     109.609  60.407   6.332  0.00  0.00     0.030 H 
ATOM     45  H   6TP d   1     110.808  59.718   7.455  0.00  0.00     0.030 H 
ATOM     46  H   6TP d   1     110.692  61.483   7.250  0.00  0.00     0.030 H 
ENDBRANCH  38  43
BRANCH  38  47
ATOM     47  C6  6TP d   1     112.979  60.445   6.249  0.00  0.00    -0.053 C 
ATOM     48  H   6TP d   1     113.030  59.651   6.995  0.00  0.00     0.030 H 
ATOM     49  H   6TP d   1     113.727  60.268   5.476  0.00  0.00     0.030 H 
ATOM     50  H   6TP d   1     113.169  61.406   6.726  0.00  0.00     0.030 H 
ENDBRANCH  38  47
ENDBRANCH  36  38
ENDBRANCH  33  36
ENDBRANCH   5  33
TORSDOF 10
