REMARK WARNING: 32 MAX_TORS EXCEEDED!!!
REMARK  39 active torsions:
REMARK  status: ('A' for Active; 'I' for Inactive)
REMARK    1  A    between atoms: N_1  and  CA_2 
REMARK    2  A    between atoms: CA_2  and  C_3 
REMARK    3  A    between atoms: CA_2  and  CB_5 
REMARK       I    between atoms: C_3  and  N_7 
REMARK    4  A    between atoms: CB_5  and  OG_6 
REMARK    5  A    between atoms: CA_8  and  C_9 
REMARK       I    between atoms: C_9  and  N_14 
REMARK    6  A    between atoms: N_14  and  CA_15 
REMARK    7  A    between atoms: CA_15  and  C_16 
REMARK    8  A    between atoms: CA_15  and  CB_18 
REMARK       I    between atoms: C_16  and  N_22 
REMARK    9  A    between atoms: CB_18  and  CG_19 
REMARK   10  A    between atoms: CG_19  and  CD1_20 
REMARK   11  A    between atoms: CG_19  and  CD2_21 
REMARK   12  A    between atoms: N_22  and  CA_23 
REMARK   13  A    between atoms: CA_23  and  C_24 
REMARK   14  A    between atoms: CA_23  and  CB_26 
REMARK       I    between atoms: C_24  and  N_30 
REMARK   15  A    between atoms: CB_26  and  CG_27 
REMARK   16  A    between atoms: N_30  and  CA_31 
REMARK   17  A    between atoms: CA_31  and  C_32 
REMARK   18  A    between atoms: CA_31  and  CB_34 
REMARK       I    between atoms: C_32  and  N_36 
REMARK   19  A    between atoms: CB_34  and  OG_35 
REMARK   20  A    between atoms: N_36  and  CA_37 
REMARK   21  A    between atoms: CA_37  and  C_38 
REMARK   22  A    between atoms: CA_37  and  CB_40 
REMARK       I    between atoms: C_38  and  N_44 
REMARK   23  A    between atoms: CB_40  and  CG_41 
REMARK   24  A    between atoms: CG_41  and  CD1_42 
REMARK   25  A    between atoms: CG_41  and  CD2_43 
REMARK   26  A    between atoms: N_44  and  CA_45 
REMARK   27  A    between atoms: CA_45  and  C_46 
REMARK   28  A    between atoms: CA_45  and  CB_48 
REMARK       I    between atoms: C_46  and  N_58 
REMARK   29  A    between atoms: CB_48  and  CG_49 
REMARK   30  A    between atoms: N_58  and  CA_59 
REMARK   31  A    between atoms: CA_59  and  C_60 
REMARK   32  A    between atoms: CA_59  and  CB_62 
REMARK       I    between atoms: C_60  and  N_72 
REMARK   33  A    between atoms: CB_62  and  CG_63 
REMARK   34  A    between atoms: N_72  and  CA_73 
REMARK   35  A    between atoms: CA_73  and  C_74 
REMARK   36  A    between atoms: CA_73  and  CB_76 
REMARK   37  A    between atoms: CB_76  and  CG1_77 
REMARK   38  A    between atoms: CB_76  and  CG2_78 
REMARK   39  A    between atoms: CG1_77  and  CD1_79 
ROOT
ATOM      1  CA  LEU d   1     -22.874 -17.252  24.684  0.00  0.00     0.089 C 
ATOM      2  H   LEU d   1     -23.520 -17.321  25.559  0.00  0.00     0.087 H 
ENDROOT
BRANCH   1   3
ATOM      3  N   LEU d   1     -21.580 -16.764  25.139  0.00  0.00    -0.346 N 
ATOM      4  C   SER d   1     -21.333 -16.614  26.434  0.00  0.00     0.243 C 
ATOM      5  O   SER d   1     -22.149 -16.910  27.303  0.00  0.00    -0.271 OA
ATOM      6  H   LEU d   1     -20.857 -16.535  24.456  0.00  0.00     0.163 HD
BRANCH   4   7
ATOM      7  CA  SER d   1     -19.977 -16.043  26.813  0.00  0.00     0.109 C 
ATOM      8  H   SER d   1     -19.599 -15.400  26.018  0.00  0.00     0.090 H 
BRANCH   7   9
ATOM      9  N   SER d   1     -20.142 -15.272  28.035  0.00  0.00    -0.344 N 
ATOM     10  C   ASP d   1     -20.493 -13.993  27.998  0.00  0.00     0.241 C 
ATOM     11  O   ASP d   1     -20.562 -13.351  26.949  0.00  0.00    -0.271 OA
ATOM     12  H   SER d   1     -19.985 -15.723  28.937  0.00  0.00     0.163 HD
BRANCH  10  13
ATOM     13  CA  ASP d   1     -20.799 -13.336  29.337  0.00  0.00     0.098 C 
ATOM     14  H   ASP d   1     -20.429 -13.967  30.145  0.00  0.00     0.088 H 
BRANCH  13  15
ATOM     15  N   ASP d   1     -20.129 -12.045  29.424  0.00  0.00    -0.346 N 
ATOM     16  C   LEU d   1     -18.808 -11.955  29.541  0.00  0.00     0.241 C 
ATOM     17  O   LEU d   1     -18.078 -12.936  29.682  0.00  0.00    -0.271 OA
ATOM     18  H   ASP d   1     -20.686 -11.191  29.395  0.00  0.00     0.163 HD
BRANCH  16  19
ATOM     19  CA  LEU d   1     -18.223 -10.549  29.491  0.00  0.00     0.089 C 
ATOM     20  H   LEU d   1     -19.030  -9.844  29.690  0.00  0.00     0.087 H 
BRANCH  19  21
ATOM     21  N   LEU d   1     -17.203 -10.345  30.512  0.00  0.00    -0.346 N 
ATOM     22  C   PRO d   1     -17.343  -9.446  31.481  0.00  0.00     0.241 C 
ATOM     23  O   PRO d   1     -18.376  -8.804  31.664  0.00  0.00    -0.271 OA
ATOM     24  H   LEU d   1     -16.355 -10.910  30.482  0.00  0.00     0.163 HD
BRANCH  22  25
ATOM     25  CA  PRO d   1     -16.138  -9.247  32.398  0.00  0.00     0.091 C 
ATOM     26  N   PRO d   1     -16.190  -7.990  33.153  0.00  0.00    -0.337 N 
ATOM     27  C   SER d   1     -16.060  -6.791  32.567  0.00  0.00     0.253 C 
ATOM     28  CD  PRO d   1     -16.424  -8.220  34.589  0.00  0.00    -0.001 C 
ATOM     29  O   SER d   1     -15.986  -6.653  31.347  0.00  0.00    -0.271 OA
ATOM     30  CG  PRO d   1     -16.812  -9.674  34.645  0.00  0.00    -0.048 C 
ATOM     31  H   PRO d   1     -17.191  -7.564  35.001  0.00  0.00     0.064 H 
ATOM     32  H   PRO d   1     -15.550  -7.994  35.199  0.00  0.00     0.064 H 
ATOM     33  CB  PRO d   1     -16.121 -10.314  33.497  0.00  0.00    -0.036 C 
ATOM     34  H   PRO d   1     -16.519 -10.129  35.591  0.00  0.00     0.035 H 
ATOM     35  H   PRO d   1     -17.893  -9.802  34.582  0.00  0.00     0.035 H 
ATOM     36  H   PRO d   1     -15.107 -10.624  33.751  0.00  0.00     0.036 H 
ATOM     37  H   PRO d   1     -16.615 -11.233  33.183  0.00  0.00     0.036 H 
ATOM     38  H   PRO d   1     -15.277  -9.279  31.730  0.00  0.00     0.087 H 
BRANCH  27  39
ATOM     39  CA  SER d   1     -16.005  -5.573  33.486  0.00  0.00     0.196 C 
ATOM     40  H   SER d   1     -15.929  -5.919  34.517  0.00  0.00     0.102 H 
BRANCH  39  41
ATOM     41  N   SER d   1     -14.836  -4.761  33.174  0.00  0.00    -0.064 N 
ATOM     42  H   SER d   1     -13.994  -5.328  33.270  0.00  0.00     0.275 HD
ATOM     43  H   SER d   1     -14.908  -4.417  32.216  0.00  0.00     0.275 HD
ATOM     44  H   SER d   1     -14.791  -3.971  33.818  0.00  0.00     0.275 HD
ENDBRANCH  39  41
BRANCH  39  45
ATOM     45  CB  SER d   1     -17.280  -4.739  33.347  0.00  0.00     0.051 C 
ATOM     46  H   SER d   1     -17.496  -4.606  32.287  0.00  0.00     0.077 H 
ATOM     47  H   SER d   1     -17.124  -3.779  33.840  0.00  0.00     0.077 H 
BRANCH  45  48
ATOM     48  OG  SER d   1     -18.383  -5.387  33.956  0.00  0.00    -0.398 OA
ATOM     49  H   SER d   1     -18.525  -6.238  33.535  0.00  0.00     0.209 HD
ENDBRANCH  45  48
ENDBRANCH  39  45
ENDBRANCH  27  39
ENDBRANCH  22  25
ENDBRANCH  19  21
BRANCH  19  50
ATOM     50  CB  LEU d   1     -17.631 -10.289  28.103  0.00  0.00    -0.035 C 
ATOM     51  H   LEU d   1     -16.771 -10.954  28.025  0.00  0.00     0.037 H 
ATOM     52  H   LEU d   1     -17.451  -9.215  28.061  0.00  0.00     0.037 H 
BRANCH  50  53
ATOM     53  CG  LEU d   1     -18.500 -10.603  26.883  0.00  0.00    -0.059 C 
ATOM     54  H   LEU d   1     -18.819 -11.643  26.947  0.00  0.00     0.038 H 
BRANCH  53  55
ATOM     55  CD1 LEU d   1     -19.747  -9.732  26.866  0.00  0.00    -0.073 C 
ATOM     56  H   LEU d   1     -20.330  -9.916  27.769  0.00  0.00     0.028 H 
ATOM     57  H   LEU d   1     -19.455  -8.682  26.828  0.00  0.00     0.028 H 
ATOM     58  H   LEU d   1     -20.347  -9.975  25.989  0.00  0.00     0.028 H 
ENDBRANCH  53  55
BRANCH  53  59
ATOM     59  CD2 LEU d   1     -17.699 -10.419  25.605  0.00  0.00    -0.073 C 
ATOM     60  H   LEU d   1     -17.352  -9.388  25.540  0.00  0.00     0.028 H 
ATOM     61  H   LEU d   1     -16.841 -11.092  25.615  0.00  0.00     0.028 H 
ATOM     62  H   LEU d   1     -18.331 -10.646  24.746  0.00  0.00     0.028 H 
ENDBRANCH  53  59
ENDBRANCH  50  53
ENDBRANCH  19  50
ENDBRANCH  16  19
ENDBRANCH  13  15
BRANCH  13  63
ATOM     63  CB  ASP d   1     -22.315 -13.175  29.495  0.00  0.00     0.043 C 
ATOM     64  H   ASP d   1     -22.773 -14.151  29.335  0.00  0.00     0.052 H 
ATOM     65  H   ASP d   1     -22.649 -12.429  28.774  0.00  0.00     0.052 H 
BRANCH  63  66
ATOM     66  CG  ASP d   1     -22.713 -12.695  30.879  0.00  0.00     0.175 C 
ATOM     67  OD1 ASP d   1     -22.505 -13.450  31.852  0.00  0.00    -0.648 OA
ATOM     68  OD2 ASP d   1     -23.249 -11.573  30.991  0.00  0.00    -0.648 OA
ENDBRANCH  63  66
ENDBRANCH  13  63
ENDBRANCH  10  13
ENDBRANCH   7   9
BRANCH   7  69
ATOM     69  CB  SER d   1     -18.964 -17.171  27.013  0.00  0.00     0.044 C 
ATOM     70  H   SER d   1     -18.858 -17.715  26.075  0.00  0.00     0.077 H 
ATOM     71  H   SER d   1     -19.323 -17.825  27.808  0.00  0.00     0.077 H 
BRANCH  69  72
ATOM     72  OG  SER d   1     -17.697 -16.659  27.385  0.00  0.00    -0.398 OA
ATOM     73  H   SER d   1     -17.374 -16.075  26.695  0.00  0.00     0.209 HD
ENDBRANCH  69  72
ENDBRANCH   7  69
ENDBRANCH   4   7
ENDBRANCH   1   3
BRANCH   1  74
ATOM     74  C   LEU d   1     -22.785 -18.652  24.088  0.00  0.00     0.241 C 
ATOM     75  O   LEU d   1     -22.950 -19.648  24.793  0.00  0.00    -0.271 OA
ATOM     76  N   TRP d   1     -22.515 -18.725  22.790  0.00  0.00    -0.346 N 
ATOM     77  H   TRP d   1     -22.325 -17.867  22.271  0.00  0.00     0.163 HD
BRANCH  76  78
ATOM     78  CA  TRP d   1     -22.484 -20.003  22.089  0.00  0.00     0.093 C 
ATOM     79  H   TRP d   1     -23.421 -20.519  22.300  0.00  0.00     0.088 H 
BRANCH  78  80
ATOM     80  C   TRP d   1     -21.368 -20.915  22.595  0.00  0.00     0.241 C 
ATOM     81  O   TRP d   1     -20.196 -20.540  22.607  0.00  0.00    -0.271 OA
ATOM     82  N   TRP d   1     -21.752 -22.115  23.020  0.00  0.00    -0.346 N 
ATOM     83  H   TRP d   1     -22.735 -22.374  22.941  0.00  0.00     0.163 HD
BRANCH  82  84
ATOM     84  CA  TRP d   1     -20.815 -23.075  23.595  0.00  0.00     0.093 C 
ATOM     85  H   TRP d   1     -20.285 -22.542  24.384  0.00  0.00     0.088 H 
BRANCH  84  86
ATOM     86  C   TRP d   1     -19.783 -23.578  22.592  0.00  0.00     0.241 C 
ATOM     87  O   TRP d   1     -19.924 -23.389  21.384  0.00  0.00    -0.271 OA
ATOM     88  N   ILE d   1     -18.749 -24.231  23.111  0.00  0.00    -0.344 N 
ATOM     89  H   ILE d   1     -18.641 -24.260  24.125  0.00  0.00     0.163 HD
BRANCH  88  90
ATOM     90  CA  ILE d   1     -17.766 -24.906  22.278  0.00  0.00     0.099 C 
ATOM     91  H   ILE d   1     -17.369 -24.174  21.574  0.00  0.00     0.090 H 
BRANCH  90  92
ATOM     92  C   ILE d   1     -18.427 -26.058  21.527  0.00  0.00     0.197 C 
ATOM     93  O   ILE d   1     -18.074 -26.350  20.384  0.00  0.00    -0.646 OA
ATOM     94  OXT ILE d   1     -19.326 -26.718  22.049  0.00  0.00    -0.646 OA
ENDBRANCH  90  92
BRANCH  90  95
ATOM     95  CB  ILE d   1     -16.600 -25.462  23.121  0.00  0.00    -0.029 C 
ATOM     96  H   ILE d   1     -17.016 -26.078  23.918  0.00  0.00     0.043 H 
BRANCH  95  97
ATOM     97  CG1 ILE d   1     -15.805 -24.321  23.756  0.00  0.00    -0.063 C 
ATOM     98  H   ILE d   1     -15.036 -24.770  24.384  0.00  0.00     0.033 H 
ATOM     99  H   ILE d   1     -16.511 -23.698  24.305  0.00  0.00     0.033 H 
BRANCH  97 100
ATOM    100  CD1 ILE d   1     -15.105 -23.431  22.749  0.00  0.00    -0.076 C 
ATOM    101  H   ILE d   1     -14.406 -24.027  22.163  0.00  0.00     0.027 H 
ATOM    102  H   ILE d   1     -15.845 -22.982  22.087  0.00  0.00     0.027 H 
ATOM    103  H   ILE d   1     -14.562 -22.646  23.275  0.00  0.00     0.027 H 
ENDBRANCH  97 100
ENDBRANCH  95  97
BRANCH  95 104
ATOM    104  CG2 ILE d   1     -15.690 -26.328  22.264  0.00  0.00    -0.070 C 
ATOM    105  H   ILE d   1     -16.262 -27.161  21.856  0.00  0.00     0.028 H 
ATOM    106  H   ILE d   1     -15.284 -25.730  21.448  0.00  0.00     0.028 H 
ATOM    107  H   ILE d   1     -14.873 -26.711  22.876  0.00  0.00     0.028 H 
ENDBRANCH  95 104
ENDBRANCH  90  95
ENDBRANCH  88  90
ENDBRANCH  84  86
BRANCH  84 108
ATOM    108  CB  TRP d   1     -21.567 -24.279  24.165  0.00  0.00    -0.012 C 
ATOM    109  H   TRP d   1     -20.816 -24.967  24.553  0.00  0.00     0.044 H 
ATOM    110  H   TRP d   1     -22.180 -24.680  23.358  0.00  0.00     0.044 H 
BRANCH 108 111
ATOM    111  CG  TRP d   1     -22.491 -23.961  25.297  0.00  0.00    -0.028 A 
ATOM    112  CD1 TRP d   1     -22.142 -23.553  26.550  0.00  0.00    -0.015 A 
ATOM    113  NE1 TRP d   1     -23.267 -23.375  27.319  0.00  0.00    -0.365 N 
ATOM    114  H   TRP d   1     -21.120 -23.392  26.892  0.00  0.00     0.112 H 
ATOM    115  CE2 TRP d   1     -24.370 -23.677  26.569  0.00  0.00     0.042 A 
ATOM    116  H   TRP d   1     -23.278 -23.067  28.291  0.00  0.00     0.165 HD
ATOM    117  CD2 TRP d   1     -23.922 -24.055  25.288  0.00  0.00    -0.002 A 
ATOM    118  CZ2 TRP d   1     -25.722 -23.651  26.906  0.00  0.00    -0.056 A 
ATOM    119  CE3 TRP d   1     -24.864 -24.419  24.321  0.00  0.00    -0.070 A 
ATOM    120  CZ3 TRP d   1     -26.205 -24.391  24.660  0.00  0.00    -0.082 A 
ATOM    121  H   TRP d   1     -24.549 -24.718  23.322  0.00  0.00     0.084 H 
ATOM    122  CH2 TRP d   1     -26.621 -24.009  25.941  0.00  0.00    -0.081 A 
ATOM    123  H   TRP d   1     -26.951 -24.671  23.916  0.00  0.00     0.083 H 
ATOM    124  H   TRP d   1     -27.686 -23.997  26.174  0.00  0.00     0.083 H 
ATOM    125  H   TRP d   1     -26.050 -23.356  27.903  0.00  0.00     0.086 H 
ENDBRANCH 108 111
ENDBRANCH  84 108
ENDBRANCH  82  84
ENDBRANCH  78  80
BRANCH  78 126
ATOM    126  CB  TRP d   1     -22.383 -19.777  20.580  0.00  0.00    -0.012 C 
ATOM    127  H   TRP d   1     -22.448 -20.746  20.085  0.00  0.00     0.044 H 
ATOM    128  H   TRP d   1     -21.438 -19.276  20.373  0.00  0.00     0.044 H 
BRANCH 126 129
ATOM    129  CG  TRP d   1     -23.493 -18.914  20.068  0.00  0.00    -0.028 A 
ATOM    130  CD1 TRP d   1     -24.707 -19.330  19.601  0.00  0.00    -0.015 A 
ATOM    131  NE1 TRP d   1     -25.470 -18.248  19.232  0.00  0.00    -0.365 N 
ATOM    132  H   TRP d   1     -25.025 -20.370  19.531  0.00  0.00     0.112 H 
ATOM    133  CE2 TRP d   1     -24.753 -17.100  19.463  0.00  0.00     0.042 A 
ATOM    134  H   TRP d   1     -26.415 -18.291  18.849  0.00  0.00     0.165 HD
ATOM    135  CD2 TRP d   1     -23.505 -17.484  19.994  0.00  0.00    -0.002 A 
ATOM    136  CZ2 TRP d   1     -25.102 -15.770  19.253  0.00  0.00    -0.056 A 
ATOM    137  CE3 TRP d   1     -22.579 -16.486  20.321  0.00  0.00    -0.070 A 
ATOM    138  CZ3 TRP d   1     -22.925 -15.164  20.109  0.00  0.00    -0.082 A 
ATOM    139  H   TRP d   1     -21.605 -16.746  20.735  0.00  0.00     0.084 H 
ATOM    140  CH2 TRP d   1     -24.175 -14.818  19.581  0.00  0.00    -0.081 A 
ATOM    141  H   TRP d   1     -22.212 -14.377  20.357  0.00  0.00     0.083 H 
ATOM    142  H   TRP d   1     -24.415 -13.766  19.428  0.00  0.00     0.083 H 
ATOM    143  H   TRP d   1     -26.075 -15.497  18.844  0.00  0.00     0.086 H 
ENDBRANCH 126 129
ENDBRANCH  78 126
ENDBRANCH  76  78
ENDBRANCH   1  74
BRANCH   1 144
ATOM    144  CB  LEU d   1     -23.502 -16.271  23.691  0.00  0.00    -0.035 C 
ATOM    145  H   LEU d   1     -24.336 -16.790  23.218  0.00  0.00     0.037 H 
ATOM    146  H   LEU d   1     -22.710 -15.961  23.009  0.00  0.00     0.037 H 
BRANCH 144 147
ATOM    147  CG  LEU d   1     -24.070 -14.998  24.320  0.00  0.00    -0.059 C 
ATOM    148  H   LEU d   1     -23.260 -14.474  24.828  0.00  0.00     0.038 H 
BRANCH 147 149
ATOM    149  CD1 LEU d   1     -24.630 -14.068  23.257  0.00  0.00    -0.073 C 
ATOM    150  H   LEU d   1     -23.836 -13.791  22.563  0.00  0.00     0.028 H 
ATOM    151  H   LEU d   1     -25.427 -14.576  22.715  0.00  0.00     0.028 H 
ATOM    152  H   LEU d   1     -25.027 -13.171  23.733  0.00  0.00     0.028 H 
ENDBRANCH 147 149
BRANCH 147 153
ATOM    153  CD2 LEU d   1     -25.139 -15.352  25.342  0.00  0.00    -0.073 C 
ATOM    154  H   LEU d   1     -25.944 -15.898  24.850  0.00  0.00     0.028 H 
ATOM    155  H   LEU d   1     -24.701 -15.973  26.123  0.00  0.00     0.028 H 
ATOM    156  H   LEU d   1     -25.536 -14.437  25.783  0.00  0.00     0.028 H 
ENDBRANCH 147 153
ENDBRANCH 144 147
ENDBRANCH   1 144
TORSDOF 39
