REMARK  18 active torsions:
REMARK  status: ('A' for Active; 'I' for Inactive)
REMARK    1  A    between atoms: C1_1  and  P1_2 
REMARK    2  A    between atoms: C1_1  and  C2_3 
REMARK    3  A    between atoms: P1_2  and  O2_4 
REMARK    4  A    between atoms: C2_3  and  C3_5 
REMARK    5  A    between atoms: O2_4  and  CM_12 
REMARK    6  A    between atoms: C3_5  and  C4_6 
REMARK    7  A    between atoms: C4_6  and  C5_7 
REMARK    8  A    between atoms: C5_7  and  C6_8 
REMARK    9  A    between atoms: C7_9  and  C8_10 
REMARK   10  A    between atoms: C8_10  and  C9_11 
REMARK   11  A    between atoms: C10_13  and  C11_14 
REMARK   12  A    between atoms: C11_14  and  C12_15 
REMARK   13  A    between atoms: C12_15  and  C13_16 
REMARK   14  A    between atoms: C13_16  and  C14_17 
REMARK   15  A    between atoms: C14_17  and  C15_18 
REMARK   16  A    between atoms: C15_18  and  C16_19 
REMARK   17  A    between atoms: C16_19  and  C17_20 
REMARK   18  A    between atoms: C17_20  and  C18_21 
ROOT
ATOM      1  C8  7FA d   1       1.828  64.626  54.602  0.00  0.00    -0.035 C 
ATOM      2  H   7FA d   1       2.672  64.207  55.149  0.00  0.00     0.044 H 
ATOM      3  H   7FA d   1       1.409  63.840  53.973  0.00  0.00     0.044 H 
ENDROOT
BRANCH   1   4
ATOM      4  C7  7FA d   1       2.281  65.781  53.755  0.00  0.00    -0.103 C 
ATOM      5  C6  7FA d   1       2.728  65.672  52.488  0.00  0.00    -0.106 C 
ATOM      6  H   7FA d   1       3.026  66.585  51.973  0.00  0.00     0.076 H 
ATOM      7  H   7FA d   1       2.246  66.777  54.196  0.00  0.00     0.076 H 
BRANCH   5   8
ATOM      8  C5  7FA d   1       2.843  64.371  51.736  0.00  0.00    -0.050 C 
ATOM      9  H   7FA d   1       3.780  63.881  52.001  0.00  0.00     0.038 H 
ATOM     10  H   7FA d   1       2.006  63.725  51.999  0.00  0.00     0.038 H 
BRANCH   8  11
ATOM     11  C4  7FA d   1       2.821  64.640  50.260  0.00  0.00    -0.062 C 
ATOM     12  H   7FA d   1       2.299  63.818  49.770  0.00  0.00     0.033 H 
ATOM     13  H   7FA d   1       2.322  65.595  50.094  0.00  0.00     0.033 H 
BRANCH  11  14
ATOM     14  C3  7FA d   1       4.212  64.727  49.684  0.00  0.00    -0.064 C 
ATOM     15  H   7FA d   1       4.703  65.617  50.078  0.00  0.00     0.033 H 
ATOM     16  H   7FA d   1       4.766  63.830  49.960  0.00  0.00     0.033 H 
BRANCH  14  17
ATOM     17  C2  7FA d   1       4.158  64.825  48.174  0.00  0.00    -0.058 C 
ATOM     18  H   7FA d   1       5.163  64.705  47.769  0.00  0.00     0.033 H 
ATOM     19  H   7FA d   1       3.507  64.042  47.785  0.00  0.00     0.033 H 
BRANCH  17  20
ATOM     20  C1  7FA d   1       3.621  66.157  47.773  0.00  0.00     0.004 C 
ATOM     21  H   7FA d   1       2.681  66.296  48.307  0.00  0.00     0.046 H 
ATOM     22  H   7FA d   1       4.389  66.894  48.008  0.00  0.00     0.046 H 
BRANCH  20  23
ATOM     23  P1  7FA d   1       3.259  66.318  46.027  0.00  0.00     0.205 P 
ATOM     24  O1  7FA d   1       2.410  65.064  45.545  0.00  0.00    -0.178 OA
BRANCH  23  25
ATOM     25  O2  7FA d   1       2.604  67.719  45.696  0.00  0.00    -0.342 OA
BRANCH  25  26
ATOM     26  CM  7FA d   1       1.190  67.927  45.702  0.00  0.00     0.011 C 
ATOM     27  H   7FA d   1       0.724  67.267  44.971  0.00  0.00     0.066 H 
ATOM     28  H   7FA d   1       0.796  67.708  46.694  0.00  0.00     0.066 H 
ATOM     29  H   7FA d   1       0.976  68.965  45.446  0.00  0.00     0.066 H 
ENDBRANCH  25  26
ENDBRANCH  23  25
ENDBRANCH  20  23
ENDBRANCH  17  20
ENDBRANCH  14  17
ENDBRANCH  11  14
ENDBRANCH   8  11
ENDBRANCH   5   8
ENDBRANCH   1   4
BRANCH   1  30
ATOM     30  C9  7FA d   1       0.786  65.132  55.563  0.00  0.00    -0.103 C 
ATOM     31  C10 7FA d   1       0.262  64.401  56.562  0.00  0.00    -0.106 C 
ATOM     32  H   7FA d   1      -0.490  64.862  57.203  0.00  0.00     0.076 H 
ATOM     33  H   7FA d   1       0.434  66.156  55.441  0.00  0.00     0.076 H 
BRANCH  31  34
ATOM     34  C11 7FA d   1       0.660  62.985  56.838  0.00  0.00    -0.050 C 
ATOM     35  H   7FA d   1       1.683  62.816  56.501  0.00  0.00     0.038 H 
ATOM     36  H   7FA d   1      -0.002  62.304  56.304  0.00  0.00     0.038 H 
BRANCH  34  37
ATOM     37  C12 7FA d   1       0.563  62.736  58.313  0.00  0.00    -0.062 C 
ATOM     38  H   7FA d   1      -0.437  63.081  58.576  0.00  0.00     0.033 H 
ATOM     39  H   7FA d   1       1.447  63.224  58.724  0.00  0.00     0.033 H 
BRANCH  37  40
ATOM     40  C13 7FA d   1       0.619  61.489  58.803  0.00  0.00    -0.065 C 
ATOM     41  H   7FA d   1       0.099  60.884  58.060  0.00  0.00     0.033 H 
ATOM     42  H   7FA d   1       0.224  61.580  59.815  0.00  0.00     0.033 H 
BRANCH  40  43
ATOM     43  C14 7FA d   1       1.942  60.801  58.981  0.00  0.00    -0.065 C 
ATOM     44  H   7FA d   1       2.323  61.018  59.979  0.00  0.00     0.033 H 
ATOM     45  H   7FA d   1       2.635  61.163  58.221  0.00  0.00     0.033 H 
BRANCH  43  46
ATOM     46  C15 7FA d   1       1.786  59.320  58.831  0.00  0.00    -0.065 C 
ATOM     47  H   7FA d   1       0.898  58.983  59.365  0.00  0.00     0.033 H 
ATOM     48  H   7FA d   1       2.654  58.810  59.249  0.00  0.00     0.033 H 
BRANCH  46  49
ATOM     49  C16 7FA d   1       1.658  59.002  57.373  0.00  0.00    -0.065 C 
ATOM     50  H   7FA d   1       2.466  58.342  57.056  0.00  0.00     0.033 H 
ATOM     51  H   7FA d   1       1.723  59.913  56.778  0.00  0.00     0.033 H 
BRANCH  49  52
ATOM     52  C17 7FA d   1       0.334  58.340  57.169  0.00  0.00    -0.069 C 
ATOM     53  H   7FA d   1      -0.381  59.039  56.734  0.00  0.00     0.032 H 
ATOM     54  H   7FA d   1      -0.078  58.006  58.121  0.00  0.00     0.032 H 
BRANCH  52  55
ATOM     55  C18 7FA d   1       0.554  57.180  56.257  0.00  0.00    -0.077 C 
ATOM     56  H   7FA d   1       0.955  57.536  55.308  0.00  0.00     0.027 H 
ATOM     57  H   7FA d   1       1.262  56.489  56.715  0.00  0.00     0.027 H 
ATOM     58  H   7FA d   1      -0.394  56.670  56.084  0.00  0.00     0.027 H 
ENDBRANCH  52  55
ENDBRANCH  49  52
ENDBRANCH  46  49
ENDBRANCH  43  46
ENDBRANCH  40  43
ENDBRANCH  37  40
ENDBRANCH  34  37
ENDBRANCH  31  34
ENDBRANCH   1  30
TORSDOF 18
