REMARK  6 active torsions:
REMARK  status: ('A' for Active; 'I' for Inactive)
REMARK    1  A    between atoms: C4_4  and  C11_7 
REMARK    2  A    between atoms: C13_9  and  N16_12 
REMARK    3  A    between atoms: N16_12  and  C17_13 
REMARK    4  A    between atoms: C21_17  and  N26_19 
REMARK    5  A    between atoms: N29_22  and  C40_25 
REMARK    6  A    between atoms: C40_25  and  C41_26 
REMARK       I    between atoms: C41_26  and  N44_27 
ROOT
ATOM      1  N26 07S d   1      22.853  -1.747   8.107  0.00  0.00    -0.378 N 
ATOM      2  C27 07S d   1      23.769  -2.880   8.074  0.00  0.00     0.018 C 
ATOM      3  C28 07S d   1      25.140  -2.355   8.459  0.00  0.00     0.099 C 
ATOM      4  N29 07S d   1      25.471  -1.144   7.641  0.00  0.00    -0.060 N 
ATOM      5  C30 07S d   1      24.429  -0.080   7.496  0.00  0.00     0.099 C 
ATOM      6  C31 07S d   1      23.074  -0.671   7.152  0.00  0.00     0.018 C 
ATOM      7  H10 07S d   1      23.800  -3.311   7.062  0.00  0.00     0.066 H 
ATOM      8  H11 07S d   1      23.444  -3.649   8.790  0.00  0.00     0.066 H 
ATOM      9  H12 07S d   1      25.894  -3.135   8.277  0.00  0.00     0.078 H 
ATOM     10  H13 07S d   1      25.141  -2.086   9.526  0.00  0.00     0.078 H 
ATOM     11  H14 07S d   1      25.629  -1.491   6.708  0.00  0.00     0.280 HD
ATOM     12  H15 07S d   1      24.732   0.610   6.694  0.00  0.00     0.078 H 
ATOM     13  H16 07S d   1      24.348   0.472   8.444  0.00  0.00     0.078 H 
ATOM     14  H17 07S d   1      22.288   0.093   7.248  0.00  0.00     0.066 H 
ATOM     15  H18 07S d   1      23.078  -1.066   6.125  0.00  0.00     0.066 H 
ENDROOT
BRANCH   1  16
ATOM     16  C21 07S d   1      21.539  -1.976   8.592  0.00  0.00     0.035 A 
ATOM     17  C20 07S d   1      21.257  -3.143   9.275  0.00  0.00    -0.040 A 
ATOM     18  C19 07S d   1      19.986  -3.334   9.764  0.00  0.00     0.007 A 
ATOM     19  H8  07S d   1      22.024  -3.895   9.423  0.00  0.00     0.089 H 
ATOM     20  N18 07S d   1      18.990  -2.455   9.628  0.00  0.00    -0.243 NA
ATOM     21  H7  07S d   1      19.779  -4.257  10.294  0.00  0.00     0.114 H 
ATOM     22  C17 07S d   1      19.255  -1.318   8.976  0.00  0.00     0.131 A 
ATOM     23  C22 07S d   1      20.510  -1.055   8.453  0.00  0.00    -0.013 A 
ATOM     24  H9  07S d   1      20.690  -0.122   7.931  0.00  0.00     0.092 H 
BRANCH  22  25
ATOM     25  N16 07S d   1      18.277  -0.333   8.772  0.00  0.00    -0.320 N 
ATOM     26  H6  07S d   1      18.570   0.518   8.271  0.00  0.00     0.169 HD
BRANCH  25  27
ATOM     27  C13 07S d   1      16.978  -0.395   9.174  0.00  0.00     0.172 A 
ATOM     28  S12 07S d   1      16.251  -1.711  10.030  0.00  0.00    -0.050 SA
ATOM     29  C11 07S d   1      14.759  -0.860  10.089  0.00  0.00     0.037 A 
ATOM     30  C15 07S d   1      14.913   0.345   9.436  0.00  0.00     0.022 A 
ATOM     31  N14 07S d   1      16.152   0.601   8.918  0.00  0.00    -0.235 NA
ATOM     32  H5  07S d   1      14.092   1.054   9.338  0.00  0.00     0.117 H 
BRANCH  29  33
ATOM     33  C4  07S d   1      13.623  -1.365  10.841  0.00  0.00     0.000 A 
ATOM     34  C3  07S d   1      13.585  -2.662  11.327  0.00  0.00    -0.069 A 
ATOM     35  C2  07S d   1      12.504  -3.073  12.086  0.00  0.00    -0.065 A 
ATOM     36  H3  07S d   1      14.396  -3.349  11.114  0.00  0.00     0.085 H 
ATOM     37  C1  07S d   1      11.516  -2.147  12.352  0.00  0.00     0.002 A 
ATOM     38  H2  07S d   1      12.435  -4.088  12.459  0.00  0.00     0.085 H 
ATOM     39  N6  07S d   1      11.520  -0.880  11.908  0.00  0.00    -0.272 NA
ATOM     40  H1  07S d   1      10.678  -2.465  12.962  0.00  0.00     0.114 H 
ATOM     41  C5  07S d   1      12.575  -0.524  11.160  0.00  0.00     0.013 A 
ATOM     42  H4  07S d   1      12.607   0.491  10.781  0.00  0.00     0.116 H 
ENDBRANCH  29  33
ENDBRANCH  25  27
ENDBRANCH  22  25
ENDBRANCH   1  16
BRANCH   4  43
ATOM     43  C40 07S d   1      26.746  -0.538   8.096  0.00  0.00     0.156 C 
ATOM     44  H19 07S d   1      27.080  -1.027   9.023  0.00  0.00     0.090 H 
ATOM     45  H20 07S d   1      26.602   0.537   8.280  0.00  0.00     0.090 H 
BRANCH  43  46
ATOM     46  C41 07S d   1      27.772  -0.734   7.022  0.00  0.00     0.245 C 
ATOM     47  N44 07S d   1      28.930  -1.319   7.498  0.00  0.00    -0.347 N 
ATOM     48  C45 07S d   1      30.150  -0.538   7.588  0.00  0.00     0.017 C 
ATOM     49  C49 07S d   1      29.002  -2.742   7.776  0.00  0.00     0.017 C 
ATOM     50  C46 07S d   1      30.935  -0.900   8.838  0.00  0.00     0.034 C 
ATOM     51  H21 07S d   1      29.892   0.531   7.622  0.00  0.00     0.067 H 
ATOM     52  H22 07S d   1      30.771  -0.737   6.702  0.00  0.00     0.067 H 
ATOM     53  O47 07S d   1      31.085  -2.322   8.928  0.00  0.00    -0.388 OA
ATOM     54  H23 07S d   1      30.397  -0.534   9.725  0.00  0.00     0.076 H 
ATOM     55  H24 07S d   1      31.929  -0.431   8.792  0.00  0.00     0.076 H 
ATOM     56  C48 07S d   1      29.819  -2.987   9.035  0.00  0.00     0.034 C 
ATOM     57  H25 07S d   1      29.273  -2.596   9.906  0.00  0.00     0.076 H 
ATOM     58  H26 07S d   1      29.983  -4.067   9.160  0.00  0.00     0.076 H 
ATOM     59  H27 07S d   1      29.478  -3.255   6.928  0.00  0.00     0.067 H 
ATOM     60  H28 07S d   1      27.985  -3.137   7.919  0.00  0.00     0.067 H 
ATOM     61  O58 07S d   1      27.565  -0.385   5.867  0.00  0.00    -0.272 OA
ENDBRANCH  43  46
ENDBRANCH   4  43
TORSDOF 6
