REMARK  7 active torsions:
REMARK  status: ('A' for Active; 'I' for Inactive)
REMARK    1  A    between atoms: C19_23  and  N_2 
REMARK    2  A    between atoms: C11_15  and  C4_8 
REMARK    3  A    between atoms: C6_10  and  C21_25 
REMARK    4  A    between atoms: C17_21  and  N20_24 
REMARK       I    between atoms: C21_25  and  N23_27 
REMARK    5  A    between atoms: N23_27  and  C24_28 
REMARK    6  A    between atoms: C24_28  and  C25_29 
REMARK    7  A    between atoms: C25_29  and  N26_30 
ROOT
ATOM      1  S   S25 d   1      15.995  -1.542  10.121  0.00  0.00    -0.050 SA
ATOM      2  C10 S25 d   1      16.737  -0.254   9.233  0.00  0.00     0.172 A 
ATOM      3  C11 S25 d   1      14.508  -0.678  10.134  0.00  0.00     0.037 A 
ATOM      4  C12 S25 d   1      14.677   0.511   9.452  0.00  0.00     0.022 A 
ATOM      5  N13 S25 d   1      15.926   0.741   8.943  0.00  0.00    -0.235 NA
ATOM      6  N20 S25 d   1      18.042  -0.213   8.843  0.00  0.00    -0.320 N 
ATOM      7  H12 S25 d   1      13.864   1.224   9.327  0.00  0.00     0.117 H 
ATOM      8  H16 S25 d   1      18.348   0.625   8.328  0.00  0.00     0.169 HD
ENDROOT
BRANCH   6   9
ATOM      9  C17 S25 d   1      19.009  -1.202   9.076  0.00  0.00     0.131 A 
ATOM     10  N16 S25 d   1      18.793  -2.274   9.847  0.00  0.00    -0.243 NA
ATOM     11  C15 S25 d   1      19.794  -3.150   9.978  0.00  0.00     0.007 A 
ATOM     12  C14 S25 d   1      21.032  -3.012   9.391  0.00  0.00    -0.040 A 
ATOM     13  H14 S25 d   1      19.619  -4.029  10.588  0.00  0.00     0.114 H 
ATOM     14  C19 S25 d   1      21.275  -1.899   8.607  0.00  0.00     0.035 A 
ATOM     15  H13 S25 d   1      21.801  -3.761   9.540  0.00  0.00     0.089 H 
ATOM     16  C18 S25 d   1      20.235  -0.992   8.473  0.00  0.00    -0.013 A 
ATOM     17  H15 S25 d   1      20.387  -0.097   7.881  0.00  0.00     0.092 H 
BRANCH  14  18
ATOM     18  N   S25 d   1      22.555  -1.667   8.023  0.00  0.00    -0.377 N 
ATOM     19  C   S25 d   1      23.504  -2.780   8.099  0.00  0.00     0.015 C 
ATOM     20  C1  S25 d   1      23.533  -3.506   6.767  0.00  0.00     0.034 C 
ATOM     21  H1  S25 d   1      23.191  -3.477   8.890  0.00  0.00     0.067 H 
ATOM     22  H2  S25 d   1      24.508  -2.392   8.328  0.00  0.00     0.067 H 
ATOM     23  O   S25 d   1      23.756  -2.554   5.721  0.00  0.00    -0.388 OA
ATOM     24  H3  S25 d   1      22.572  -4.015   6.604  0.00  0.00     0.076 H 
ATOM     25  H4  S25 d   1      24.345  -4.248   6.769  0.00  0.00     0.076 H 
ATOM     26  C2  S25 d   1      22.650  -1.652   5.601  0.00  0.00     0.034 C 
ATOM     27  C3  S25 d   1      22.582  -0.791   6.851  0.00  0.00     0.015 C 
ATOM     28  H5  S25 d   1      21.716  -2.224   5.495  0.00  0.00     0.076 H 
ATOM     29  H6  S25 d   1      22.790  -1.011   4.718  0.00  0.00     0.076 H 
ATOM     30  H7  S25 d   1      23.465  -0.137   6.898  0.00  0.00     0.067 H 
ATOM     31  H8  S25 d   1      21.670  -0.176   6.828  0.00  0.00     0.067 H 
ENDBRANCH  14  18
ENDBRANCH   6   9
BRANCH   3  32
ATOM     32  C4  S25 d   1      13.362  -1.120  10.912  0.00  0.00     0.001 A 
ATOM     33  C5  S25 d   1      13.315  -2.343  11.572  0.00  0.00    -0.054 A 
ATOM     34  C6  S25 d   1      12.217  -2.594  12.386  0.00  0.00     0.050 A 
ATOM     35  H9  S25 d   1      14.107  -3.075  11.456  0.00  0.00     0.086 H 
ATOM     36  C7  S25 d   1      11.235  -1.632  12.489  0.00  0.00     0.017 A 
ATOM     37  N8  S25 d   1      11.240  -0.449  11.852  0.00  0.00    -0.271 NA
ATOM     38  H10 S25 d   1      10.392  -1.847  13.135  0.00  0.00     0.116 H 
ATOM     39  C9  S25 d   1      12.326  -0.226  11.101  0.00  0.00     0.013 A 
ATOM     40  H11 S25 d   1      12.398   0.733  10.601  0.00  0.00     0.116 H 
BRANCH  34  41
ATOM     41  C21 S25 d   1      12.023  -3.840  13.155  0.00  0.00     0.253 C 
ATOM     42  O22 S25 d   1      10.966  -3.992  13.768  0.00  0.00    -0.268 OA
ATOM     43  N23 S25 d   1      13.079  -4.722  13.157  0.00  0.00    -0.355 N 
ATOM     44  H17 S25 d   1      13.909  -4.500  12.644  0.00  0.00     0.162 HD
BRANCH  43  45
ATOM     45  C24 S25 d   1      13.004  -5.967  13.892  0.00  0.00     0.018 C 
ATOM     46  H18 S25 d   1      13.097  -6.803  13.184  0.00  0.00     0.066 H 
ATOM     47  H19 S25 d   1      12.029  -6.022  14.398  0.00  0.00     0.066 H 
BRANCH  45  48
ATOM     48  C25 S25 d   1      14.102  -6.083  14.933  0.00  0.00     0.094 C 
ATOM     49  H20 S25 d   1      15.066  -6.245  14.428  0.00  0.00     0.077 H 
ATOM     50  H21 S25 d   1      13.887  -6.935  15.594  0.00  0.00     0.077 H 
BRANCH  48  51
ATOM     51  N26 S25 d   1      14.175  -4.833  15.747  0.00  0.00    -0.078 N 
ATOM     52  H22 S25 d   1      14.907  -4.922  16.434  0.00  0.00     0.274 HD
ATOM     53  H23 S25 d   1      13.294  -4.683  16.212  0.00  0.00     0.274 HD
ATOM     54  H24 S25 d   1      14.374  -4.050  15.144  0.00  0.00     0.274 HD
ENDBRANCH  48  51
ENDBRANCH  45  48
ENDBRANCH  43  45
ENDBRANCH  34  41
ENDBRANCH   3  32
TORSDOF 7
