REMARK WARNING: 32 MAX_TORS EXCEEDED!!!
REMARK  33 active torsions:
REMARK  status: ('A' for Active; 'I' for Inactive)
REMARK    1  A    between atoms: N_1  and  CA_2 
REMARK    2  A    between atoms: CA_2  and  C_3 
REMARK    3  A    between atoms: CA_2  and  CB_5 
REMARK       I    between atoms: C_3  and  N_8 
REMARK    4  A    between atoms: CB_5  and  CG1_6 
REMARK    5  A    between atoms: CB_5  and  CG2_7 
REMARK    6  A    between atoms: N_8  and  CA_9 
REMARK    7  A    between atoms: CA_9  and  C_10 
REMARK    8  A    between atoms: CA_9  and  CB_12 
REMARK       I    between atoms: C_10  and  N_16 
REMARK    9  A    between atoms: CB_12  and  CG1_13 
REMARK   10  A    between atoms: CB_12  and  CG2_14 
REMARK   11  A    between atoms: CG1_13  and  CD1_15 
REMARK   12  A    between atoms: N_16  and  CA_17 
REMARK   13  A    between atoms: CA_17  and  C_18 
REMARK   14  A    between atoms: CA_17  and  CB_20 
REMARK       I    between atoms: C_18  and  N_32 
REMARK   15  A    between atoms: CB_20  and  CG_21 
REMARK   16  A    between atoms: CZ_26  and  OH_27 
REMARK   17  A    between atoms: OH_27  and  P_28 
REMARK   18  A    between atoms: N_32  and  CA_33 
REMARK   19  A    between atoms: CA_33  and  C_34 
REMARK   20  A    between atoms: CA_33  and  CB_36 
REMARK       I    between atoms: C_34  and  N_43 
REMARK   21  A    between atoms: CB_36  and  CG_37 
REMARK   22  A    between atoms: N_43  and  CA_44 
REMARK   23  A    between atoms: CA_44  and  C_45 
REMARK   24  A    between atoms: CA_44  and  CB_47 
REMARK       I    between atoms: C_45  and  N_50 
REMARK   25  A    between atoms: CB_47  and  CG1_48 
REMARK   26  A    between atoms: CB_47  and  CG2_49 
REMARK   27  A    between atoms: CA_51  and  C_52 
REMARK       I    between atoms: C_52  and  N_57 
REMARK   28  A    between atoms: N_57  and  CA_58 
REMARK   29  A    between atoms: CA_58  and  C_59 
REMARK   30  A    between atoms: CA_58  and  CB_61 
REMARK   31  A    between atoms: CB_61  and  CG_62 
REMARK   32  A    between atoms: CG_62  and  CD1_63 
REMARK   33  A    between atoms: CG_62  and  CD2_64 
ROOT
ATOM      1  CA  PHE d   1      15.459  14.225  22.688  0.00  0.00     0.093 C 
ATOM      2  H   PHE d   1      15.831  13.738  23.589  0.00  0.00     0.088 H 
ENDROOT
BRANCH   1   3
ATOM      3  N   PHE d   1      14.809  15.456  22.977  0.00  0.00    -0.346 N 
ATOM      4  C   PTR d   1      14.902  16.004  24.162  0.00  0.00     0.241 C 
ATOM      5  O   PTR d   1      15.296  15.387  25.163  0.00  0.00    -0.271 OA
ATOM      6  H   PHE d   1      14.262  15.919  22.251  0.00  0.00     0.163 HD
BRANCH   4   7
ATOM      7  CA  PTR d   1      14.448  17.425  24.247  0.00  0.00     0.093 C 
ATOM      8  H   PTR d   1      13.706  17.656  23.482  0.00  0.00     0.088 H 
BRANCH   7   9
ATOM      9  N   PTR d   1      13.754  17.654  25.521  0.00  0.00    -0.346 N 
ATOM     10  C   ILE d   1      12.450  17.407  25.719  0.00  0.00     0.241 C 
ATOM     11  O   ILE d   1      11.653  17.037  24.816  0.00  0.00    -0.271 OA
ATOM     12  H   PTR d   1      14.296  18.023  26.302  0.00  0.00     0.163 HD
BRANCH  10  13
ATOM     13  CA  ILE d   1      11.969  17.578  27.189  0.00  0.00     0.092 C 
ATOM     14  H   ILE d   1      12.834  17.821  27.807  0.00  0.00     0.088 H 
BRANCH  13  15
ATOM     15  N   ILE d   1      11.048  18.697  27.350  0.00  0.00    -0.346 N 
ATOM     16  C   VAL d   1      11.478  19.900  27.712  0.00  0.00     0.249 C 
ATOM     17  O   VAL d   1      12.674  20.131  27.947  0.00  0.00    -0.271 OA
ATOM     18  H   ILE d   1      10.053  18.553  27.181  0.00  0.00     0.163 HD
BRANCH  16  19
ATOM     19  CA  VAL d   1      10.399  20.996  27.853  0.00  0.00     0.178 C 
ATOM     20  H   VAL d   1       9.448  20.471  27.938  0.00  0.00     0.099 H 
BRANCH  19  21
ATOM     21  N   VAL d   1      10.546  21.799  29.111  0.00  0.00    -0.066 N 
ATOM     22  H   VAL d   1      10.607  21.168  29.910  0.00  0.00     0.275 HD
ATOM     23  H   VAL d   1      11.394  22.363  29.056  0.00  0.00     0.275 HD
ATOM     24  H   VAL d   1       9.736  22.410  29.220  0.00  0.00     0.275 HD
ENDBRANCH  19  21
BRANCH  19  25
ATOM     25  CB  VAL d   1      10.298  21.905  26.576  0.00  0.00    -0.025 C 
ATOM     26  H   VAL d   1       9.530  21.465  25.940  0.00  0.00     0.042 H 
BRANCH  25  27
ATOM     27  CG1 VAL d   1       9.857  23.329  26.922  0.00  0.00    -0.071 C 
ATOM     28  H   VAL d   1      10.626  23.809  27.527  0.00  0.00     0.028 H 
ATOM     29  H   VAL d   1       9.710  23.896  26.003  0.00  0.00     0.028 H 
ATOM     30  H   VAL d   1       8.922  23.293  27.481  0.00  0.00     0.028 H 
ENDBRANCH  25  27
BRANCH  25  31
ATOM     31  CG2 VAL d   1      11.585  21.921  25.804  0.00  0.00    -0.071 C 
ATOM     32  H   VAL d   1      11.446  22.482  24.880  0.00  0.00     0.028 H 
ATOM     33  H   VAL d   1      12.361  22.395  26.404  0.00  0.00     0.028 H 
ATOM     34  H   VAL d   1      11.879  20.898  25.569  0.00  0.00     0.028 H 
ENDBRANCH  25  31
ENDBRANCH  19  25
ENDBRANCH  16  19
ENDBRANCH  13  15
BRANCH  13  35
ATOM     35  CB  ILE d   1      11.359  16.259  27.679  0.00  0.00    -0.030 C 
ATOM     36  H   ILE d   1      10.472  16.020  27.092  0.00  0.00     0.043 H 
BRANCH  35  37
ATOM     37  CG1 ILE d   1      10.868  16.394  29.153  0.00  0.00    -0.063 C 
ATOM     38  H   ILE d   1      10.704  17.457  29.332  0.00  0.00     0.033 H 
ATOM     39  H   ILE d   1      11.629  15.930  29.780  0.00  0.00     0.033 H 
BRANCH  37  40
ATOM     40  CD1 ILE d   1       9.502  15.662  29.479  0.00  0.00    -0.076 C 
ATOM     41  H   ILE d   1       8.712  16.072  28.850  0.00  0.00     0.027 H 
ATOM     42  H   ILE d   1       9.607  14.595  29.283  0.00  0.00     0.027 H 
ATOM     43  H   ILE d   1       9.250  15.817  30.528  0.00  0.00     0.027 H 
ENDBRANCH  37  40
ENDBRANCH  35  37
BRANCH  35  44
ATOM     44  CG2 ILE d   1      12.355  15.103  27.458  0.00  0.00    -0.071 C 
ATOM     45  H   ILE d   1      12.584  15.020  26.395  0.00  0.00     0.028 H 
ATOM     46  H   ILE d   1      13.271  15.303  28.014  0.00  0.00     0.028 H 
ATOM     47  H   ILE d   1      11.912  14.171  27.809  0.00  0.00     0.028 H 
ENDBRANCH  35  44
ENDBRANCH  13  35
ENDBRANCH  10  13
ENDBRANCH   7   9
BRANCH   7  48
ATOM     48  CB  PTR d   1      15.639  18.362  23.956  0.00  0.00    -0.014 C 
ATOM     49  H   PTR d   1      16.265  17.916  23.183  0.00  0.00     0.043 H 
ATOM     50  H   PTR d   1      16.217  18.502  24.870  0.00  0.00     0.043 H 
BRANCH  48  51
ATOM     51  CG  PTR d   1      15.145  19.681  23.484  0.00  0.00    -0.056 A 
ATOM     52  CD1 PTR d   1      14.666  20.597  24.383  0.00  0.00    -0.074 A 
ATOM     53  CE1 PTR d   1      14.162  21.807  23.966  0.00  0.00    -0.050 A 
ATOM     54  H   PTR d   1      14.685  20.363  25.447  0.00  0.00     0.084 H 
ATOM     55  CZ  PTR d   1      14.096  22.111  22.610  0.00  0.00     0.082 A 
ATOM     56  H   PTR d   1      13.812  22.531  24.702  0.00  0.00     0.087 H 
ATOM     57  CE2 PTR d   1      14.529  21.189  21.701  0.00  0.00    -0.050 A 
ATOM     58  CD2 PTR d   1      15.036  19.974  22.122  0.00  0.00    -0.074 A 
ATOM     59  H   PTR d   1      14.475  21.413  20.636  0.00  0.00     0.087 H 
ATOM     60  H   PTR d   1      15.354  19.237  21.384  0.00  0.00     0.084 H 
BRANCH  55  61
ATOM     61  OH  PTR d   1      13.577  23.221  22.313  0.00  0.00    -0.240 OA
BRANCH  61  62
ATOM     62  P   PTR d   1      14.328  24.573  21.772  0.00  0.00     0.427 P 
ATOM     63  O1P PTR d   1      15.002  24.117  20.530  0.00  0.00    -0.617 OA
ATOM     64  O2P PTR d   1      13.450  25.789  21.618  0.00  0.00    -0.617 OA
ATOM     65  O3P PTR d   1      15.432  24.905  22.833  0.00  0.00    -0.617 OA
ENDBRANCH  61  62
ENDBRANCH  55  61
ENDBRANCH  48  51
ENDBRANCH   7  48
ENDBRANCH   4   7
ENDBRANCH   1   3
BRANCH   1  66
ATOM     66  C   PHE d   1      16.574  14.589  21.745  0.00  0.00     0.241 C 
ATOM     67  O   PHE d   1      16.417  15.523  20.938  0.00  0.00    -0.271 OA
ATOM     68  N   VAL d   1      17.684  13.864  21.868  0.00  0.00    -0.346 N 
ATOM     69  H   VAL d   1      17.663  13.065  22.502  0.00  0.00     0.163 HD
BRANCH  68  70
ATOM     70  CA  VAL d   1      18.940  14.140  21.149  0.00  0.00     0.092 C 
ATOM     71  H   VAL d   1      18.815  14.881  20.360  0.00  0.00     0.088 H 
BRANCH  70  72
ATOM     72  C   VAL d   1      19.354  12.788  20.603  0.00  0.00     0.243 C 
ATOM     73  O   VAL d   1      19.057  11.768  21.242  0.00  0.00    -0.271 OA
ATOM     74  N   PRO d   1      19.972  12.745  19.393  0.00  0.00    -0.337 N 
ATOM     75  CA  PRO d   1      20.374  11.476  18.735  0.00  0.00     0.091 C 
ATOM     76  CD  PRO d   1      20.243  13.923  18.542  0.00  0.00    -0.001 C 
ATOM     77  CB  PRO d   1      20.887  11.918  17.358  0.00  0.00    -0.036 C 
ATOM     78  H   PRO d   1      19.550  10.765  18.680  0.00  0.00     0.087 H 
ATOM     79  CG  PRO d   1      20.442  13.308  17.199  0.00  0.00    -0.048 C 
ATOM     80  H   PRO d   1      20.497  11.281  16.564  0.00  0.00     0.036 H 
ATOM     81  H   PRO d   1      21.972  11.837  17.292  0.00  0.00     0.036 H 
ATOM     82  H   PRO d   1      19.502  13.328  16.648  0.00  0.00     0.035 H 
ATOM     83  H   PRO d   1      21.197  13.871  16.650  0.00  0.00     0.035 H 
ATOM     84  H   PRO d   1      21.101  14.505  18.878  0.00  0.00     0.064 H 
ATOM     85  H   PRO d   1      19.439  14.659  18.561  0.00  0.00     0.064 H 
BRANCH  75  86
ATOM     86  C   PRO d   1      21.499  10.770  19.517  0.00  0.00     0.241 C 
ATOM     87  O   PRO d   1      22.108  11.397  20.398  0.00  0.00    -0.271 OA
ATOM     88  N   LEU d   1      21.755   9.499  19.197  0.00  0.00    -0.345 N 
ATOM     89  H   LEU d   1      21.323   9.107  18.360  0.00  0.00     0.163 HD
BRANCH  88  90
ATOM     90  CA  LEU d   1      22.640   8.639  20.009  0.00  0.00     0.096 C 
ATOM     91  H   LEU d   1      22.512   8.961  21.043  0.00  0.00     0.089 H 
BRANCH  90  92
ATOM     92  C   LEU d   1      24.148   8.818  19.729  0.00  0.00     0.196 C 
ATOM     93  O   LEU d   1      24.634   8.680  18.574  0.00  0.00    -0.646 OA
ATOM     94  O   LEU d   1      24.916   9.111  20.684  0.00  0.00    -0.646 OA
ENDBRANCH  90  92
BRANCH  90  95
ATOM     95  CB  LEU d   1      22.217   7.169  19.858  0.00  0.00    -0.034 C 
ATOM     96  H   LEU d   1      22.852   6.765  19.070  0.00  0.00     0.037 H 
ATOM     97  H   LEU d   1      21.141   7.194  19.685  0.00  0.00     0.037 H 
BRANCH  95  98
ATOM     98  CG  LEU d   1      22.415   6.236  21.059  0.00  0.00    -0.059 C 
ATOM     99  H   LEU d   1      23.462   5.931  21.069  0.00  0.00     0.038 H 
BRANCH  98 100
ATOM    100  CD1 LEU d   1      22.167   6.964  22.423  0.00  0.00    -0.073 C 
ATOM    101  H   LEU d   1      22.865   7.796  22.522  0.00  0.00     0.028 H 
ATOM    102  H   LEU d   1      21.145   7.341  22.452  0.00  0.00     0.028 H 
ATOM    103  H   LEU d   1      22.320   6.261  23.242  0.00  0.00     0.028 H 
ENDBRANCH  98 100
BRANCH  98 104
ATOM    104  CD2 LEU d   1      21.567   4.958  20.911  0.00  0.00    -0.073 C 
ATOM    105  H   LEU d   1      20.513   5.228  20.848  0.00  0.00     0.028 H 
ATOM    106  H   LEU d   1      21.863   4.430  20.005  0.00  0.00     0.028 H 
ATOM    107  H   LEU d   1      21.727   4.315  21.776  0.00  0.00     0.028 H 
ENDBRANCH  98 104
ENDBRANCH  95  98
ENDBRANCH  90  95
ENDBRANCH  88  90
ENDBRANCH  75  86
ENDBRANCH  70  72
BRANCH  70 108
ATOM    108  CB  VAL d   1      20.032  14.762  22.092  0.00  0.00    -0.033 C 
ATOM    109  H   VAL d   1      20.961  14.788  21.523  0.00  0.00     0.042 H 
BRANCH 108 110
ATOM    110  CG1 VAL d   1      19.663  16.204  22.512  0.00  0.00    -0.071 C 
ATOM    111  H   VAL d   1      19.577  16.829  21.623  0.00  0.00     0.028 H 
ATOM    112  H   VAL d   1      18.712  16.194  23.044  0.00  0.00     0.028 H 
ATOM    113  H   VAL d   1      20.441  16.602  23.164  0.00  0.00     0.028 H 
ENDBRANCH 108 110
BRANCH 108 114
ATOM    114  CG2 VAL d   1      20.240  13.896  23.361  0.00  0.00    -0.071 C 
ATOM    115  H   VAL d   1      19.302  13.830  23.912  0.00  0.00     0.028 H 
ATOM    116  H   VAL d   1      20.562  12.897  23.069  0.00  0.00     0.028 H 
ATOM    117  H   VAL d   1      21.002  14.355  23.991  0.00  0.00     0.028 H 
ENDBRANCH 108 114
ENDBRANCH  70 108
ENDBRANCH  68  70
ENDBRANCH   1  66
BRANCH   1 118
ATOM    118  CB  PHE d   1      14.505  13.241  22.055  0.00  0.00    -0.014 C 
ATOM    119  H   PHE d   1      15.098  12.528  21.481  0.00  0.00     0.043 H 
ATOM    120  H   PHE d   1      13.804  13.808  21.442  0.00  0.00     0.043 H 
BRANCH 118 121
ATOM    121  CG  PHE d   1      13.697  12.455  23.070  0.00  0.00    -0.056 A 
ATOM    122  CD1 PHE d   1      13.480  11.085  22.897  0.00  0.00    -0.077 A 
ATOM    123  CE1 PHE d   1      12.720  10.348  23.838  0.00  0.00    -0.082 A 
ATOM    124  H   PHE d   1      13.900  10.578  22.028  0.00  0.00     0.084 H 
ATOM    125  CZ  PHE d   1      12.203  10.994  24.971  0.00  0.00    -0.083 A 
ATOM    126  H   PHE d   1      12.538   9.285  23.683  0.00  0.00     0.083 H 
ATOM    127  CE2 PHE d   1      12.422  12.369  25.158  0.00  0.00    -0.082 A 
ATOM    128  H   PHE d   1      11.631  10.429  25.707  0.00  0.00     0.083 H 
ATOM    129  CD2 PHE d   1      13.173  13.088  24.206  0.00  0.00    -0.077 A 
ATOM    130  H   PHE d   1      12.014  12.876  26.032  0.00  0.00     0.083 H 
ATOM    131  H   PHE d   1      13.349  14.153  24.355  0.00  0.00     0.084 H 
ENDBRANCH 118 121
ENDBRANCH   1 118
TORSDOF 33
