REMARK  9 active torsions:
REMARK  status: ('A' for Active; 'I' for Inactive)
REMARK    1  A    between atoms: C1_1  and  C2_2 
REMARK    2  A    between atoms: C3_3  and  C24_24 
REMARK    3  A    between atoms: C8_8  and  C17_17 
REMARK    4  A    between atoms: C10_10  and  N11_11 
REMARK    5  A    between atoms: C20_20  and  N23_23 
REMARK    6  A    between atoms: C24_24  and  N25_25 
REMARK       I    between atoms: N28_28  and  C31_31 
REMARK    7  A    between atoms: C31_31  and  C33_33 
REMARK    8  A    between atoms: C33_33  and  C35_34 
REMARK    9  A    between atoms: C33_33  and  O36_35 
ROOT
ATOM      1  C2  980 d   1      20.086  64.902  19.967  0.00  0.00    -0.017 A 
ATOM      2  C3  980 d   1      18.762  65.266  20.357  0.00  0.00     0.020 A 
ATOM      3  S4  980 d   1      18.120  63.921  21.206  0.00  0.00    -0.086 SA
ATOM      4  C5  980 d   1      19.482  62.859  21.104  0.00  0.00     0.080 A 
ATOM      5  C6  980 d   1      20.479  63.545  20.396  0.00  0.00     0.087 A 
ATOM      6  N7  980 d   1      21.695  62.930  20.167  0.00  0.00    -0.227 NA
ATOM      7  C8  980 d   1      21.946  61.668  20.582  0.00  0.00     0.165 A 
ATOM      8  N9  980 d   1      20.992  60.999  21.273  0.00  0.00    -0.209 NA
ATOM      9  C10 980 d   1      19.778  61.538  21.542  0.00  0.00     0.147 A 
ENDROOT
BRANCH   2  10
ATOM     10  C24 980 d   1      18.026  66.579  20.113  0.00  0.00     0.143 C 
ATOM     11  H   980 d   1      18.758  67.380  20.218  0.00  0.00     0.088 H 
ATOM     12  H   980 d   1      17.205  66.623  20.828  0.00  0.00     0.088 H 
BRANCH  10  13
ATOM     13  N25 980 d   1      17.514  66.688  18.947  0.00  0.00     0.096 N 
ATOM     14  C26 980 d   1      16.703  67.782  18.921  0.00  0.00     0.128 C 
ATOM     15  C27 980 d   1      16.144  68.016  17.543  0.00  0.00     0.023 C 
ATOM     16  H   980 d   1      17.288  68.655  19.211  0.00  0.00     0.082 H 
ATOM     17  H   980 d   1      15.873  67.615  19.608  0.00  0.00     0.082 H 
ATOM     18  N28 980 d   1      15.673  66.927  16.919  0.00  0.00    -0.347 N 
ATOM     19  H   980 d   1      16.966  68.391  16.934  0.00  0.00     0.067 H 
ATOM     20  H   980 d   1      15.300  68.695  17.662  0.00  0.00     0.067 H 
ATOM     21  C29 980 d   1      16.289  65.774  17.169  0.00  0.00     0.023 C 
ATOM     22  C31 980 d   1      14.573  66.990  15.982  0.00  0.00     0.248 C 
ATOM     23  C30 980 d   1      16.763  65.609  18.591  0.00  0.00     0.128 C 
ATOM     24  H   980 d   1      17.174  65.743  16.534  0.00  0.00     0.067 H 
ATOM     25  H   980 d   1      15.566  64.980  16.981  0.00  0.00     0.067 H 
ATOM     26  H   980 d   1      15.902  65.531  19.254  0.00  0.00     0.082 H 
ATOM     27  H   980 d   1      17.366  64.704  18.671  0.00  0.00     0.082 H 
ATOM     28  O32 980 d   1      14.208  65.955  15.445  0.00  0.00    -0.270 OA
BRANCH  22  29
ATOM     29  C33 980 d   1      13.875  68.307  15.717  0.00  0.00     0.109 C 
ATOM     30  H   980 d   1      13.737  68.771  16.694  0.00  0.00     0.097 H 
BRANCH  29  31
ATOM     31  C35 980 d   1      12.513  68.145  15.103  0.00  0.00    -0.044 C 
ATOM     32  H   980 d   1      12.605  67.624  14.150  0.00  0.00     0.031 H 
ATOM     33  H   980 d   1      11.879  67.566  15.775  0.00  0.00     0.031 H 
ATOM     34  H   980 d   1      12.070  69.127  14.940  0.00  0.00     0.031 H 
ENDBRANCH  29  31
BRANCH  29  35
ATOM     35  O36 980 d   1      14.648  69.123  14.916  0.00  0.00    -0.387 OA
ATOM     36  H   980 d   1      15.518  69.225  15.310  0.00  0.00     0.210 HD
ENDBRANCH  29  35
ENDBRANCH  22  29
ENDBRANCH  10  13
ENDBRANCH   2  10
BRANCH   1  37
ATOM     37  C1  980 d   1      21.020  65.790  19.215  0.00  0.00    -0.048 C 
ATOM     38  H   980 d   1      20.575  66.055  18.256  0.00  0.00     0.033 H 
ATOM     39  H   980 d   1      21.204  66.695  19.794  0.00  0.00     0.033 H 
ATOM     40  H   980 d   1      21.961  65.267  19.048  0.00  0.00     0.033 H 
ENDBRANCH   1  37
BRANCH   9  41
ATOM     41  N11 980 d   1      18.825  60.748  22.285  0.00  0.00    -0.361 N 
ATOM     42  C12 980 d   1      17.577  60.585  21.698  0.00  0.00     0.016 C 
ATOM     43  C13 980 d   1      16.588  60.294  22.776  0.00  0.00     0.034 C 
ATOM     44  H   980 d   1      17.604  59.763  20.983  0.00  0.00     0.067 H 
ATOM     45  H   980 d   1      17.293  61.492  21.164  0.00  0.00     0.067 H 
ATOM     46  O14 980 d   1      16.934  59.205  23.603  0.00  0.00    -0.388 OA
ATOM     47  H   980 d   1      15.647  60.040  22.288  0.00  0.00     0.076 H 
ATOM     48  H   980 d   1      16.539  61.177  23.413  0.00  0.00     0.076 H 
ATOM     49  C15 980 d   1      18.213  59.338  24.122  0.00  0.00     0.034 C 
ATOM     50  C16 980 d   1      19.209  59.638  23.053  0.00  0.00     0.016 C 
ATOM     51  H   980 d   1      18.491  58.398  24.599  0.00  0.00     0.076 H 
ATOM     52  H   980 d   1      18.212  60.163  24.834  0.00  0.00     0.076 H 
ATOM     53  H   980 d   1      20.165  59.861  23.526  0.00  0.00     0.067 H 
ATOM     54  H   980 d   1      19.279  58.772  22.395  0.00  0.00     0.067 H 
ENDBRANCH   9  41
BRANCH   7  55
ATOM     55  C17 980 d   1      23.299  60.996  20.329  0.00  0.00     0.048 A 
ATOM     56  C18 980 d   1      23.828  60.121  21.289  0.00  0.00     0.036 A 
ATOM     57  N19 980 d   1      25.022  59.534  21.082  0.00  0.00    -0.075 NA
ATOM     58  H   980 d   1      23.272  59.916  22.204  0.00  0.00     0.117 H 
ATOM     59  C20 980 d   1      25.711  59.779  19.960  0.00  0.00     0.719 A 
ATOM     60  N21 980 d   1      25.224  60.601  19.021  0.00  0.00    -0.075 NA
ATOM     61  C22 980 d   1      24.037  61.231  19.167  0.00  0.00     0.036 A 
ATOM     62  H   980 d   1      23.665  61.906  18.396  0.00  0.00     0.117 H 
BRANCH  59  63
ATOM     63  N23 980 d   1      26.981  59.148  19.755  0.00  0.00    -0.231 N 
ATOM     64  H   980 d   1      27.356  58.516  20.462  0.00  0.00     0.174 HD
ATOM     65  H   980 d   1      27.510  59.331  18.902  0.00  0.00     0.174 HD
ENDBRANCH  59  63
ENDBRANCH   7  55
TORSDOF 9
