REMARK  16 active torsions:
REMARK  status: ('A' for Active; 'I' for Inactive)
REMARK    1  A    between atoms: C1_1  and  C2_2 
REMARK    2  A    between atoms: C1_1  and  C3_4 
REMARK    3  A    between atoms: C1_1  and  N1_11 
REMARK    4  A    between atoms: C2_2  and  O1_3 
REMARK    5  A    between atoms: C3_4  and  C4_5 
REMARK       I    between atoms: N1_11  and  C11_13 
REMARK    6  A    between atoms: C11_13  and  C10_12 
REMARK    7  A    between atoms: C10_12  and  C12_15 
REMARK    8  A    between atoms: C10_12  and  N2_18 
REMARK    9  A    between atoms: C12_15  and  CG1_16 
REMARK   10  A    between atoms: C12_15  and  CG2_17 
REMARK       I    between atoms: N2_18  and  C19_19 
REMARK   11  A    between atoms: C19_19  and  C18_21 
REMARK   12  A    between atoms: C18_21  and  C20_22 
REMARK   13  A    between atoms: C18_21  and  N4_23 
REMARK       I    between atoms: N4_23  and  C31_24 
REMARK   14  A    between atoms: C31_24  and  O9_26 
REMARK   15  A    between atoms: O9_26  and  CA_27 
REMARK   16  A    between atoms: CA_27  and  C_28 
ROOT
ATOM      1  C10 3TL d   1     -10.158  15.101  31.939  0.00  0.00     0.092 C 
ATOM      2  H13 3TL d   1     -10.827  15.952  32.134  0.00  0.00     0.088 H 
ENDROOT
BRANCH   1   3
ATOM      3  C11 3TL d   1     -10.002  14.973  30.397  0.00  0.00     0.241 C 
ATOM      4  N1  3TL d   1     -10.864  15.673  29.661  0.00  0.00    -0.352 N 
ATOM      5  H12 3TL d   1     -11.533  16.241  30.140  0.00  0.00     0.163 HD
ATOM      6  O2  3TL d   1      -9.133  14.247  29.926  0.00  0.00    -0.271 OA
BRANCH   4   7
ATOM      7  C1  3TL d   1     -10.898  15.666  28.190  0.00  0.00     0.036 C 
ATOM      8  H1  3TL d   1     -10.101  15.004  27.820  0.00  0.00     0.076 H 
BRANCH   7   9
ATOM      9  C2  3TL d   1     -10.699  17.074  27.578  0.00  0.00     0.036 C 
ATOM     10  H2  3TL d   1     -10.790  17.012  26.484  0.00  0.00     0.077 H 
ATOM     11  H3  3TL d   1      -9.699  17.448  27.842  0.00  0.00     0.077 H 
BRANCH   9  12
ATOM     12  O1  3TL d   1     -11.695  17.976  28.089  0.00  0.00    -0.399 OA
ATOM     13  H4  3TL d   1     -11.566  18.837  27.709  0.00  0.00     0.209 HD
ENDBRANCH   9  12
ENDBRANCH   7   9
BRANCH   7  14
ATOM     14  C3  3TL d   1     -12.274  15.124  27.743  0.00  0.00    -0.020 C 
ATOM     15  H5  3TL d   1     -12.341  15.195  26.647  0.00  0.00     0.043 H 
ATOM     16  H6  3TL d   1     -13.061  15.743  28.199  0.00  0.00     0.043 H 
BRANCH  14  17
ATOM     17  C4  3TL d   1     -12.498  13.676  28.151  0.00  0.00    -0.056 C 
ATOM     18  C5  3TL d   1     -13.409  13.359  29.175  0.00  0.00    -0.077 C 
ATOM     19  C6  3TL d   1     -13.632  12.010  29.531  0.00  0.00    -0.082 C 
ATOM     20  H7  3TL d   1     -13.940  14.150  29.691  0.00  0.00     0.084 H 
ATOM     21  C7  3TL d   1     -12.853  11.006  28.927  0.00  0.00    -0.083 C 
ATOM     22  H8  3TL d   1     -14.393  11.752  30.259  0.00  0.00     0.083 H 
ATOM     23  C8  3TL d   1     -11.999  11.324  27.852  0.00  0.00    -0.082 C 
ATOM     24  H9  3TL d   1     -12.910   9.986  29.289  0.00  0.00     0.083 H 
ATOM     25  C9  3TL d   1     -11.795  12.661  27.467  0.00  0.00    -0.077 C 
ATOM     26  H10 3TL d   1     -11.494  10.529  27.316  0.00  0.00     0.083 H 
ATOM     27  H11 3TL d   1     -11.112  12.907  26.662  0.00  0.00     0.084 H 
ENDBRANCH  14  17
ENDBRANCH   7  14
ENDBRANCH   4   7
ENDBRANCH   1   3
BRANCH   1  28
ATOM     28  C12 3TL d   1      -8.809  15.380  32.659  0.00  0.00    -0.033 C 
ATOM     29  H14 3TL d   1      -8.166  14.494  32.547  0.00  0.00     0.042 H 
BRANCH  28  30
ATOM     30  CG1 3TL d   1      -8.109  16.586  32.005  0.00  0.00    -0.071 C 
ATOM     31  H15 3TL d   1      -7.155  16.779  32.518  0.00  0.00     0.028 H 
ATOM     32  H16 3TL d   1      -8.755  17.473  32.086  0.00  0.00     0.028 H 
ATOM     33  H17 3TL d   1      -7.917  16.367  30.944  0.00  0.00     0.028 H 
ENDBRANCH  28  30
BRANCH  28  34
ATOM     34  CG2 3TL d   1      -9.010  15.649  34.165  0.00  0.00    -0.071 C 
ATOM     35  H18 3TL d   1      -9.510  14.786  34.628  0.00  0.00     0.028 H 
ATOM     36  H19 3TL d   1      -9.631  16.547  34.297  0.00  0.00     0.028 H 
ATOM     37  H20 3TL d   1      -8.032  15.806  34.643  0.00  0.00     0.028 H 
ENDBRANCH  28  34
ENDBRANCH   1  28
BRANCH   1  38
ATOM     38  N2  3TL d   1     -10.781  13.879  32.518  0.00  0.00    -0.346 N 
ATOM     39  C19 3TL d   1     -11.914  13.948  33.225  0.00  0.00     0.240 C 
ATOM     40  O4  3TL d   1     -12.248  15.036  33.677  0.00  0.00    -0.271 OA
ATOM     41  H21 3TL d   1     -10.344  12.991  32.376  0.00  0.00     0.163 HD
BRANCH  39  42
ATOM     42  C18 3TL d   1     -12.674  12.591  33.375  0.00  0.00     0.088 C 
ATOM     43  H22 3TL d   1     -12.461  11.996  32.475  0.00  0.00     0.087 H 
BRANCH  42  44
ATOM     44  C20 3TL d   1     -14.192  12.744  33.501  0.00  0.00    -0.049 C 
ATOM     45  H23 3TL d   1     -14.653  11.751  33.602  0.00  0.00     0.030 H 
ATOM     46  H24 3TL d   1     -14.586  13.242  32.603  0.00  0.00     0.030 H 
ATOM     47  H25 3TL d   1     -14.427  13.350  34.389  0.00  0.00     0.030 H 
ENDBRANCH  42  44
BRANCH  42  48
ATOM     48  N4  3TL d   1     -12.218  11.832  34.564  0.00  0.00    -0.324 N 
ATOM     49  C31 3TL d   1     -12.420  12.170  35.819  0.00  0.00     0.361 C 
ATOM     50  O8  3TL d   1     -13.229  13.036  36.114  0.00  0.00    -0.238 OA
ATOM     51  H26 3TL d   1     -11.711  10.986  34.397  0.00  0.00     0.165 HD
BRANCH  49  52
ATOM     52  O9  3TL d   1     -11.697  11.470  36.734  0.00  0.00    -0.299 OA
BRANCH  52  53
ATOM     53  CA  3TL d   1     -12.427  11.285  37.956  0.00  0.00     0.054 C 
ATOM     54  H27 3TL d   1     -13.326  11.918  37.969  0.00  0.00     0.082 H 
ATOM     55  H28 3TL d   1     -11.796  11.526  38.824  0.00  0.00     0.082 H 
BRANCH  53  56
ATOM     56  C   3TL d   1     -12.811   9.805  37.964  0.00  0.00    -0.034 A 
ATOM     57  C13 3TL d   1     -11.913   8.823  38.419  0.00  0.00    -0.075 A 
ATOM     58  C14 3TL d   1     -12.281   7.459  38.445  0.00  0.00    -0.082 A 
ATOM     59  H29 3TL d   1     -10.925   9.117  38.754  0.00  0.00     0.084 H 
ATOM     60  C15 3TL d   1     -13.542   7.072  37.944  0.00  0.00    -0.083 A 
ATOM     61  H30 3TL d   1     -11.601   6.717  38.846  0.00  0.00     0.083 H 
ATOM     62  C16 3TL d   1     -14.458   8.055  37.513  0.00  0.00    -0.082 A 
ATOM     63  H31 3TL d   1     -13.806   6.022  37.890  0.00  0.00     0.083 H 
ATOM     64  C17 3TL d   1     -14.092   9.416  37.509  0.00  0.00    -0.075 A 
ATOM     65  H32 3TL d   1     -15.448   7.762  37.183  0.00  0.00     0.083 H 
ATOM     66  H33 3TL d   1     -14.793  10.165  37.157  0.00  0.00     0.084 H 
ENDBRANCH  53  56
ENDBRANCH  52  53
ENDBRANCH  49  52
ENDBRANCH  42  48
ENDBRANCH  39  42
ENDBRANCH   1  38
TORSDOF 16
