REMARK  4 active torsions:
REMARK  status: ('A' for Active; 'I' for Inactive)
REMARK    1  A    between atoms: N2_12  and  C5_4 
REMARK    2  A    between atoms: C10_8  and  N5_16 
REMARK    3  A    between atoms: N5_16  and  C11_17 
REMARK    4  A    between atoms: C11_17  and  C12_19 
ROOT
ATOM      1  N1  62D d   1      17.547  17.542  17.313  0.00  0.00    -0.188 N 
ATOM      2  N3  62D d   1      19.534  18.167  17.943  0.00  0.00    -0.063 NA
ATOM      3  C4  62D d   1      18.841  18.011  16.885  0.00  0.00     0.701 A 
ATOM      4  C6  62D d   1      18.825  17.840  19.136  0.00  0.00     0.104 A 
ATOM      5  C7  62D d   1      19.184  17.866  20.444  0.00  0.00    -0.036 A 
ATOM      6  C8  62D d   1      18.117  17.451  21.403  0.00  0.00     0.048 A 
ATOM      7  C10 62D d   1      16.098  16.670  23.116  0.00  0.00     0.680 A 
ATOM      8  C1  62D d   1      16.801  17.043  20.862  0.00  0.00     0.066 A 
ATOM      9  C2  62D d   1      16.493  17.007  19.540  0.00  0.00    -0.027 A 
ATOM     10  C3  62D d   1      17.526  17.431  18.621  0.00  0.00     0.081 A 
ATOM     11  N2  62D d   1      19.153  18.231  15.641  0.00  0.00    -0.229 N 
ATOM     12  C9  62D d   1      18.258  17.453  22.750  0.00  0.00     0.205 A 
ATOM     13  O1  62D d   1      19.371  17.876  23.319  0.00  0.00    -0.171 OA
ATOM     14  N4  62D d   1      17.268  17.128  23.577  0.00  0.00    -0.167 N 
ATOM     15  N6  62D d   1      15.843  16.625  21.839  0.00  0.00    -0.191 N 
ATOM     16  H   62D d   1      16.765  17.329  16.693  0.00  0.00     0.184 HD
ATOM     17  H   62D d   1      20.179  18.168  20.771  0.00  0.00     0.088 H 
ATOM     18  H   62D d   1      15.516  16.675  19.189  0.00  0.00     0.090 H 
ATOM     19  H   62D d   1      20.078  18.605  15.431  0.00  0.00     0.177 HD
ATOM     20  H   62D d   1      17.403  17.230  24.583  0.00  0.00     0.186 HD
ATOM     21  H   62D d   1      14.934  16.282  21.527  0.00  0.00     0.184 HD
ENDROOT
BRANCH   7  22
ATOM     22  N5  62D d   1      15.175  16.313  23.969  0.00  0.00    -0.226 N 
ATOM     23  H   62D d   1      15.421  16.395  24.956  0.00  0.00     0.177 HD
BRANCH  22  24
ATOM     24  C11 62D d   1      13.836  15.811  23.682  0.00  0.00     0.006 C 
ATOM     25  H   62D d   1      13.557  16.061  22.658  0.00  0.00     0.064 H 
ATOM     26  H   62D d   1      13.115  16.268  24.360  0.00  0.00     0.064 H 
BRANCH  24  27
ATOM     27  C12 62D d   1      13.834  14.276  23.868  0.00  0.00    -0.061 C 
ATOM     28  H   62D d   1      14.554  13.827  23.183  0.00  0.00     0.029 H 
ATOM     29  H   62D d   1      14.109  14.035  24.895  0.00  0.00     0.029 H 
ATOM     30  H   62D d   1      12.838  13.887  23.656  0.00  0.00     0.029 H 
ENDBRANCH  24  27
ENDBRANCH  22  24
ENDBRANCH   7  22
BRANCH  11  31
ATOM     31  C5  62D d   1      18.251  17.970  14.542  0.00  0.00    -0.005 C 
ATOM     32  H   62D d   1      17.989  16.912  14.532  0.00  0.00     0.057 H 
ATOM     33  H   62D d   1      17.348  18.568  14.665  0.00  0.00     0.057 H 
ATOM     34  H   62D d   1      18.738  18.233  13.603  0.00  0.00     0.057 H 
ENDBRANCH  11  31
TORSDOF 4
