REMARK  6 active torsions:
REMARK  status: ('A' for Active; 'I' for Inactive)
REMARK    1  A    between atoms: C3_1  and  O3_4 
REMARK    2  A    between atoms: C5_5  and  N9_8 
REMARK    3  A    between atoms: N9_8  and  N13_9 
REMARK    4  A    between atoms: N13_9  and  C14_10 
REMARK    5  A    between atoms: C19_11  and  N16_12 
REMARK    6  A    between atoms: C15_15  and  N18_16 
ROOT
ATOM      1  N9  F18 d   1      51.483 -14.111 -13.637  0.00  0.00    -0.150 NA
ENDROOT
BRANCH   1   2
ATOM      2  C5  F18 d   1      50.151 -14.389 -13.514  0.00  0.00     0.079 A 
ATOM      3  C2  F18 d   1      49.243 -13.368 -13.223  0.00  0.00    -0.051 A 
ATOM      4  C6  F18 d   1      47.905 -13.672 -13.096  0.00  0.00    -0.049 A 
ATOM      5  H   F18 d   1      49.589 -12.342 -13.098  0.00  0.00     0.087 H 
ATOM      6  C3  F18 d   1      47.462 -14.980 -13.260  0.00  0.00     0.065 A 
ATOM      7  H   F18 d   1      47.190 -12.883 -12.866  0.00  0.00     0.087 H 
ATOM      8  C1  F18 d   1      48.363 -15.995 -13.548  0.00  0.00    -0.049 A 
ATOM      9  C4  F18 d   1      49.702 -15.703 -13.673  0.00  0.00    -0.051 A 
ATOM     10  H   F18 d   1      48.012 -17.019 -13.675  0.00  0.00     0.087 H 
ATOM     11  H   F18 d   1      50.414 -16.498 -13.896  0.00  0.00     0.087 H 
BRANCH   6  12
ATOM     12  O3  F18 d   1      46.140 -15.267 -13.126  0.00  0.00    -0.361 OA
ATOM     13  H   F18 d   1      45.638 -14.766 -13.773  0.00  0.00     0.217 HD
ENDBRANCH   6  12
ENDBRANCH   1   2
BRANCH   1  14
ATOM     14  N13 F18 d   1      52.345 -15.070 -13.574  0.00  0.00    -0.142 NA
BRANCH  14  15
ATOM     15  C14 F18 d   1      53.662 -14.812 -13.783  0.00  0.00     0.170 A 
ATOM     16  C19 F18 d   1      54.666 -15.765 -13.919  0.00  0.00     0.150 A 
ATOM     17  N20 F18 d   1      55.825 -15.103 -14.119  0.00  0.00    -0.259 N 
ATOM     18  N17 F18 d   1      55.562 -13.728 -14.109  0.00  0.00    -0.153 NA
ATOM     19  H   F18 d   1      56.740 -15.533 -14.255  0.00  0.00     0.191 HD
ATOM     20  C15 F18 d   1      54.284 -13.538 -13.910  0.00  0.00     0.176 A 
BRANCH  16  21
ATOM     21  N16 F18 d   1      54.501 -17.137 -13.855  0.00  0.00    -0.382 N 
ATOM     22  H   F18 d   1      53.575 -17.532 -13.695  0.00  0.00     0.157 HD
ATOM     23  H   F18 d   1      55.306 -17.753 -13.968  0.00  0.00     0.157 HD
ENDBRANCH  16  21
BRANCH  20  24
ATOM     24  N18 F18 d   1      53.660 -12.294 -13.835  0.00  0.00    -0.381 N 
ATOM     25  H   F18 d   1      54.209 -11.441 -13.938  0.00  0.00     0.157 HD
ATOM     26  H   F18 d   1      52.654 -12.237 -13.677  0.00  0.00     0.157 HD
ENDBRANCH  20  24
ENDBRANCH  14  15
ENDBRANCH   1  14
TORSDOF 6
