REMARK  24 active torsions:
REMARK  status: ('A' for Active; 'I' for Inactive)
REMARK    1  A    between atoms: C6_6  and  C2_2 
REMARK    2  A    between atoms: O7_7  and  C6_6 
REMARK    3  A    between atoms: C10_8  and  O7_7 
REMARK       I    between atoms: N11_10  and  C10_8 
REMARK    4  A    between atoms: C12_11  and  N11_10 
REMARK    5  A    between atoms: C13_12  and  C12_11 
REMARK    6  A    between atoms: C12_11  and  C26_15 
REMARK    7  A    between atoms: C14_13  and  C13_12 
REMARK    8  A    between atoms: C13_12  and  O41_22 
REMARK    9  A    between atoms: C15_14  and  C14_13 
REMARK   10  A    between atoms: C15_14  and  C44_23 
REMARK   11  A    between atoms: N58_30  and  C15_14 
REMARK   12  A    between atoms: C26_15  and  C28_16 
REMARK   13  A    between atoms: C44_23  and  C45_24 
REMARK       I    between atoms: C18_33  and  N58_30 
REMARK   14  A    between atoms: C19_32  and  N20_31 
REMARK       I    between atoms: N20_31  and  C21_38 
REMARK   15  A    between atoms: C19_32  and  C18_33 
REMARK   16  A    between atoms: C19_32  and  C62_35 
REMARK   17  A    between atoms: C62_35  and  C64_36 
REMARK   18  A    between atoms: C62_35  and  C68_37 
REMARK       I    between atoms: C21_38  and  N74_39 
REMARK   19  A    between atoms: N74_39  and  C75_40 
REMARK   20  A    between atoms: N74_39  and  C95_50 
REMARK   21  A    between atoms: C75_40  and  C77_42 
REMARK   22  A    between atoms: C82_45  and  C85_47 
REMARK   23  A    between atoms: C85_47  and  C86_48 
REMARK   24  A    between atoms: C85_47  and  C90_49 
ROOT
ATOM      1  C15 RIT d   1       8.173 -20.347 -25.206  0.00  0.00     0.018 C 
ATOM      2  H   RIT d   1       8.490 -21.390 -25.063  0.00  0.00     0.073 H 
ENDROOT
BRANCH   1   3
ATOM      3  C14 RIT d   1       6.664 -20.320 -25.485  0.00  0.00    -0.020 C 
ATOM      4  H   RIT d   1       6.260 -21.309 -25.222  0.00  0.00     0.040 H 
ATOM      5  H   RIT d   1       6.219 -19.556 -24.831  0.00  0.00     0.040 H 
BRANCH   3   6
ATOM      6  C13 RIT d   1       6.225 -20.007 -26.934  0.00  0.00     0.057 C 
ATOM      7  H   RIT d   1       6.924 -19.266 -27.349  0.00  0.00     0.086 H 
BRANCH   6   8
ATOM      8  C12 RIT d   1       6.191 -21.211 -27.880  0.00  0.00     0.043 C 
ATOM      9  H   RIT d   1       7.218 -21.599 -27.956  0.00  0.00     0.077 H 
BRANCH   8  10
ATOM     10  N11 RIT d   1       5.359 -22.228 -27.257  0.00  0.00    -0.329 N 
ATOM     11  C10 RIT d   1       5.696 -23.498 -27.399  0.00  0.00     0.361 C 
ATOM     12  O24 RIT d   1       6.636 -23.823 -28.124  0.00  0.00    -0.238 OA
ATOM     13  H   RIT d   1       4.548 -21.971 -26.732  0.00  0.00     0.165 HD
BRANCH  11  14
ATOM     14  O7  RIT d   1       4.961 -24.525 -26.673  0.00  0.00    -0.299 OA
BRANCH  14  15
ATOM     15  C6  RIT d   1       5.247 -25.869 -27.009  0.00  0.00     0.061 C 
ATOM     16  H   RIT d   1       5.907 -25.905 -27.888  0.00  0.00     0.083 H 
ATOM     17  H   RIT d   1       5.737 -26.373 -26.162  0.00  0.00     0.083 H 
BRANCH  15  18
ATOM     18  C2  RIT d   1       3.947 -26.536 -27.318  0.00  0.00     0.025 A 
ATOM     19  C1  RIT d   1       2.815 -26.157 -28.033  0.00  0.00     0.017 A 
ATOM     20  N5  RIT d   1       1.848 -27.142 -27.992  0.00  0.00    -0.265 NA
ATOM     21  H   RIT d   1       2.706 -25.208 -28.556  0.00  0.00     0.116 H 
ATOM     22  C4  RIT d   1       2.151 -28.271 -27.287  0.00  0.00     0.040 A 
ATOM     23  S3  RIT d   1       3.729 -28.104 -26.609  0.00  0.00    -0.084 SA
ATOM     24  H   RIT d   1       1.502 -29.137 -27.171  0.00  0.00     0.126 H 
ENDBRANCH  15  18
ENDBRANCH  14  15
ENDBRANCH  11  14
ENDBRANCH   8  10
BRANCH   8  25
ATOM     25  C26 RIT d   1       5.715 -20.926 -29.321  0.00  0.00    -0.020 C 
ATOM     26  H   RIT d   1       6.325 -20.114 -29.743  0.00  0.00     0.043 H 
ATOM     27  H   RIT d   1       4.660 -20.615 -29.292  0.00  0.00     0.043 H 
BRANCH  25  28
ATOM     28  C28 RIT d   1       5.843 -22.155 -30.215  0.00  0.00    -0.056 A 
ATOM     29  C31 RIT d   1       6.997 -22.351 -30.996  0.00  0.00    -0.077 A 
ATOM     30  C32 RIT d   1       7.134 -23.479 -31.830  0.00  0.00    -0.082 A 
ATOM     31  H   RIT d   1       7.796 -21.620 -30.955  0.00  0.00     0.084 H 
ATOM     32  C33 RIT d   1       6.126 -24.442 -31.890  0.00  0.00    -0.083 A 
ATOM     33  H   RIT d   1       8.029 -23.599 -32.429  0.00  0.00     0.083 H 
ATOM     34  C34 RIT d   1       4.974 -24.260 -31.120  0.00  0.00    -0.082 A 
ATOM     35  H   RIT d   1       6.234 -25.316 -32.523  0.00  0.00     0.083 H 
ATOM     36  C35 RIT d   1       4.828 -23.121 -30.289  0.00  0.00    -0.077 A 
ATOM     37  H   RIT d   1       4.182 -24.999 -31.159  0.00  0.00     0.083 H 
ATOM     38  H   RIT d   1       3.924 -22.995 -29.705  0.00  0.00     0.084 H 
ENDBRANCH  25  28
ENDBRANCH   8  25
ENDBRANCH   6   8
BRANCH   6  39
ATOM     39  O41 RIT d   1       4.916 -19.452 -26.890  0.00  0.00    -0.393 OA
ATOM     40  H   RIT d   1       4.628 -19.253 -27.773  0.00  0.00     0.210 HD
ENDBRANCH   6  39
ENDBRANCH   3   6
ENDBRANCH   1   3
BRANCH   1  41
ATOM     41  C44 RIT d   1       8.498 -19.505 -23.959  0.00  0.00    -0.022 C 
ATOM     42  H   RIT d   1       7.729 -19.718 -23.202  0.00  0.00     0.043 H 
ATOM     43  H   RIT d   1       8.445 -18.445 -24.248  0.00  0.00     0.043 H 
BRANCH  41  44
ATOM     44  C45 RIT d   1       9.861 -19.744 -23.317  0.00  0.00    -0.056 A 
ATOM     45  C48 RIT d   1      10.135 -18.994 -22.174  0.00  0.00    -0.077 A 
ATOM     46  C49 RIT d   1      11.334 -19.133 -21.458  0.00  0.00    -0.082 A 
ATOM     47  H   RIT d   1       9.397 -18.280 -21.827  0.00  0.00     0.084 H 
ATOM     48  C50 RIT d   1      12.285 -20.055 -21.889  0.00  0.00    -0.083 A 
ATOM     49  H   RIT d   1      11.518 -18.528 -20.577  0.00  0.00     0.083 H 
ATOM     50  C51 RIT d   1      12.025 -20.822 -23.035  0.00  0.00    -0.082 A 
ATOM     51  H   RIT d   1      13.215 -20.179 -21.346  0.00  0.00     0.083 H 
ATOM     52  C52 RIT d   1      10.822 -20.679 -23.746  0.00  0.00    -0.077 A 
ATOM     53  H   RIT d   1      12.765 -21.537 -23.377  0.00  0.00     0.083 H 
ATOM     54  H   RIT d   1      10.634 -21.287 -24.623  0.00  0.00     0.084 H 
ENDBRANCH  41  44
ENDBRANCH   1  41
BRANCH   1  55
ATOM     55  N58 RIT d   1       8.946 -19.734 -26.251  0.00  0.00    -0.354 N 
ATOM     56  C18 RIT d   1       9.776 -20.321 -27.097  0.00  0.00     0.241 C 
ATOM     57  O61 RIT d   1      10.029 -21.520 -27.218  0.00  0.00    -0.271 OA
ATOM     58  H   RIT d   1       8.844 -18.744 -26.351  0.00  0.00     0.162 HD
BRANCH  56  59
ATOM     59  C19 RIT d   1      10.448 -19.289 -27.936  0.00  0.00     0.093 C 
ATOM     60  H   RIT d   1       9.802 -18.401 -27.994  0.00  0.00     0.088 H 
BRANCH  59  61
ATOM     61  N20 RIT d   1      11.711 -18.927 -27.325  0.00  0.00    -0.329 N 
ATOM     62  C21 RIT d   1      12.161 -17.703 -27.411  0.00  0.00     0.319 C 
ATOM     63  N74 RIT d   1      13.464 -17.499 -27.511  0.00  0.00    -0.333 N 
ATOM     64  O76 RIT d   1      11.406 -16.777 -27.553  0.00  0.00    -0.247 OA
ATOM     65  H   RIT d   1      12.242 -19.618 -26.834  0.00  0.00     0.165 HD
BRANCH  63  66
ATOM     66  C75 RIT d   1      14.071 -16.283 -26.996  0.00  0.00     0.039 C 
ATOM     67  H   RIT d   1      13.516 -15.402 -27.352  0.00  0.00     0.074 H 
ATOM     68  H   RIT d   1      15.119 -16.214 -27.324  0.00  0.00     0.074 H 
BRANCH  66  69
ATOM     69  C77 RIT d   1      14.003 -16.367 -25.506  0.00  0.00     0.060 A 
ATOM     70  C80 RIT d   1      12.833 -16.621 -24.781  0.00  0.00    -0.018 A 
ATOM     71  S81 RIT d   1      13.190 -16.651 -23.090  0.00  0.00    -0.084 SA
ATOM     72  H   RIT d   1      11.847 -16.776 -25.216  0.00  0.00     0.098 H 
ATOM     73  C82 RIT d   1      14.883 -16.335 -23.386  0.00  0.00     0.078 A 
ATOM     74  N83 RIT d   1      15.120 -16.220 -24.725  0.00  0.00    -0.248 NA
BRANCH  73  75
ATOM     75  C85 RIT d   1      15.790 -16.248 -22.211  0.00  0.00    -0.012 C 
ATOM     76  H   RIT d   1      16.249 -17.236 -22.060  0.00  0.00     0.049 H 
BRANCH  75  77
ATOM     77  C86 RIT d   1      15.021 -15.899 -20.930  0.00  0.00    -0.067 C 
ATOM     78  H   RIT d   1      15.723 -15.844 -20.085  0.00  0.00     0.028 H 
ATOM     79  H   RIT d   1      14.268 -16.676 -20.731  0.00  0.00     0.028 H 
ATOM     80  H   RIT d   1      14.521 -14.927 -21.056  0.00  0.00     0.028 H 
ENDBRANCH  75  77
BRANCH  75  81
ATOM     81  C90 RIT d   1      16.916 -15.247 -22.519  0.00  0.00    -0.067 C 
ATOM     82  H   RIT d   1      17.430 -15.547 -23.444  0.00  0.00     0.028 H 
ATOM     83  H   RIT d   1      17.635 -15.237 -21.687  0.00  0.00     0.028 H 
ATOM     84  H   RIT d   1      16.488 -14.242 -22.646  0.00  0.00     0.028 H 
ENDBRANCH  75  81
ENDBRANCH  73  75
ENDBRANCH  66  69
ENDBRANCH  63  66
BRANCH  63  85
ATOM     85  C95 RIT d   1      14.397 -18.406 -28.188  0.00  0.00    -0.014 C 
ATOM     86  H   RIT d   1      13.853 -19.294 -28.543  0.00  0.00     0.056 H 
ATOM     87  H   RIT d   1      15.184 -18.715 -27.484  0.00  0.00     0.056 H 
ATOM     88  H   RIT d   1      14.854 -17.889 -29.045  0.00  0.00     0.056 H 
ENDBRANCH  63  85
ENDBRANCH  59  61
BRANCH  59  89
ATOM     89  C62 RIT d   1      10.713 -19.811 -29.362  0.00  0.00    -0.033 C 
ATOM     90  H   RIT d   1      11.168 -20.807 -29.262  0.00  0.00     0.042 H 
BRANCH  89  91
ATOM     91  C64 RIT d   1       9.427 -19.980 -30.153  0.00  0.00    -0.071 C 
ATOM     92  H   RIT d   1       9.663 -20.353 -31.161  0.00  0.00     0.028 H 
ATOM     93  H   RIT d   1       8.915 -19.010 -30.232  0.00  0.00     0.028 H 
ATOM     94  H   RIT d   1       8.773 -20.700 -29.640  0.00  0.00     0.028 H 
ENDBRANCH  89  91
BRANCH  89  95
ATOM     95  C68 RIT d   1      11.707 -18.933 -30.119  0.00  0.00    -0.071 C 
ATOM     96  H   RIT d   1      12.627 -18.826 -29.526  0.00  0.00     0.028 H 
ATOM     97  H   RIT d   1      11.264 -17.941 -30.290  0.00  0.00     0.028 H 
ATOM     98  H   RIT d   1      11.946 -19.399 -31.086  0.00  0.00     0.028 H 
ENDBRANCH  89  95
ENDBRANCH  59  89
ENDBRANCH  56  59
ENDBRANCH   1  55
TORSDOF 24
