REMARK  6 active torsions:
REMARK  status: ('A' for Active; 'I' for Inactive)
REMARK    1  A    between atoms: C3_1  and  O3_4 
REMARK    2  A    between atoms: C5_5  and  N9_8 
REMARK    3  A    between atoms: N9_8  and  N13_9 
REMARK    4  A    between atoms: N13_9  and  C14_10 
REMARK    5  A    between atoms: C19_11  and  N16_12 
REMARK    6  A    between atoms: C15_15  and  N18_16 
ROOT
ATOM      1  N9  F18 d   1      51.556 -14.412 -12.563  0.00  0.00    -0.150 NA
ENDROOT
BRANCH   1   2
ATOM      2  C5  F18 d   1      50.224 -14.704 -12.455  0.00  0.00     0.079 A 
ATOM      3  C2  F18 d   1      49.331 -13.678 -12.150  0.00  0.00    -0.051 A 
ATOM      4  C6  F18 d   1      47.987 -13.967 -12.062  0.00  0.00    -0.049 A 
ATOM      5  H2  F18 d   1      49.689 -12.668 -11.985  0.00  0.00     0.087 H 
ATOM      6  C3  F18 d   1      47.524 -15.259 -12.274  0.00  0.00     0.065 A 
ATOM      7  H1  F18 d   1      47.283 -13.177 -11.825  0.00  0.00     0.087 H 
ATOM      8  C1  F18 d   1      48.395 -16.296 -12.575  0.00  0.00    -0.049 A 
ATOM      9  C4  F18 d   1      49.745 -16.008 -12.663  0.00  0.00    -0.051 A 
ATOM     10  H5  F18 d   1      48.028 -17.303 -12.737  0.00  0.00     0.087 H 
ATOM     11  H4  F18 d   1      50.445 -16.802 -12.896  0.00  0.00     0.087 H 
BRANCH   6  12
ATOM     12  O3  F18 d   1      46.200 -15.496 -12.181  0.00  0.00    -0.361 OA
ATOM     13  H3  F18 d   1      45.739 -14.966 -12.821  0.00  0.00     0.217 HD
ENDBRANCH   6  12
ENDBRANCH   1   2
BRANCH   1  14
ATOM     14  N13 F18 d   1      52.458 -15.341 -12.642  0.00  0.00    -0.142 NA
BRANCH  14  15
ATOM     15  C14 F18 d   1      53.768 -14.978 -12.745  0.00  0.00     0.170 A 
ATOM     16  C19 F18 d   1      54.879 -15.800 -12.702  0.00  0.00     0.150 A 
ATOM     17  N20 F18 d   1      55.977 -15.027 -12.844  0.00  0.00    -0.259 N 
ATOM     18  N17 F18 d   1      55.560 -13.708 -12.979  0.00  0.00    -0.153 NA
ATOM     19  H8  F18 d   1      56.953 -15.357 -12.851  0.00  0.00     0.191 HD
ATOM     20  C15 F18 d   1      54.253 -13.667 -12.924  0.00  0.00     0.176 A 
BRANCH  16  21
ATOM     21  N16 F18 d   1      54.835 -17.169 -12.550  0.00  0.00    -0.382 N 
ATOM     22  H6  F18 d   1      55.709 -17.713 -12.527  0.00  0.00     0.157 HD
ATOM     23  H7  F18 d   1      53.928 -17.648 -12.459  0.00  0.00     0.157 HD
ENDBRANCH  16  21
BRANCH  20  24
ATOM     24  N18 F18 d   1      53.433 -12.548 -13.042  0.00  0.00    -0.381 N 
ATOM     25  H9  F18 d   1      53.850 -11.615 -13.171  0.00  0.00     0.157 HD
ATOM     26  H10 F18 d   1      52.409 -12.653 -13.000  0.00  0.00     0.157 HD
ENDBRANCH  20  24
ENDBRANCH  14  15
ENDBRANCH   1  14
TORSDOF 6
