REMARK  17 active torsions:
REMARK  status: ('A' for Active; 'I' for Inactive)
REMARK    1  A    between atoms: N1_4  and  C2_2 
REMARK    2  A    between atoms: C4_5  and  N1_4 
REMARK    3  A    between atoms: C5_6  and  C4_5 
REMARK    4  A    between atoms: C6_7  and  C5_6 
REMARK    5  A    between atoms: C5_6  and  O3_11 
REMARK    6  A    between atoms: C6_7  and  N2_8 
REMARK    7  A    between atoms: C8_12  and  C6_7 
REMARK       I    between atoms: N2_8  and  C7_9 
REMARK    8  A    between atoms: C7_9  and  C9_13 
REMARK    9  A    between atoms: C29_32  and  C8_12 
REMARK   10  A    between atoms: C11_15  and  C15_19 
REMARK   11  A    between atoms: C13_17  and  N3_20 
REMARK       I    between atoms: C15_19  and  N4_33 
REMARK   12  A    between atoms: N3_20  and  C16_22 
REMARK   13  A    between atoms: N3_20  and  S1_23 
REMARK   14  A    between atoms: S1_23  and  C23_24 
REMARK   15  A    between atoms: N4_33  and  C17_34 
REMARK   16  A    between atoms: C17_34  and  C18_35 
REMARK   17  A    between atoms: C17_34  and  C30_36 
ROOT
ATOM      1  C9  5HA d   1      29.787  41.516   0.826  0.00  0.00     0.035 C 
ATOM      2  C10 5HA d   1      30.735  42.427   1.327  0.00  0.00    -0.052 C 
ATOM      3  C11 5HA d   1      30.355  43.771   1.430  0.00  0.00     0.035 C 
ATOM      4  C12 5HA d   1      29.086  44.209   0.947  0.00  0.00    -0.041 C 
ATOM      5  C13 5HA d   1      28.150  43.268   0.548  0.00  0.00     0.046 C 
ATOM      6  C14 5HA d   1      28.470  41.947   0.423  0.00  0.00    -0.041 C 
ATOM      7  H   5HA d   1      31.731  42.098   1.625  0.00  0.00     0.086 H 
ATOM      8  H   5HA d   1      28.855  45.273   0.892  0.00  0.00     0.088 H 
ATOM      9  H   5HA d   1      27.747  41.234   0.028  0.00  0.00     0.088 H 
ENDROOT
BRANCH   1  10
ATOM     10  C7  5HA d   1      30.190  40.084   0.769  0.00  0.00     0.252 C 
ATOM     11  N2  5HA d   1      31.001  39.703   1.794  0.00  0.00    -0.349 N 
ATOM     12  H   5HA d   1      31.260  40.396   2.496  0.00  0.00     0.163 HD
ATOM     13  O2  5HA d   1      29.924  39.311  -0.131  0.00  0.00    -0.268 OA
BRANCH  11  14
ATOM     14  C6  5HA d   1      31.515  38.346   1.930  0.00  0.00     0.042 C 
ATOM     15  H   5HA d   1      31.347  37.843   0.978  0.00  0.00     0.077 H 
BRANCH  14  16
ATOM     16  C5  5HA d   1      30.822  37.405   2.906  0.00  0.00     0.078 C 
ATOM     17  H   5HA d   1      30.766  37.863   3.893  0.00  0.00     0.088 H 
BRANCH  16  18
ATOM     18  C4  5HA d   1      29.495  37.092   2.242  0.00  0.00     0.107 C 
ATOM     19  H   5HA d   1      28.914  38.008   2.139  0.00  0.00     0.079 H 
ATOM     20  H   5HA d   1      29.673  36.665   1.255  0.00  0.00     0.079 H 
BRANCH  18  21
ATOM     21  N1  5HA d   1      28.740  36.113   3.081  0.00  0.00    -0.068 N 
ATOM     22  H   5HA d   1      29.366  35.379   3.412  0.00  0.00     0.277 HD
ATOM     23  H   5HA d   1      28.341  36.582   3.894  0.00  0.00     0.277 HD
BRANCH  21  24
ATOM     24  C2  5HA d   1      27.689  35.543   2.271  0.00  0.00     0.102 A 
ATOM     25  C1  5HA d   1      26.345  36.160   2.452  0.00  0.00    -0.036 A 
ATOM     26  C3  5HA d   1      26.737  34.720   3.066  0.00  0.00    -0.036 A 
ATOM     27  H   5HA d   1      25.556  36.641   1.874  0.00  0.00     0.036 H 
ATOM     28  H   5HA d   1      25.886  37.103   2.748  0.00  0.00     0.036 H 
ATOM     29  H   5HA d   1      26.355  33.701   3.127  0.00  0.00     0.036 H 
ATOM     30  H   5HA d   1      26.686  34.164   4.002  0.00  0.00     0.036 H 
ATOM     31  H   5HA d   1      28.286  35.355   1.379  0.00  0.00     0.084 H 
ENDBRANCH  21  24
ENDBRANCH  18  21
ENDBRANCH  16  18
BRANCH  16  32
ATOM     32  O3  5HA d   1      31.510  36.142   3.021  0.00  0.00    -0.392 OA
ATOM     33  H   5HA d   1      32.405  36.294   3.334  0.00  0.00     0.210 HD
ENDBRANCH  16  32
ENDBRANCH  14  16
BRANCH  14  34
ATOM     34  C8  5HA d   1      33.039  38.541   2.371  0.00  0.00    -0.020 C 
ATOM     35  H   5HA d   1      33.552  37.598   2.180  0.00  0.00     0.043 H 
ATOM     36  H   5HA d   1      33.034  38.844   3.418  0.00  0.00     0.043 H 
BRANCH  34  37
ATOM     37  C29 5HA d   1      33.796  39.642   1.580  0.00  0.00    -0.056 A 
ATOM     38  C24 5HA d   1      33.591  39.789   0.223  0.00  0.00    -0.077 A 
ATOM     39  C25 5HA d   1      34.286  40.769  -0.449  0.00  0.00    -0.082 A 
ATOM     40  H   5HA d   1      32.892  39.141  -0.306  0.00  0.00     0.084 H 
ATOM     41  C26 5HA d   1      35.145  41.685   0.202  0.00  0.00    -0.083 A 
ATOM     42  H   5HA d   1      34.169  40.842  -1.530  0.00  0.00     0.083 H 
ATOM     43  C27 5HA d   1      35.323  41.539   1.596  0.00  0.00    -0.082 A 
ATOM     44  H   5HA d   1      35.652  42.475  -0.352  0.00  0.00     0.083 H 
ATOM     45  C28 5HA d   1      34.587  40.513   2.266  0.00  0.00    -0.077 A 
ATOM     46  H   5HA d   1      36.003  42.191   2.145  0.00  0.00     0.083 H 
ATOM     47  H   5HA d   1      34.660  40.426   3.350  0.00  0.00     0.084 H 
ENDBRANCH  34  37
ENDBRANCH  14  34
ENDBRANCH  11  14
ENDBRANCH   1  10
BRANCH   3  48
ATOM     48  C15 5HA d   1      31.315  44.810   1.926  0.00  0.00     0.252 C 
ATOM     49  O4  5HA d   1      31.464  45.942   1.420  0.00  0.00    -0.268 OA
ATOM     50  N4  5HA d   1      32.078  44.306   2.978  0.00  0.00    -0.349 N 
ATOM     51  H   5HA d   1      31.944  43.352   3.312  0.00  0.00     0.163 HD
BRANCH  50  52
ATOM     52  C17 5HA d   1      33.083  45.187   3.595  0.00  0.00     0.034 C 
ATOM     53  H   5HA d   1      33.214  46.069   2.968  0.00  0.00     0.079 H 
BRANCH  52  54
ATOM     54  C18 5HA d   1      34.423  44.413   3.751  0.00  0.00    -0.053 C 
ATOM     55  H   5HA d   1      34.265  43.540   4.385  0.00  0.00     0.030 H 
ATOM     56  H   5HA d   1      34.773  44.093   2.769  0.00  0.00     0.030 H 
ATOM     57  H   5HA d   1      35.167  45.066   4.208  0.00  0.00     0.030 H 
ENDBRANCH  52  54
BRANCH  52  58
ATOM     58  C30 5HA d   1      32.619  45.573   4.996  0.00  0.00    -0.036 A 
ATOM     59  C31 5HA d   1      32.193  44.587   5.923  0.00  0.00    -0.075 A 
ATOM     60  C32 5HA d   1      31.796  45.012   7.201  0.00  0.00    -0.082 A 
ATOM     61  H   5HA d   1      32.175  43.532   5.651  0.00  0.00     0.084 H 
ATOM     62  C33 5HA d   1      31.665  46.350   7.564  0.00  0.00    -0.083 A 
ATOM     63  H   5HA d   1      31.578  44.252   7.951  0.00  0.00     0.083 H 
ATOM     64  C34 5HA d   1      32.041  47.289   6.600  0.00  0.00    -0.082 A 
ATOM     65  H   5HA d   1      31.291  46.648   8.543  0.00  0.00     0.083 H 
ATOM     66  C35 5HA d   1      32.499  46.899   5.343  0.00  0.00    -0.075 A 
ATOM     67  H   5HA d   1      31.974  48.351   6.837  0.00  0.00     0.083 H 
ATOM     68  H   5HA d   1      32.769  47.664   4.616  0.00  0.00     0.084 H 
ENDBRANCH  52  58
ENDBRANCH  50  52
ENDBRANCH   3  48
BRANCH   5  69
ATOM     69  N3  5HA d   1      26.817  43.597   0.117  0.00  0.00    -0.281 N 
BRANCH  69  70
ATOM     70  C16 5HA d   1      26.155  42.810  -0.981  0.00  0.00    -0.004 C 
ATOM     71  H   5HA d   1      26.749  42.888  -1.891  0.00  0.00     0.058 H 
ATOM     72  H   5HA d   1      26.081  41.764  -0.683  0.00  0.00     0.058 H 
ATOM     73  H   5HA d   1      25.157  43.209  -1.161  0.00  0.00     0.058 H 
ENDBRANCH  69  70
BRANCH  69  74
ATOM     74  S1  5HA d   1      25.986  44.796   0.796  0.00  0.00     0.228 S 
ATOM     75  O5  5HA d   1      24.595  44.444   0.708  0.00  0.00    -0.206 OA
ATOM     76  O6  5HA d   1      26.545  45.060   2.122  0.00  0.00    -0.206 OA
BRANCH  74  77
ATOM     77  C23 5HA d   1      26.303  46.237  -0.169  0.00  0.00     0.033 C 
ATOM     78  H   5HA d   1      26.047  46.039  -1.210  0.00  0.00     0.051 H 
ATOM     79  H   5HA d   1      25.698  47.063   0.205  0.00  0.00     0.051 H 
ATOM     80  H   5HA d   1      27.359  46.496  -0.096  0.00  0.00     0.051 H 
ENDBRANCH  74  77
ENDBRANCH  69  74
ENDBRANCH   5  69
TORSDOF 17
