REMARK  17 active torsions:
REMARK  status: ('A' for Active; 'I' for Inactive)
REMARK    1  A    between atoms: N1_4  and  C2_2 
REMARK    2  A    between atoms: C4_5  and  N1_4 
REMARK    3  A    between atoms: C5_6  and  C4_5 
REMARK    4  A    between atoms: C6_7  and  C5_6 
REMARK    5  A    between atoms: C5_6  and  O3_11 
REMARK    6  A    between atoms: C6_7  and  N2_8 
REMARK    7  A    between atoms: C8_12  and  C6_7 
REMARK       I    between atoms: N2_8  and  C7_9 
REMARK    8  A    between atoms: C7_9  and  C9_13 
REMARK    9  A    between atoms: C29_32  and  C8_12 
REMARK   10  A    between atoms: C11_15  and  C15_19 
REMARK   11  A    between atoms: C13_17  and  N3_20 
REMARK       I    between atoms: C15_19  and  N4_33 
REMARK   12  A    between atoms: N3_20  and  C16_22 
REMARK   13  A    between atoms: N3_20  and  S1_23 
REMARK   14  A    between atoms: S1_23  and  C23_24 
REMARK   15  A    between atoms: N4_33  and  C17_34 
REMARK   16  A    between atoms: C17_34  and  C18_35 
REMARK   17  A    between atoms: C17_34  and  C30_36 
ROOT
ATOM      1  C9  5HA d   1      69.734  45.386   7.661  0.00  0.00     0.035 A 
ATOM      2  C10 5HA d   1      70.814  45.512   6.786  0.00  0.00    -0.052 A 
ATOM      3  C11 5HA d   1      71.381  44.395   6.189  0.00  0.00     0.035 A 
ATOM      4  C12 5HA d   1      70.867  43.105   6.402  0.00  0.00    -0.041 A 
ATOM      5  C13 5HA d   1      69.793  42.985   7.324  0.00  0.00     0.046 A 
ATOM      6  C14 5HA d   1      69.221  44.129   7.931  0.00  0.00    -0.041 A 
ATOM      7  H16 5HA d   1      71.215  46.495   6.570  0.00  0.00     0.086 H 
ATOM      8  H17 5HA d   1      71.271  42.241   5.887  0.00  0.00     0.088 H 
ATOM      9  H18 5HA d   1      68.381  44.020   8.607  0.00  0.00     0.088 H 
ENDROOT
BRANCH   1  10
ATOM     10  C7  5HA d   1      69.049  46.613   8.286  0.00  0.00     0.252 C 
ATOM     11  N2  5HA d   1      68.951  47.667   7.450  0.00  0.00    -0.349 N 
ATOM     12  H12 5HA d   1      69.306  47.599   6.518  0.00  0.00     0.163 HD
ATOM     13  O2  5HA d   1      68.416  46.513   9.343  0.00  0.00    -0.268 OA
BRANCH  11  14
ATOM     14  C6  5HA d   1      68.316  48.929   7.912  0.00  0.00     0.042 C 
ATOM     15  H11 5HA d   1      68.341  48.946   9.012  0.00  0.00     0.077 H 
BRANCH  14  16
ATOM     16  C5  5HA d   1      66.902  49.040   7.485  0.00  0.00     0.078 C 
ATOM     17  H10 5HA d   1      66.826  48.941   6.392  0.00  0.00     0.088 H 
BRANCH  16  18
ATOM     18  C4  5HA d   1      66.149  47.903   8.150  0.00  0.00     0.107 C 
ATOM     19  H8  5HA d   1      66.411  46.949   7.668  0.00  0.00     0.079 H 
ATOM     20  H9  5HA d   1      66.408  47.858   9.218  0.00  0.00     0.079 H 
BRANCH  18  21
ATOM     21  N1  5HA d   1      64.725  48.159   7.997  0.00  0.00    -0.068 N 
ATOM     22  H6  5HA d   1      64.523  49.111   8.260  0.00  0.00     0.277 HD
ATOM     23  H7  5HA d   1      64.457  48.012   7.037  0.00  0.00     0.277 HD
BRANCH  21  24
ATOM     24  C2  5HA d   1      63.969  47.234   8.869  0.00  0.00     0.102 A 
ATOM     25  C1  5HA d   1      62.484  47.510   8.855  0.00  0.00    -0.036 A 
ATOM     26  C3  5HA d   1      63.296  47.927  10.070  0.00  0.00    -0.036 A 
ATOM     27  H1  5HA d   1      61.772  46.675   8.934  0.00  0.00     0.036 H 
ATOM     28  H2  5HA d   1      62.077  48.277   8.180  0.00  0.00     0.036 H 
ATOM     29  H4  5HA d   1      63.179  47.390  11.023  0.00  0.00     0.036 H 
ATOM     30  H5  5HA d   1      63.484  48.992  10.270  0.00  0.00     0.036 H 
ATOM     31  H3  5HA d   1      64.400  46.223   8.920  0.00  0.00     0.084 H 
ENDBRANCH  21  24
ENDBRANCH  18  21
ENDBRANCH  16  18
BRANCH  16  32
ATOM     32  O3  5HA d   1      66.404  50.321   7.876  0.00  0.00    -0.392 OA
ATOM     33  H13 5HA d   1      66.921  51.001   7.460  0.00  0.00     0.210 HD
ENDBRANCH  16  32
ENDBRANCH  14  16
BRANCH  14  34
ATOM     34  C8  5HA d   1      69.106  50.084   7.398  0.00  0.00    -0.020 C 
ATOM     35  H14 5HA d   1      68.789  50.997   7.924  0.00  0.00     0.043 H 
ATOM     36  H15 5HA d   1      68.916  50.197   6.321  0.00  0.00     0.043 H 
BRANCH  34  37
ATOM     37  C29 5HA d   1      70.630  49.874   7.623  0.00  0.00    -0.056 A 
ATOM     38  C24 5HA d   1      71.164  49.831   8.903  0.00  0.00    -0.077 A 
ATOM     39  C25 5HA d   1      72.540  49.669   9.070  0.00  0.00    -0.082 A 
ATOM     40  H25 5HA d   1      70.517  49.923   9.768  0.00  0.00     0.084 H 
ATOM     41  C26 5HA d   1      73.409  49.537   8.002  0.00  0.00    -0.083 A 
ATOM     42  H26 5HA d   1      72.944  49.646  10.076  0.00  0.00     0.083 H 
ATOM     43  C27 5HA d   1      72.855  49.597   6.746  0.00  0.00    -0.082 A 
ATOM     44  H27 5HA d   1      74.473  49.394   8.149  0.00  0.00     0.083 H 
ATOM     45  C28 5HA d   1      71.489  49.753   6.561  0.00  0.00    -0.077 A 
ATOM     46  H28 5HA d   1      73.501  49.521   5.879  0.00  0.00     0.083 H 
ATOM     47  H29 5HA d   1      71.091  49.780   5.553  0.00  0.00     0.084 H 
ENDBRANCH  34  37
ENDBRANCH  14  34
ENDBRANCH  11  14
ENDBRANCH   1  10
BRANCH   3  48
ATOM     48  C15 5HA d   1      72.490  44.660   5.230  0.00  0.00     0.252 C 
ATOM     49  O4  5HA d   1      73.223  43.838   4.748  0.00  0.00    -0.268 OA
ATOM     50  N4  5HA d   1      72.459  45.820   4.656  0.00  0.00    -0.349 N 
ATOM     51  H30 5HA d   1      71.760  46.505   4.864  0.00  0.00     0.163 HD
BRANCH  50  52
ATOM     52  C17 5HA d   1      73.501  46.049   3.700  0.00  0.00     0.034 C 
ATOM     53  H31 5HA d   1      74.255  45.250   3.744  0.00  0.00     0.079 H 
BRANCH  52  54
ATOM     54  C18 5HA d   1      74.118  47.372   4.146  0.00  0.00    -0.053 C 
ATOM     55  H32 5HA d   1      74.940  47.641   3.466  0.00  0.00     0.030 H 
ATOM     56  H33 5HA d   1      74.507  47.269   5.170  0.00  0.00     0.030 H 
ATOM     57  H34 5HA d   1      73.351  48.160   4.123  0.00  0.00     0.030 H 
ENDBRANCH  52  54
BRANCH  52  58
ATOM     58  C30 5HA d   1      72.905  46.087   2.298  0.00  0.00    -0.036 A 
ATOM     59  C31 5HA d   1      71.706  46.736   2.044  0.00  0.00    -0.075 A 
ATOM     60  C32 5HA d   1      71.219  46.749   0.705  0.00  0.00    -0.082 A 
ATOM     61  H35 5HA d   1      71.155  47.220   2.842  0.00  0.00     0.084 H 
ATOM     62  C33 5HA d   1      71.893  46.132  -0.333  0.00  0.00    -0.083 A 
ATOM     63  H36 5HA d   1      70.287  47.261   0.492  0.00  0.00     0.083 H 
ATOM     64  C34 5HA d   1      73.093  45.490  -0.054  0.00  0.00    -0.082 A 
ATOM     65  H37 5HA d   1      71.494  46.149  -1.341  0.00  0.00     0.083 H 
ATOM     66  C35 5HA d   1      73.603  45.476   1.253  0.00  0.00    -0.075 A 
ATOM     67  H38 5HA d   1      73.638  44.997  -0.851  0.00  0.00     0.083 H 
ATOM     68  H39 5HA d   1      74.549  44.986   1.454  0.00  0.00     0.084 H 
ENDBRANCH  52  58
ENDBRANCH  50  52
ENDBRANCH   3  48
BRANCH   5  69
ATOM     69  N3  5HA d   1      69.129  41.832   7.598  0.00  0.00    -0.281 N 
BRANCH  69  70
ATOM     70  C16 5HA d   1      68.893  41.482   9.027  0.00  0.00    -0.004 C 
ATOM     71  H19 5HA d   1      68.714  42.401   9.605  0.00  0.00     0.058 H 
ATOM     72  H20 5HA d   1      69.776  40.963   9.428  0.00  0.00     0.058 H 
ATOM     73  H21 5HA d   1      68.015  40.824   9.103  0.00  0.00     0.058 H 
ENDBRANCH  69  70
BRANCH  69  74
ATOM     74  S1  5HA d   1      69.404  40.494   6.680  0.00  0.00     0.228 S 
ATOM     75  O5  5HA d   1      68.180  39.660   7.008  0.00  0.00    -0.206 OA
ATOM     76  O6  5HA d   1      69.608  40.722   5.188  0.00  0.00    -0.206 OA
BRANCH  74  77
ATOM     77  C23 5HA d   1      70.884  39.615   7.222  0.00  0.00     0.033 C 
ATOM     78  H22 5HA d   1      71.037  38.729   6.588  0.00  0.00     0.051 H 
ATOM     79  H23 5HA d   1      70.761  39.300   8.269  0.00  0.00     0.051 H 
ATOM     80  H24 5HA d   1      71.756  40.280   7.139  0.00  0.00     0.051 H 
ENDBRANCH  74  77
ENDBRANCH  69  74
ENDBRANCH   5  69
TORSDOF 17
