REMARK WARNING: 32 MAX_TORS EXCEEDED!!!
REMARK  54 active torsions:
REMARK  status: ('A' for Active; 'I' for Inactive)
REMARK    1  A    between atoms: CA_2  and  N_1 
REMARK    2  A    between atoms: CA_2  and  CB_3 
REMARK    3  A    between atoms: C_4  and  CA_2 
REMARK       I    between atoms: N_6  and  C_4 
REMARK    4  A    between atoms: CA_7  and  N_6 
REMARK    5  A    between atoms: CA_7  and  CB_8 
REMARK    6  A    between atoms: C_18  and  CA_7 
REMARK    7  A    between atoms: CB_8  and  CG_9 
REMARK       I    between atoms: N_20  and  C_18 
REMARK    8  A    between atoms: CA_21  and  N_20 
REMARK    9  A    between atoms: C_22  and  CA_21 
REMARK   10  A    between atoms: CA_21  and  CB_24 
REMARK       I    between atoms: N_32  and  C_22 
REMARK   11  A    between atoms: CB_24  and  CG_25 
REMARK   12  A    between atoms: CZ_30  and  OH_31 
REMARK   13  A    between atoms: CA_33  and  N_32 
REMARK   14  A    between atoms: CA_33  and  CB_34 
REMARK   15  A    between atoms: C_35  and  CA_33 
REMARK       I    between atoms: N_37  and  C_35 
REMARK   16  A    between atoms: CA_38  and  N_37 
REMARK   17  A    between atoms: C_39  and  CA_38 
REMARK   18  A    between atoms: CA_38  and  CB_41 
REMARK       I    between atoms: N_46  and  C_39 
REMARK   19  A    between atoms: CB_41  and  CG_42 
REMARK       I    between atoms: CG_42  and  ND2_44 
REMARK   20  A    between atoms: CA_48  and  C_45 
REMARK       I    between atoms: C_45  and  N_60 
REMARK   21  A    between atoms: CA_48  and  N_46 
REMARK   22  A    between atoms: CB_49  and  CA_48 
REMARK   23  A    between atoms: CG_50  and  CB_49 
REMARK   24  A    between atoms: CZ_51  and  C13_52 
REMARK   25  A    between atoms: N_60  and  CA_61 
REMARK   26  A    between atoms: CA_61  and  C_62 
REMARK   27  A    between atoms: CA_61  and  CB_64 
REMARK       I    between atoms: C_62  and  N_69 
REMARK   28  A    between atoms: CB_64  and  CG_65 
REMARK   29  A    between atoms: CG_65  and  CD_66 
REMARK   30  A    between atoms: N_69  and  CA_70 
REMARK   31  A    between atoms: CA_70  and  C_71 
REMARK   32  A    between atoms: CA_70  and  CB_73 
REMARK       I    between atoms: C_71  and  N_78 
REMARK   33  A    between atoms: CB_73  and  CG_74 
REMARK   34  A    between atoms: CG_74  and  CD_75 
REMARK   35  A    between atoms: CD_75  and  CE_76 
REMARK   36  A    between atoms: CE_76  and  NZ_77 
REMARK   37  A    between atoms: N_78  and  CA_79 
REMARK   38  A    between atoms: CA_79  and  CB_80 
REMARK   39  A    between atoms: CA_79  and  C_84 
REMARK   40  A    between atoms: CB_80  and  CG_81 
REMARK   41  A    between atoms: CG_81  and  CD1_82 
REMARK   42  A    between atoms: CG_81  and  CD2_83 
REMARK       I    between atoms: C_84  and  N_86 
REMARK   43  A    between atoms: N_86  and  CA_87 
REMARK   44  A    between atoms: CA_87  and  CB_88 
REMARK   45  A    between atoms: CA_87  and  C_92 
REMARK   46  A    between atoms: CB_88  and  CG_89 
REMARK   47  A    between atoms: CG_89  and  CD1_90 
REMARK   48  A    between atoms: CG_89  and  CD2_91 
REMARK       I    between atoms: C_92  and  N_94 
REMARK   49  A    between atoms: N_94  and  CA_95 
REMARK   50  A    between atoms: CA_95  and  CB_96 
REMARK   51  A    between atoms: CA_95  and  C_103 
REMARK   52  A    between atoms: CB_96  and  CG_97 
REMARK   53  A    between atoms: CG_97  and  CD_98 
REMARK   54  A    between atoms: CD_98  and  NE_99 
REMARK       I    between atoms: NE_99  and  CZ_100 
REMARK       I    between atoms: CZ_100  and  NH1_101 
ROOT
ATOM      1  C   TDF d   1      27.748 -43.214  -2.676  0.00  0.00     0.241 C 
ATOM      2  O   TDF d   1      26.901 -42.433  -2.258  0.00  0.00    -0.271 OA
ATOM      3  N   DGL d   1      27.766 -43.618  -3.934  0.00  0.00    -0.346 N 
ATOM      4  H   DGL d   1      28.500 -44.259  -4.235  0.00  0.00     0.163 HD
ENDROOT
BRANCH   1   5
ATOM      5  CA  TDF d   1      28.773 -43.753  -1.656  0.00  0.00     0.093 C 
ATOM      6  H   TDF d   1      28.738 -43.108  -0.778  0.00  0.00     0.088 H 
BRANCH   5   7
ATOM      7  N   TDF d   1      30.125 -43.773  -2.309  0.00  0.00    -0.346 N 
ATOM      8  C   DSG d   1      30.661 -42.596  -2.757  0.00  0.00     0.241 C 
ATOM      9  O   DSG d   1      30.214 -41.454  -2.528  0.00  0.00    -0.271 OA
ATOM     10  H   TDF d   1      30.636 -44.649  -2.417  0.00  0.00     0.163 HD
BRANCH   8  11
ATOM     11  CA  DSG d   1      32.081 -42.688  -3.396  0.00  0.00     0.097 C 
ATOM     12  H   DSG d   1      32.289 -41.852  -4.063  0.00  0.00     0.088 H 
BRANCH  11  13
ATOM     13  N   DSG d   1      32.107 -43.946  -4.131  0.00  0.00    -0.346 N 
ATOM     14  C   DAL d   1      31.485 -44.086  -5.392  0.00  0.00     0.240 C 
ATOM     15  O   DAL d   1      30.571 -43.263  -5.765  0.00  0.00    -0.271 OA
ATOM     16  H   DSG d   1      32.588 -44.748  -3.724  0.00  0.00     0.163 HD
BRANCH  14  17
ATOM     17  CA  DAL d   1      31.629 -45.397  -6.108  0.00  0.00     0.086 C 
ATOM     18  H   DAL d   1      30.868 -45.471  -6.885  0.00  0.00     0.086 H 
BRANCH  17  19
ATOM     19  N   DAL d   1      31.465 -46.547  -5.159  0.00  0.00    -0.346 N 
ATOM     20  C   DTY d   1      30.261 -46.728  -4.474  0.00  0.00     0.241 C 
ATOM     21  O   DTY d   1      29.406 -45.789  -4.495  0.00  0.00    -0.271 OA
ATOM     22  H   DAL d   1      32.236 -47.199  -5.013  0.00  0.00     0.163 HD
BRANCH  20  23
ATOM     23  CA  DTY d   1      30.043 -48.008  -3.659  0.00  0.00     0.093 C 
ATOM     24  H   DTY d   1      30.120 -47.754  -2.602  0.00  0.00     0.088 H 
BRANCH  23  25
ATOM     25  N   DTY d   1      31.047 -49.023  -4.059  0.00  0.00    -0.346 N 
ATOM     26  C   DTR d   1      32.203 -49.159  -3.167  0.00  0.00     0.241 C 
ATOM     27  O   DTR d   1      32.519 -48.352  -2.303  0.00  0.00    -0.271 OA
ATOM     28  H   DTY d   1      30.941 -49.590  -4.900  0.00  0.00     0.163 HD
BRANCH  26  29
ATOM     29  CA  DTR d   1      32.955 -50.484  -3.306  0.00  0.00     0.093 C 
ATOM     30  H   DTR d   1      34.011 -50.344  -3.073  0.00  0.00     0.088 H 
BRANCH  29  31
ATOM     31  N   DTR d   1      32.878 -50.934  -4.680  0.00  0.00    -0.346 N 
ATOM     32  C   DAL d   1      33.275 -50.121  -5.661  0.00  0.00     0.248 C 
ATOM     33  O   DAL d   1      33.641 -48.928  -5.460  0.00  0.00    -0.271 OA
ATOM     34  H   DTR d   1      32.523 -51.865  -4.896  0.00  0.00     0.163 HD
BRANCH  32  35
ATOM     35  CA  DAL d   1      33.246 -50.615  -7.109  0.00  0.00     0.172 C 
ATOM     36  H   DAL d   1      32.836 -49.804  -7.711  0.00  0.00     0.098 H 
BRANCH  35  37
ATOM     37  N   DAL d   1      32.365 -51.797  -7.269  0.00  0.00    -0.067 N 
ATOM     38  H   DAL d   1      32.372 -52.095  -8.244  0.00  0.00     0.275 HD
ATOM     39  H   DAL d   1      32.705 -52.555  -6.678  0.00  0.00     0.275 HD
ATOM     40  H   DAL d   1      31.414 -51.550  -6.995  0.00  0.00     0.275 HD
ENDBRANCH  35  37
BRANCH  35  41
ATOM     41  CB  DAL d   1      34.674 -50.939  -7.624  0.00  0.00    -0.042 C 
ATOM     42  H   DAL d   1      35.289 -50.040  -7.576  0.00  0.00     0.030 H 
ATOM     43  H   DAL d   1      35.116 -51.717  -7.001  0.00  0.00     0.030 H 
ATOM     44  H   DAL d   1      34.617 -51.287  -8.655  0.00  0.00     0.030 H 
ENDBRANCH  35  41
ENDBRANCH  32  35
ENDBRANCH  29  31
BRANCH  29  45
ATOM     45  CB  DTR d   1      32.453 -51.517  -2.280  0.00  0.00    -0.012 C 
ATOM     46  H   DTR d   1      32.710 -51.151  -1.286  0.00  0.00     0.044 H 
ATOM     47  H   DTR d   1      32.921 -52.473  -2.514  0.00  0.00     0.044 H 
BRANCH  45  48
ATOM     48  CG  DTR d   1      30.914 -51.718  -2.328  0.00  0.00    -0.028 A 
ATOM     49  CD1 DTR d   1      30.324 -52.675  -3.052  0.00  0.00    -0.015 A 
ATOM     50  NE1 DTR d   1      28.964 -52.575  -2.845  0.00  0.00    -0.365 N 
ATOM     51  H   DTR d   1      30.827 -53.402  -3.690  0.00  0.00     0.112 H 
ATOM     52  CE2 DTR d   1      28.697 -51.563  -2.005  0.00  0.00     0.042 A 
ATOM     53  H   DTR d   1      28.263 -53.182  -3.269  0.00  0.00     0.165 HD
ATOM     54  CZ2 DTR d   1      27.486 -51.084  -1.480  0.00  0.00    -0.056 A 
ATOM     55  CD2 DTR d   1      29.950 -50.994  -1.647  0.00  0.00    -0.002 A 
ATOM     56  CH2 DTR d   1      27.487 -49.979  -0.604  0.00  0.00    -0.081 A 
ATOM     57  H   DTR d   1      26.546 -51.566  -1.749  0.00  0.00     0.086 H 
ATOM     58  CZ3 DTR d   1      28.758 -49.397  -0.245  0.00  0.00    -0.082 A 
ATOM     59  H   DTR d   1      26.554 -49.576  -0.209  0.00  0.00     0.083 H 
ATOM     60  CE3 DTR d   1      29.957 -49.913  -0.748  0.00  0.00    -0.070 A 
ATOM     61  H   DTR d   1      28.784 -48.541   0.429  0.00  0.00     0.083 H 
ATOM     62  H   DTR d   1      30.905 -49.473  -0.440  0.00  0.00     0.084 H 
ENDBRANCH  45  48
ENDBRANCH  29  45
ENDBRANCH  26  29
ENDBRANCH  23  25
BRANCH  23  63
ATOM     63  CB  DTY d   1      28.696 -48.603  -3.984  0.00  0.00    -0.014 C 
ATOM     64  H   DTY d   1      27.945 -47.824  -3.855  0.00  0.00     0.043 H 
ATOM     65  H   DTY d   1      28.535 -49.453  -3.321  0.00  0.00     0.043 H 
BRANCH  63  66
ATOM     66  CG  DTY d   1      28.609 -49.112  -5.441  0.00  0.00    -0.056 A 
ATOM     67  CD1 DTY d   1      28.330 -50.459  -5.643  0.00  0.00    -0.074 A 
ATOM     68  CE1 DTY d   1      28.248 -51.005  -6.932  0.00  0.00    -0.051 A 
ATOM     69  H   DTY d   1      28.171 -51.105  -4.780  0.00  0.00     0.084 H 
ATOM     70  CZ  DTY d   1      28.439 -50.160  -8.033  0.00  0.00     0.065 A 
ATOM     71  H   DTY d   1      28.040 -52.065  -7.074  0.00  0.00     0.087 H 
ATOM     72  CE2 DTY d   1      28.725 -48.802  -7.851  0.00  0.00    -0.051 A 
ATOM     73  CD2 DTY d   1      28.810 -48.277  -6.553  0.00  0.00    -0.074 A 
ATOM     74  H   DTY d   1      28.881 -48.155  -8.714  0.00  0.00     0.087 H 
ATOM     75  H   DTY d   1      29.032 -47.220  -6.407  0.00  0.00     0.084 H 
BRANCH  70  76
ATOM     76  OH  DTY d   1      28.348 -50.694  -9.287  0.00  0.00    -0.361 OA
ATOM     77  H   DTY d   1      27.650 -50.249  -9.773  0.00  0.00     0.217 HD
ENDBRANCH  70  76
ENDBRANCH  63  66
ENDBRANCH  23  63
ENDBRANCH  20  23
ENDBRANCH  17  19
BRANCH  17  78
ATOM     78  CB  DAL d   1      33.089 -45.455  -6.695  0.00  0.00    -0.049 C 
ATOM     79  H   DAL d   1      33.810 -45.378  -5.881  0.00  0.00     0.030 H 
ATOM     80  H   DAL d   1      33.231 -46.400  -7.220  0.00  0.00     0.030 H 
ATOM     81  H   DAL d   1      33.233 -44.627  -7.389  0.00  0.00     0.030 H 
ENDBRANCH  17  78
ENDBRANCH  14  17
ENDBRANCH  11  13
BRANCH  11  82
ATOM     82  CB  DSG d   1      33.140 -42.645  -2.316  0.00  0.00     0.036 C 
ATOM     83  H   DSG d   1      34.121 -42.766  -2.775  0.00  0.00     0.051 H 
ATOM     84  H   DSG d   1      32.953 -43.448  -1.603  0.00  0.00     0.051 H 
BRANCH  82  85
ATOM     85  CG  DSG d   1      33.096 -41.303  -1.579  0.00  0.00     0.217 C 
ATOM     86  OD1 DSG d   1      33.105 -40.250  -2.234  0.00  0.00    -0.274 OA
ATOM     87  ND2 DSG d   1      32.919 -41.360  -0.233  0.00  0.00    -0.370 N 
ATOM     88  H   DSG d   1      32.783 -40.501   0.300  0.00  0.00     0.159 HD
ATOM     89  H   DSG d   1      32.923 -42.261   0.244  0.00  0.00     0.159 HD
ENDBRANCH  82  85
ENDBRANCH  11  82
ENDBRANCH   8  11
ENDBRANCH   5   7
BRANCH   5  90
ATOM     90  CB  TDF d   1      28.464 -45.185  -1.240  0.00  0.00    -0.014 C 
ATOM     91  H   TDF d   1      29.258 -45.488  -0.557  0.00  0.00     0.043 H 
ATOM     92  H   TDF d   1      28.389 -45.766  -2.159  0.00  0.00     0.043 H 
BRANCH  90  93
ATOM     93  CG  TDF d   1      27.136 -45.384  -0.485  0.00  0.00    -0.056 A 
ATOM     94  CD1 TDF d   1      26.153 -46.222  -1.084  0.00  0.00    -0.076 A 
ATOM     95  CE1 TDF d   1      24.920 -46.452  -0.409  0.00  0.00    -0.068 A 
ATOM     96  H   TDF d   1      26.343 -46.684  -2.053  0.00  0.00     0.084 H 
ATOM     97  CZ  TDF d   1      24.717 -45.859   0.870  0.00  0.00     0.047 A 
ATOM     98  H   TDF d   1      24.146 -47.071  -0.863  0.00  0.00     0.084 H 
ATOM     99  CE2 TDF d   1      25.733 -45.014   1.471  0.00  0.00    -0.068 A 
ATOM    100  CD2 TDF d   1      26.939 -44.798   0.758  0.00  0.00    -0.076 A 
ATOM    101  H   TDF d   1      25.572 -44.556   2.447  0.00  0.00     0.084 H 
ATOM    102  H   TDF d   1      27.717 -44.167   1.189  0.00  0.00     0.084 H 
BRANCH  97 103
ATOM    103  C13 TDF d   1      23.477 -46.070   1.648  0.00  0.00     0.417 C 
ATOM    104  F19 TDF d   1      23.675 -46.870   2.709  0.00  0.00    -0.166 F 
ATOM    105  F20 TDF d   1      23.029 -44.981   2.152  0.00  0.00    -0.166 F 
ATOM    106  F21 TDF d   1      22.508 -46.701   0.942  0.00  0.00    -0.166 F 
ENDBRANCH  97 103
ENDBRANCH  90  93
ENDBRANCH   5  90
ENDBRANCH   1   5
BRANCH   3 107
ATOM    107  CA  DGL d   1      26.742 -43.166  -4.936  0.00  0.00     0.090 C 
ATOM    108  H   DGL d   1      25.737 -43.310  -4.540  0.00  0.00     0.087 H 
BRANCH 107 109
ATOM    109  C   DGL d   1      27.003 -41.739  -5.221  0.00  0.00     0.241 C 
ATOM    110  O   DGL d   1      26.066 -40.907  -5.299  0.00  0.00    -0.271 OA
ATOM    111  N   DLY d   1      28.294 -41.218  -5.164  0.00  0.00    -0.346 N 
ATOM    112  H   DLY d   1      29.095 -41.835  -5.030  0.00  0.00     0.163 HD
BRANCH 111 113
ATOM    113  CA  DLY d   1      28.485 -39.776  -5.298  0.00  0.00     0.089 C 
ATOM    114  H   DLY d   1      27.914 -39.429  -6.159  0.00  0.00     0.087 H 
BRANCH 113 115
ATOM    115  C   DLY d   1      27.967 -39.014  -4.167  0.00  0.00     0.241 C 
ATOM    116  O   DLY d   1      27.458 -37.860  -4.313  0.00  0.00    -0.271 OA
ATOM    117  N   DLE d   1      27.978 -39.608  -2.815  0.00  0.00    -0.346 N 
ATOM    118  H   DLE d   1      28.381 -40.530  -2.649  0.00  0.00     0.163 HD
BRANCH 117 119
ATOM    119  CA  DLE d   1      27.403 -38.847  -1.741  0.00  0.00     0.089 C 
ATOM    120  H   DLE d   1      27.819 -37.839  -1.748  0.00  0.00     0.087 H 
BRANCH 119 121
ATOM    121  CB  DLE d   1      27.687 -39.590  -0.387  0.00  0.00    -0.035 C 
ATOM    122  H   DLE d   1      27.304 -40.605  -0.496  0.00  0.00     0.037 H 
ATOM    123  H   DLE d   1      27.213 -39.005   0.401  0.00  0.00     0.037 H 
BRANCH 121 124
ATOM    124  CG  DLE d   1      29.205 -39.714  -0.012  0.00  0.00    -0.059 C 
ATOM    125  H   DLE d   1      29.783 -40.307  -0.721  0.00  0.00     0.038 H 
BRANCH 124 126
ATOM    126  CD1 DLE d   1      29.738 -38.306  -0.003  0.00  0.00    -0.073 C 
ATOM    127  H   DLE d   1      29.608 -37.863  -0.991  0.00  0.00     0.028 H 
ATOM    128  H   DLE d   1      29.193 -37.717   0.735  0.00  0.00     0.028 H 
ATOM    129  H   DLE d   1      30.797 -38.322   0.253  0.00  0.00     0.028 H 
ENDBRANCH 124 126
BRANCH 124 130
ATOM    130  CD2 DLE d   1      29.348 -40.451   1.327  0.00  0.00    -0.073 C 
ATOM    131  H   DLE d   1      28.827 -39.893   2.105  0.00  0.00     0.028 H 
ATOM    132  H   DLE d   1      28.914 -41.447   1.240  0.00  0.00     0.028 H 
ATOM    133  H   DLE d   1      30.404 -40.535   1.583  0.00  0.00     0.028 H 
ENDBRANCH 124 130
ENDBRANCH 121 124
ENDBRANCH 119 121
BRANCH 119 134
ATOM    134  C   DLE d   1      25.848 -38.844  -1.910  0.00  0.00     0.241 C 
ATOM    135  O   DLE d   1      25.253 -37.812  -1.549  0.00  0.00    -0.271 OA
ATOM    136  N   DLE d   1      25.299 -39.911  -2.371  0.00  0.00    -0.346 N 
ATOM    137  H   DLE d   1      25.872 -40.710  -2.642  0.00  0.00     0.163 HD
BRANCH 136 138
ATOM    138  CA  DLE d   1      23.785 -39.967  -2.507  0.00  0.00     0.089 C 
ATOM    139  H   DLE d   1      23.337 -39.781  -1.531  0.00  0.00     0.087 H 
BRANCH 138 140
ATOM    140  CB  DLE d   1      23.370 -41.329  -3.025  0.00  0.00    -0.035 C 
ATOM    141  H   DLE d   1      24.103 -41.679  -3.752  0.00  0.00     0.037 H 
ATOM    142  H   DLE d   1      22.392 -41.253  -3.500  0.00  0.00     0.037 H 
BRANCH 140 143
ATOM    143  CG  DLE d   1      23.293 -42.341  -1.836  0.00  0.00    -0.059 C 
ATOM    144  H   DLE d   1      24.166 -42.154  -1.210  0.00  0.00     0.038 H 
BRANCH 143 145
ATOM    145  CD1 DLE d   1      22.061 -42.124  -0.921  0.00  0.00    -0.073 C 
ATOM    146  H   DLE d   1      22.098 -41.121  -0.496  0.00  0.00     0.028 H 
ATOM    147  H   DLE d   1      21.150 -42.238  -1.508  0.00  0.00     0.028 H 
ATOM    148  H   DLE d   1      22.072 -42.861  -0.118  0.00  0.00     0.028 H 
ENDBRANCH 143 145
BRANCH 143 149
ATOM    149  CD2 DLE d   1      23.344 -43.778  -2.357  0.00  0.00    -0.073 C 
ATOM    150  H   DLE d   1      22.501 -43.950  -3.027  0.00  0.00     0.028 H 
ATOM    151  H   DLE d   1      24.277 -43.934  -2.898  0.00  0.00     0.028 H 
ATOM    152  H   DLE d   1      23.289 -44.470  -1.517  0.00  0.00     0.028 H 
ENDBRANCH 143 149
ENDBRANCH 140 143
ENDBRANCH 138 140
BRANCH 138 153
ATOM    153  C   DLE d   1      23.325 -38.921  -3.507  0.00  0.00     0.241 C 
ATOM    154  O   DLE d   1      22.311 -38.242  -3.303  0.00  0.00    -0.271 OA
ATOM    155  N   DAR d   1      24.133 -38.688  -4.607  0.00  0.00    -0.345 N 
ATOM    156  H   DAR d   1      24.985 -39.234  -4.730  0.00  0.00     0.163 HD
BRANCH 155 157
ATOM    157  CA  DAR d   1      23.772 -37.643  -5.621  0.00  0.00     0.096 C 
ATOM    158  H   DAR d   1      22.723 -37.654  -5.917  0.00  0.00     0.089 H 
BRANCH 157 159
ATOM    159  CB  DAR d   1      24.623 -37.952  -6.886  0.00  0.00    -0.035 C 
ATOM    160  H   DAR d   1      25.632 -38.171  -6.536  0.00  0.00     0.036 H 
ATOM    161  H   DAR d   1      24.532 -37.086  -7.541  0.00  0.00     0.036 H 
BRANCH 159 162
ATOM    162  CG  DAR d   1      24.172 -39.163  -7.700  0.00  0.00    -0.047 C 
ATOM    163  H   DAR d   1      23.083 -39.142  -7.751  0.00  0.00     0.035 H 
ATOM    164  H   DAR d   1      24.559 -40.056  -7.208  0.00  0.00     0.035 H 
BRANCH 162 165
ATOM    165  CD  DAR d   1      24.719 -39.153  -9.172  0.00  0.00     0.009 C 
ATOM    166  H   DAR d   1      24.188 -38.393  -9.745  0.00  0.00     0.064 H 
ATOM    167  H   DAR d   1      24.564 -40.136  -9.617  0.00  0.00     0.064 H 
BRANCH 165 168
ATOM    168  NE  DAR d   1      26.176 -38.839  -9.176  0.00  0.00    -0.227 N 
ATOM    169  CZ  DAR d   1      27.171 -39.749  -9.183  0.00  0.00     0.665 C 
ATOM    170  NH1 DAR d   1      28.420 -39.283  -9.175  0.00  0.00    -0.235 N 
ATOM    171  NH2 DAR d   1      26.966 -41.089  -9.209  0.00  0.00    -0.235 N 
ATOM    172  H   DAR d   1      28.589 -38.277  -9.164  0.00  0.00     0.174 HD
ATOM    173  H   DAR d   1      29.207 -39.932  -9.180  0.00  0.00     0.174 HD
ATOM    174  H   DAR d   1      26.016 -41.459  -9.225  0.00  0.00     0.174 HD
ATOM    175  H   DAR d   1      27.762 -41.727  -9.213  0.00  0.00     0.174 HD
ATOM    176  H   DAR d   1      26.442 -37.854  -9.173  0.00  0.00     0.177 HD
ENDBRANCH 165 168
ENDBRANCH 162 165
ENDBRANCH 159 162
ENDBRANCH 157 159
BRANCH 157 177
ATOM    177  C   DAR d   1      23.987 -36.285  -5.021  0.00  0.00     0.196 C 
ATOM    178  O   DAR d   1      23.187 -35.371  -5.293  0.00  0.00    -0.646 OA
ATOM    179  OXT DAR d   1      24.903 -35.958  -4.214  0.00  0.00    -0.646 OA
ENDBRANCH 157 177
ENDBRANCH 155 157
ENDBRANCH 138 153
ENDBRANCH 136 138
ENDBRANCH 119 134
ENDBRANCH 117 119
ENDBRANCH 113 115
BRANCH 113 180
ATOM    180  CB  DLY d   1      30.021 -39.517  -5.492  0.00  0.00    -0.038 C 
ATOM    181  H   DLY d   1      30.298 -39.861  -6.489  0.00  0.00     0.036 H 
ATOM    182  H   DLY d   1      30.555 -40.050  -4.705  0.00  0.00     0.036 H 
BRANCH 180 183
ATOM    183  CG  DLY d   1      30.379 -38.038  -5.387  0.00  0.00    -0.061 C 
ATOM    184  H   DLY d   1      29.452 -37.477  -5.271  0.00  0.00     0.033 H 
ATOM    185  H   DLY d   1      30.928 -37.762  -6.287  0.00  0.00     0.033 H 
BRANCH 183 186
ATOM    186  CD  DLY d   1      31.276 -37.727  -4.172  0.00  0.00    -0.043 C 
ATOM    187  H   DLY d   1      32.314 -37.730  -4.504  0.00  0.00     0.035 H 
ATOM    188  H   DLY d   1      31.092 -38.483  -3.409  0.00  0.00     0.035 H 
BRANCH 186 189
ATOM    189  CE  DLY d   1      30.966 -36.348  -3.570  0.00  0.00     0.080 C 
ATOM    190  H   DLY d   1      29.884 -36.227  -3.520  0.00  0.00     0.075 H 
ATOM    191  H   DLY d   1      31.422 -35.585  -4.200  0.00  0.00     0.075 H 
BRANCH 189 192
ATOM    192  NZ  DLY d   1      31.517 -36.220  -2.202  0.00  0.00    -0.079 N 
ATOM    193  H   DLY d   1      31.294 -35.296  -1.832  0.00  0.00     0.274 HD
ATOM    194  H   DLY d   1      31.105 -36.935  -1.603  0.00  0.00     0.274 HD
ATOM    195  H   DLY d   1      32.529 -36.341  -2.232  0.00  0.00     0.274 HD
ENDBRANCH 189 192
ENDBRANCH 186 189
ENDBRANCH 183 186
ENDBRANCH 180 183
ENDBRANCH 113 180
ENDBRANCH 111 113
ENDBRANCH 107 109
BRANCH 107 196
ATOM    196  CB  DGL d   1      26.867 -43.971  -6.219  0.00  0.00    -0.029 C 
ATOM    197  H   DGL d   1      27.928 -44.110  -6.424  0.00  0.00     0.037 H 
ATOM    198  H   DGL d   1      26.352 -43.423  -7.008  0.00  0.00     0.037 H 
BRANCH 196 199
ATOM    199  CG  DGL d   1      26.230 -45.345  -6.116  0.00  0.00     0.018 C 
ATOM    200  H   DGL d   1      25.695 -45.370  -5.167  0.00  0.00     0.049 H 
ATOM    201  H   DGL d   1      27.037 -46.071  -6.217  0.00  0.00     0.049 H 
BRANCH 199 202
ATOM    202  CD  DGL d   1      25.194 -45.680  -7.216  0.00  0.00     0.172 C 
ATOM    203  OE1 DGL d   1      25.572 -46.500  -8.104  0.00  0.00    -0.648 OA
ATOM    204  OE2 DGL d   1      24.036 -45.187  -7.112  0.00  0.00    -0.648 OA
ENDBRANCH 199 202
ENDBRANCH 196 199
ENDBRANCH 107 196
ENDBRANCH   3 107
TORSDOF 54
