REMARK  6 active torsions:
REMARK  status: ('A' for Active; 'I' for Inactive)
REMARK    1  A    between atoms: P_1  and  O5'_4 
REMARK    2  A    between atoms: O5'_4  and  C5'_6 
REMARK    3  A    between atoms: C5'_6  and  C4'_7 
REMARK    4  A    between atoms: C1'_9  and  N9_10 
REMARK    5  A    between atoms: C2'_21  and  O2'_22 
REMARK    6  A    between atoms: C3'_23  and  O3'_24 
ROOT
ATOM      1  C4' XMP d   1     -40.881  47.095  -0.350  0.00  0.00     0.089 C 
ATOM      2  O4' XMP d   1     -40.672  48.514  -0.162  0.00  0.00    -0.353 OA
ATOM      3  C1' XMP d   1     -39.359  48.865  -0.562  0.00  0.00     0.139 C 
ATOM      4  C2' XMP d   1     -38.608  47.576  -0.916  0.00  0.00     0.105 C 
ATOM      5  C3' XMP d   1     -39.481  46.508  -0.253  0.00  0.00     0.091 C 
ATOM      6  H3  XMP d   1     -41.286  46.897  -1.353  0.00  0.00     0.090 H 
ATOM      7  H4  XMP d   1     -39.400  49.514  -1.449  0.00  0.00     0.122 H 
ATOM      8  H8  XMP d   1     -37.580  47.567  -0.524  0.00  0.00     0.093 H 
ATOM      9  H10 XMP d   1     -39.195  46.407   0.804  0.00  0.00     0.091 H 
ENDROOT
BRANCH   3  10
ATOM     10  N9  XMP d   1     -38.710  49.597   0.542  0.00  0.00    -0.295 N 
ATOM     11  C4  XMP d   1     -38.039  50.755   0.399  0.00  0.00     0.147 A 
ATOM     12  N3  XMP d   1     -37.740  51.560  -0.636  0.00  0.00    -0.304 N 
ATOM     13  C5  XMP d   1     -37.594  51.111   1.676  0.00  0.00     0.156 A 
ATOM     14  C2  XMP d   1     -37.024  52.684  -0.458  0.00  0.00     0.259 A 
ATOM     15  H5  XMP d   1     -38.056  51.319  -1.554  0.00  0.00     0.171 HD
ATOM     16  N1  XMP d   1     -36.588  53.051   0.756  0.00  0.00    -0.296 N 
ATOM     17  O2  XMP d   1     -36.741  53.466  -1.539  0.00  0.00    -0.151 OA
ATOM     18  C6  XMP d   1     -36.856  52.288   1.833  0.00  0.00     0.214 A 
ATOM     19  H6  XMP d   1     -36.062  53.895   0.862  0.00  0.00     0.171 HD
ATOM     20  O6  XMP d   1     -36.389  52.675   3.118  0.00  0.00    -0.169 OA
ATOM     21  N7  XMP d   1     -38.013  50.159   2.533  0.00  0.00    -0.235 NA
ATOM     22  C8  XMP d   1     -38.696  49.236   1.835  0.00  0.00     0.070 A 
ATOM     23  H7  XMP d   1     -39.161  48.343   2.250  0.00  0.00     0.144 H 
ENDBRANCH   3  10
BRANCH   4  24
ATOM     24  O2' XMP d   1     -38.607  47.428  -2.329  0.00  0.00    -0.388 OA
ATOM     25  H9  XMP d   1     -38.144  46.632  -2.563  0.00  0.00     0.210 HD
ENDBRANCH   4  24
BRANCH   1  26
ATOM     26  C5' XMP d   1     -41.876  46.586   0.662  0.00  0.00     0.059 C 
ATOM     27  H1  XMP d   1     -41.915  45.488   0.602  0.00  0.00     0.079 H 
ATOM     28  H2  XMP d   1     -41.547  46.887   1.667  0.00  0.00     0.079 H 
BRANCH  26  29
ATOM     29  O5' XMP d   1     -43.178  47.106   0.430  0.00  0.00    -0.280 OA
BRANCH  29  30
ATOM     30  P   XMP d   1     -44.387  46.752   1.413  0.00  0.00     0.422 P 
ATOM     31  O1P XMP d   1     -44.473  45.277   1.631  0.00  0.00    -0.617 OA
ATOM     32  O2P XMP d   1     -45.664  47.544   1.020  0.00  0.00    -0.617 OA
ATOM     33  O3P XMP d   1     -43.953  47.313   2.745  0.00  0.00    -0.617 OA
ENDBRANCH  29  30
ENDBRANCH  26  29
ENDBRANCH   1  26
BRANCH   5  34
ATOM     34  O3' XMP d   1     -39.374  45.226  -0.849  0.00  0.00    -0.390 OA
ATOM     35  H11 XMP d   1     -39.637  45.279  -1.760  0.00  0.00     0.210 HD
ENDBRANCH   5  34
TORSDOF 6
