REMARK WARNING: 32 MAX_TORS EXCEEDED!!!
REMARK  45 active torsions:
REMARK  status: ('A' for Active; 'I' for Inactive)
REMARK    1  A    between atoms: N_1  and  CA_2 
REMARK    2  A    between atoms: CA_2  and  C_3 
REMARK    3  A    between atoms: CA_2  and  CB_5 
REMARK       I    between atoms: C_3  and  N_10 
REMARK    4  A    between atoms: CB_5  and  CG_6 
REMARK    5  A    between atoms: CG_6  and  CD_7 
REMARK    6  A    between atoms: N_10  and  CA_11 
REMARK    7  A    between atoms: CA_11  and  C_12 
REMARK    8  A    between atoms: CA_11  and  CB_14 
REMARK       I    between atoms: C_12  and  N_21 
REMARK    9  A    between atoms: CB_14  and  CG_15 
REMARK   10  A    between atoms: N_21  and  CA_22 
REMARK   11  A    between atoms: CA_22  and  C_23 
REMARK   12  A    between atoms: CA_22  and  CB_25 
REMARK       I    between atoms: C_23  and  N_26 
REMARK   13  A    between atoms: N_26  and  CA_27 
REMARK   14  A    between atoms: CA_27  and  C_28 
REMARK   15  A    between atoms: CA_27  and  CB_30 
REMARK       I    between atoms: C_28  and  N_35 
REMARK   16  A    between atoms: CB_30  and  CG_31 
REMARK   17  A    between atoms: CG_31  and  CD_32 
REMARK       I    between atoms: CD_32  and  NE2_34 
REMARK   18  A    between atoms: N_35  and  CA_36 
REMARK   19  A    between atoms: CA_36  and  C_37 
REMARK   20  A    between atoms: CA_36  and  CB_39 
REMARK       I    between atoms: C_37  and  N_42 
REMARK   21  A    between atoms: CB_39  and  OG1_40 
REMARK   22  A    between atoms: CB_39  and  CG2_41 
REMARK   23  A    between atoms: N_42  and  CA_43 
REMARK   24  A    between atoms: CA_43  and  C_44 
REMARK   25  A    between atoms: CA_43  and  CB_46 
REMARK       I    between atoms: C_44  and  N_48 
REMARK   26  A    between atoms: CB_46  and  OG_47 
REMARK   27  A    between atoms: N_48  and  CA_49 
REMARK   28  A    between atoms: CA_49  and  C_50 
REMARK   29  A    between atoms: CA_49  and  CB_52 
REMARK       I    between atoms: C_50  and  N_54 
REMARK   30  A    between atoms: CB_52  and  OG_53 
REMARK   31  A    between atoms: N_54  and  CA_55 
REMARK   32  A    between atoms: CA_55  and  C_56 
REMARK   33  A    between atoms: CA_55  and  CB_58 
REMARK       I    between atoms: C_56  and  N_65 
REMARK   34  A    between atoms: CB_58  and  CG_59 
REMARK   35  A    between atoms: N_65  and  CA_66 
REMARK   36  A    between atoms: CA_66  and  C_67 
REMARK   37  A    between atoms: CA_66  and  CB_69 
REMARK       I    between atoms: C_67  and  N_73 
REMARK   38  A    between atoms: CB_69  and  CG_70 
REMARK   39  A    between atoms: CG_70  and  CD1_71 
REMARK   40  A    between atoms: CG_70  and  CD2_72 
REMARK   41  A    between atoms: N_73  and  CA_74 
REMARK   42  A    between atoms: CA_74  and  C_75 
REMARK   43  A    between atoms: CA_74  and  CB_77 
REMARK   44  A    between atoms: CB_77  and  CG1_78 
REMARK   45  A    between atoms: CB_77  and  CG2_79 
ROOT
ATOM      1  C   THR d   1     -51.813  -3.074 -34.566  0.00  0.00     0.243 C 
ATOM      2  O   THR d   1     -50.591  -3.215 -34.492  0.00  0.00    -0.271 OA
ATOM      3  N   SER d   1     -52.497  -3.188 -35.703  0.00  0.00    -0.344 N 
ATOM      4  H   SER d   1     -53.498  -2.994 -35.689  0.00  0.00     0.163 HD
ENDROOT
BRANCH   1   5
ATOM      5  CA  THR d   1     -52.646  -2.727 -33.329  0.00  0.00     0.113 C 
ATOM      6  H   THR d   1     -53.691  -2.909 -33.581  0.00  0.00     0.091 H 
BRANCH   5   7
ATOM      7  N   THR d   1     -52.420  -3.628 -32.177  0.00  0.00    -0.344 N 
ATOM      8  C   GLN d   1     -51.258  -3.787 -31.537  0.00  0.00     0.241 C 
ATOM      9  O   GLN d   1     -50.232  -3.156 -31.807  0.00  0.00    -0.271 OA
ATOM     10  H   THR d   1     -53.216  -4.172 -31.845  0.00  0.00     0.163 HD
BRANCH   8  11
ATOM     11  CA  GLN d   1     -51.247  -4.828 -30.405  0.00  0.00     0.090 C 
ATOM     12  H   GLN d   1     -50.337  -4.643 -29.834  0.00  0.00     0.087 H 
BRANCH  11  13
ATOM     13  N   GLN d   1     -52.346  -4.681 -29.441  0.00  0.00    -0.346 N 
ATOM     14  C   LYS d   1     -52.367  -3.699 -28.537  0.00  0.00     0.240 C 
ATOM     15  O   LYS d   1     -51.526  -2.797 -28.501  0.00  0.00    -0.271 OA
ATOM     16  H   GLN d   1     -53.116  -5.349 -29.463  0.00  0.00     0.163 HD
BRANCH  14  17
ATOM     17  CA  LYS d   1     -53.500  -3.730 -27.508  0.00  0.00     0.086 C 
ATOM     18  H   LYS d   1     -53.717  -4.760 -27.224  0.00  0.00     0.086 H 
BRANCH  17  19
ATOM     19  N   LYS d   1     -53.067  -2.961 -26.347  0.00  0.00    -0.346 N 
ATOM     20  C   PHE d   1     -52.376  -3.504 -25.347  0.00  0.00     0.241 C 
ATOM     21  O   PHE d   1     -52.245  -4.724 -25.199  0.00  0.00    -0.271 OA
ATOM     22  H   LYS d   1     -53.303  -1.970 -26.299  0.00  0.00     0.163 HD
BRANCH  20  23
ATOM     23  CA  PHE d   1     -51.753  -2.516 -24.351  0.00  0.00     0.093 C 
ATOM     24  H   PHE d   1     -51.294  -1.740 -24.963  0.00  0.00     0.088 H 
BRANCH  23  25
ATOM     25  N   PHE d   1     -52.723  -1.798 -23.511  0.00  0.00    -0.346 N 
ATOM     26  C   GLU d   1     -53.681  -2.384 -22.791  0.00  0.00     0.249 C 
ATOM     27  O   GLU d   1     -53.873  -3.602 -22.769  0.00  0.00    -0.271 OA
ATOM     28  H   PHE d   1     -52.659  -0.781 -23.476  0.00  0.00     0.163 HD
BRANCH  26  29
ATOM     29  CA  GLU d   1     -54.570  -1.434 -21.977  0.00  0.00     0.176 C 
ATOM     30  H   GLU d   1     -54.785  -0.583 -22.624  0.00  0.00     0.099 H 
BRANCH  29  31
ATOM     31  N   GLU d   1     -55.867  -2.070 -21.600  0.00  0.00    -0.066 N 
ATOM     32  H   GLU d   1     -56.336  -2.408 -22.441  0.00  0.00     0.275 HD
ATOM     33  H   GLU d   1     -55.690  -2.852 -20.970  0.00  0.00     0.275 HD
ATOM     34  H   GLU d   1     -56.458  -1.383 -21.133  0.00  0.00     0.275 HD
ENDBRANCH  29  31
BRANCH  29  35
ATOM     35  CB  GLU d   1     -53.848  -0.917 -20.719  0.00  0.00    -0.021 C 
ATOM     36  H   GLU d   1     -53.686  -1.788 -20.084  0.00  0.00     0.037 H 
ATOM     37  H   GLU d   1     -54.480  -0.129 -20.309  0.00  0.00     0.037 H 
BRANCH  35  38
ATOM     38  CG  GLU d   1     -52.459  -0.281 -20.937  0.00  0.00     0.018 C 
ATOM     39  H   GLU d   1     -51.859  -1.006 -21.486  0.00  0.00     0.049 H 
ATOM     40  H   GLU d   1     -52.068  -0.024 -19.953  0.00  0.00     0.049 H 
BRANCH  38  41
ATOM     41  CD  GLU d   1     -52.474   1.007 -21.764  0.00  0.00     0.172 C 
ATOM     42  OE1 GLU d   1     -53.565   1.562 -22.031  0.00  0.00    -0.648 OA
ATOM     43  OE2 GLU d   1     -51.376   1.471 -22.146  0.00  0.00    -0.648 OA
ENDBRANCH  38  41
ENDBRANCH  35  38
ENDBRANCH  29  35
ENDBRANCH  26  29
ENDBRANCH  23  25
BRANCH  23  44
ATOM     44  CB  PHE d   1     -50.652  -3.191 -23.511  0.00  0.00    -0.014 C 
ATOM     45  H   PHE d   1     -50.037  -3.773 -24.198  0.00  0.00     0.043 H 
ATOM     46  H   PHE d   1     -51.152  -3.782 -22.744  0.00  0.00     0.043 H 
BRANCH  44  47
ATOM     47  CG  PHE d   1     -49.727  -2.222 -22.795  0.00  0.00    -0.056 A 
ATOM     48  CD1 PHE d   1     -49.340  -1.021 -23.386  0.00  0.00    -0.077 A 
ATOM     49  CE1 PHE d   1     -48.479  -0.137 -22.722  0.00  0.00    -0.082 A 
ATOM     50  H   PHE d   1     -49.712  -0.766 -24.378  0.00  0.00     0.084 H 
ATOM     51  CZ  PHE d   1     -47.981  -0.459 -21.461  0.00  0.00    -0.083 A 
ATOM     52  H   PHE d   1     -48.198   0.805 -23.193  0.00  0.00     0.083 H 
ATOM     53  CE2 PHE d   1     -48.347  -1.660 -20.866  0.00  0.00    -0.082 A 
ATOM     54  H   PHE d   1     -47.309   0.227 -20.945  0.00  0.00     0.083 H 
ATOM     55  CD2 PHE d   1     -49.210  -2.537 -21.536  0.00  0.00    -0.077 A 
ATOM     56  H   PHE d   1     -47.963  -1.919 -19.879  0.00  0.00     0.083 H 
ATOM     57  H   PHE d   1     -49.483  -3.482 -21.067  0.00  0.00     0.084 H 
ENDBRANCH  44  47
ENDBRANCH  23  44
ENDBRANCH  20  23
ENDBRANCH  17  19
BRANCH  17  58
ATOM     58  CB  LYS d   1     -54.781  -3.146 -28.088  0.00  0.00    -0.049 C 
ATOM     59  H   LYS d   1     -55.566  -3.173 -27.332  0.00  0.00     0.030 H 
ATOM     60  H   LYS d   1     -54.603  -2.115 -28.392  0.00  0.00     0.030 H 
ATOM     61  H   LYS d   1     -55.088  -3.734 -28.953  0.00  0.00     0.030 H 
ENDBRANCH  17  58
ENDBRANCH  14  17
ENDBRANCH  11  13
BRANCH  11  62
ATOM     62  CB  GLN d   1     -51.210  -6.247 -30.985  0.00  0.00    -0.030 C 
ATOM     63  H   GLN d   1     -51.945  -6.291 -31.788  0.00  0.00     0.037 H 
ATOM     64  H   GLN d   1     -51.414  -6.939 -30.168  0.00  0.00     0.037 H 
BRANCH  62  65
ATOM     65  CG  GLN d   1     -49.856  -6.629 -31.582  0.00  0.00     0.011 C 
ATOM     66  H   GLN d   1     -49.206  -6.926 -30.759  0.00  0.00     0.047 H 
ATOM     67  H   GLN d   1     -49.485  -5.766 -32.135  0.00  0.00     0.047 H 
BRANCH  65  68
ATOM     68  CD  GLN d   1     -49.934  -7.797 -32.551  0.00  0.00     0.215 C 
ATOM     69  OE1 GLN d   1     -49.361  -8.859 -32.305  0.00  0.00    -0.274 OA
ATOM     70  NE2 GLN d   1     -50.647  -7.608 -33.657  0.00  0.00    -0.370 N 
ATOM     71  H   GLN d   1     -50.736  -8.359 -34.341  0.00  0.00     0.159 HD
ATOM     72  H   GLN d   1     -51.106  -6.712 -33.821  0.00  0.00     0.159 HD
ENDBRANCH  65  68
ENDBRANCH  62  65
ENDBRANCH  11  62
ENDBRANCH   8  11
ENDBRANCH   5   7
BRANCH   5  73
ATOM     73  CB  THR d   1     -52.509  -1.208 -32.987  0.00  0.00     0.060 C 
ATOM     74  H   THR d   1     -52.892  -0.640 -33.835  0.00  0.00     0.086 H 
BRANCH  73  75
ATOM     75  OG1 THR d   1     -51.135  -0.875 -32.772  0.00  0.00    -0.393 OA
ATOM     76  H   THR d   1     -50.791  -1.395 -32.042  0.00  0.00     0.210 HD
ENDBRANCH  73  75
BRANCH  73  77
ATOM     77  CG2 THR d   1     -53.339  -0.830 -31.753  0.00  0.00    -0.050 C 
ATOM     78  H   THR d   1     -54.390  -1.047 -31.943  0.00  0.00     0.031 H 
ATOM     79  H   THR d   1     -52.997  -1.409 -30.895  0.00  0.00     0.031 H 
ATOM     80  H   THR d   1     -53.218   0.234 -31.547  0.00  0.00     0.031 H 
ENDBRANCH  73  77
ENDBRANCH   5  73
ENDBRANCH   1   5
BRANCH   3  81
ATOM     81  CA  SER d   1     -51.880  -3.578 -36.972  0.00  0.00     0.109 C 
ATOM     82  H   SER d   1     -51.470  -4.580 -36.844  0.00  0.00     0.090 H 
BRANCH  81  83
ATOM     83  C   SER d   1     -50.756  -2.631 -37.352  0.00  0.00     0.243 C 
ATOM     84  O   SER d   1     -50.734  -1.476 -36.919  0.00  0.00    -0.271 OA
ATOM     85  N   SER d   1     -49.824  -3.119 -38.164  0.00  0.00    -0.344 N 
ATOM     86  H   SER d   1     -49.852  -4.104 -38.428  0.00  0.00     0.163 HD
BRANCH  85  87
ATOM     87  CA  SER d   1     -48.765  -2.267 -38.680  0.00  0.00     0.109 C 
ATOM     88  H   SER d   1     -48.287  -1.747 -37.850  0.00  0.00     0.090 H 
BRANCH  87  89
ATOM     89  C   SER d   1     -49.370  -1.255 -39.647  0.00  0.00     0.243 C 
ATOM     90  O   SER d   1     -50.499  -1.428 -40.105  0.00  0.00    -0.271 OA
ATOM     91  N   PHE d   1     -48.624  -0.204 -39.960  0.00  0.00    -0.346 N 
ATOM     92  H   PHE d   1     -47.781  -0.002 -39.423  0.00  0.00     0.163 HD
BRANCH  91  93
ATOM     93  CA  PHE d   1     -49.002   0.659 -41.062  0.00  0.00     0.093 C 
ATOM     94  H   PHE d   1     -50.016   1.018 -40.888  0.00  0.00     0.088 H 
BRANCH  93  95
ATOM     95  C   PHE d   1     -48.969  -0.132 -42.366  0.00  0.00     0.241 C 
ATOM     96  O   PHE d   1     -48.524  -1.281 -42.398  0.00  0.00    -0.271 OA
ATOM     97  N   LEU d   1     -49.450   0.484 -43.438  0.00  0.00    -0.346 N 
ATOM     98  H   LEU d   1     -49.815   1.432 -43.344  0.00  0.00     0.163 HD
BRANCH  97  99
ATOM     99  CA  LEU d   1     -49.470  -0.156 -44.743  0.00  0.00     0.089 C 
ATOM    100  H   LEU d   1     -49.884  -1.158 -44.632  0.00  0.00     0.087 H 
BRANCH  99 101
ATOM    101  C   LEU d   1     -48.059  -0.304 -45.307  0.00  0.00     0.241 C 
ATOM    102  O   LEU d   1     -47.369   0.686 -45.546  0.00  0.00    -0.271 OA
ATOM    103  N   VAL d   1     -47.633  -1.547 -45.499  0.00  0.00    -0.344 N 
ATOM    104  H   VAL d   1     -48.227  -2.328 -45.220  0.00  0.00     0.163 HD
BRANCH 103 105
ATOM    105  CA  VAL d   1     -46.327  -1.819 -46.103  0.00  0.00     0.099 C 
ATOM    106  H   VAL d   1     -45.758  -0.894 -46.010  0.00  0.00     0.090 H 
BRANCH 105 107
ATOM    107  C   VAL d   1     -46.490  -2.211 -47.570  0.00  0.00     0.197 C 
ATOM    108  O   VAL d   1     -45.524  -2.221 -48.337  0.00  0.00    -0.646 OA
ATOM    109  OXT VAL d   1     -47.592  -2.526 -48.023  0.00  0.00    -0.646 OA
ENDBRANCH 105 107
BRANCH 105 110
ATOM    110  CB  VAL d   1     -45.536  -2.933 -45.379  0.00  0.00    -0.032 C 
ATOM    111  H   VAL d   1     -45.681  -3.864 -45.927  0.00  0.00     0.042 H 
BRANCH 110 112
ATOM    112  CG1 VAL d   1     -44.065  -2.574 -45.354  0.00  0.00    -0.071 C 
ATOM    113  H   VAL d   1     -43.699  -2.474 -46.376  0.00  0.00     0.028 H 
ATOM    114  H   VAL d   1     -43.931  -1.631 -44.825  0.00  0.00     0.028 H 
ATOM    115  H   VAL d   1     -43.509  -3.360 -44.843  0.00  0.00     0.028 H 
ENDBRANCH 110 112
BRANCH 110 116
ATOM    116  CG2 VAL d   1     -46.039  -3.146 -43.968  0.00  0.00    -0.071 C 
ATOM    117  H   VAL d   1     -45.930  -2.221 -43.401  0.00  0.00     0.028 H 
ATOM    118  H   VAL d   1     -47.090  -3.433 -43.998  0.00  0.00     0.028 H 
ATOM    119  H   VAL d   1     -45.458  -3.936 -43.492  0.00  0.00     0.028 H 
ENDBRANCH 110 116
ENDBRANCH 105 110
ENDBRANCH 103 105
ENDBRANCH  99 101
BRANCH  99 120
ATOM    120  CB  LEU d   1     -50.355   0.644 -45.696  0.00  0.00    -0.035 C 
ATOM    121  H   LEU d   1     -49.772   1.532 -45.941  0.00  0.00     0.037 H 
ATOM    122  H   LEU d   1     -51.301   0.760 -45.168  0.00  0.00     0.037 H 
BRANCH 120 123
ATOM    123  CG  LEU d   1     -50.731   0.039 -47.045  0.00  0.00    -0.059 C 
ATOM    124  H   LEU d   1     -49.820  -0.196 -47.596  0.00  0.00     0.038 H 
BRANCH 123 125
ATOM    125  CD1 LEU d   1     -51.496  -1.269 -46.876  0.00  0.00    -0.073 C 
ATOM    126  H   LEU d   1     -50.875  -1.984 -46.337  0.00  0.00     0.028 H 
ATOM    127  H   LEU d   1     -52.411  -1.083 -46.313  0.00  0.00     0.028 H 
ATOM    128  H   LEU d   1     -51.747  -1.671 -47.858  0.00  0.00     0.028 H 
ENDBRANCH 123 125
BRANCH 123 129
ATOM    129  CD2 LEU d   1     -51.551   1.051 -47.825  0.00  0.00    -0.073 C 
ATOM    130  H   LEU d   1     -52.454   1.294 -47.265  0.00  0.00     0.028 H 
ATOM    131  H   LEU d   1     -50.961   1.955 -47.977  0.00  0.00     0.028 H 
ATOM    132  H   LEU d   1     -51.825   0.627 -48.791  0.00  0.00     0.028 H 
ENDBRANCH 123 129
ENDBRANCH 120 123
ENDBRANCH  99 120
ENDBRANCH  97  99
ENDBRANCH  93  95
BRANCH  93 133
ATOM    133  CB  PHE d   1     -48.098   1.887 -41.146  0.00  0.00    -0.014 C 
ATOM    134  H   PHE d   1     -48.304   2.495 -40.265  0.00  0.00     0.043 H 
ATOM    135  H   PHE d   1     -48.314   2.377 -42.095  0.00  0.00     0.043 H 
BRANCH 133 136
ATOM    136  CG  PHE d   1     -46.625   1.581 -41.135  0.00  0.00    -0.056 A 
ATOM    137  CD1 PHE d   1     -45.892   1.681 -39.956  0.00  0.00    -0.077 A 
ATOM    138  CE1 PHE d   1     -44.523   1.425 -39.938  0.00  0.00    -0.082 A 
ATOM    139  H   PHE d   1     -46.397   1.964 -39.032  0.00  0.00     0.084 H 
ATOM    140  CZ  PHE d   1     -43.867   1.073 -41.109  0.00  0.00    -0.083 A 
ATOM    141  H   PHE d   1     -43.967   1.501 -39.004  0.00  0.00     0.083 H 
ATOM    142  CE2 PHE d   1     -44.583   0.975 -42.298  0.00  0.00    -0.082 A 
ATOM    143  H   PHE d   1     -42.795   0.874 -41.097  0.00  0.00     0.083 H 
ATOM    144  CD2 PHE d   1     -45.958   1.235 -42.307  0.00  0.00    -0.077 A 
ATOM    145  H   PHE d   1     -44.074   0.696 -43.221  0.00  0.00     0.083 H 
ATOM    146  H   PHE d   1     -46.513   1.166 -43.242  0.00  0.00     0.084 H 
ENDBRANCH 133 136
ENDBRANCH  93 133
ENDBRANCH  91  93
ENDBRANCH  87  89
BRANCH  87 147
ATOM    147  CB  SER d   1     -47.702  -3.102 -39.396  0.00  0.00     0.044 C 
ATOM    148  H   SER d   1     -47.591  -4.048 -38.865  0.00  0.00     0.077 H 
ATOM    149  H   SER d   1     -46.770  -2.537 -39.407  0.00  0.00     0.077 H 
BRANCH 147 150
ATOM    150  OG  SER d   1     -48.073  -3.380 -40.734  0.00  0.00    -0.398 OA
ATOM    151  H   SER d   1     -48.184  -2.555 -41.212  0.00  0.00     0.209 HD
ENDBRANCH 147 150
ENDBRANCH  87 147
ENDBRANCH  85  87
ENDBRANCH  81  83
BRANCH  81 152
ATOM    152  CB  SER d   1     -52.924  -3.578 -38.088  0.00  0.00     0.044 C 
ATOM    153  H   SER d   1     -52.472  -4.006 -38.983  0.00  0.00     0.077 H 
ATOM    154  H   SER d   1     -53.249  -2.551 -38.255  0.00  0.00     0.077 H 
BRANCH 152 155
ATOM    155  OG  SER d   1     -54.057  -4.356 -37.742  0.00  0.00    -0.398 OA
ATOM    156  H   SER d   1     -54.691  -4.334 -38.463  0.00  0.00     0.209 HD
ENDBRANCH 152 155
ENDBRANCH  81 152
ENDBRANCH   3  81
TORSDOF 45
