REMARK  12 active torsions:
REMARK  status: ('A' for Active; 'I' for Inactive)
REMARK       I    between atoms: C2_2  and  N3_3 
REMARK       I    between atoms: C2_2  and  N16_16 
REMARK    1  A    between atoms: N3_3  and  C4_4 
REMARK    2  A    between atoms: C7_7  and  O8_8 
REMARK    3  A    between atoms: O8_8  and  C9_9 
REMARK    4  A    between atoms: C11_11  and  O12_12 
REMARK    5  A    between atoms: O12_12  and  C13_13 
REMARK    6  A    between atoms: N16_16  and  C17_17 
REMARK    7  A    between atoms: N16_16  and  C18_18 
REMARK    8  A    between atoms: C20_20  and  N24_24 
REMARK    9  A    between atoms: N24_24  and  C25_25 
REMARK   10  A    between atoms: C28_28  and  N31_31 
REMARK   11  A    between atoms: N34_34  and  C35_35 
REMARK   12  A    between atoms: C35_35  and  C36_36 
ROOT
ATOM      1  C18 07J d   1     -16.684   9.855  13.161  0.00  0.00     0.138 A 
ATOM      2  C19 07J d   1     -18.024  10.012  13.461  0.00  0.00     0.006 A 
ATOM      3  C20 07J d   1     -18.423  11.123  14.177  0.00  0.00     0.133 A 
ATOM      4  N21 07J d   1     -17.534  12.048  14.560  0.00  0.00    -0.224 NA
ATOM      5  C22 07J d   1     -16.262  11.813  14.219  0.00  0.00     0.091 A 
ATOM      6  N23 07J d   1     -15.779  10.766  13.543  0.00  0.00    -0.224 NA
ATOM      7  H   07J d   1     -18.754   9.270  13.137  0.00  0.00     0.095 H 
ATOM      8  H   07J d   1     -15.534  12.563  14.529  0.00  0.00     0.146 H 
ENDROOT
BRANCH   3   9
ATOM      9  N24 07J d   1     -19.772  11.354  14.509  0.00  0.00    -0.341 N 
ATOM     10  H   07J d   1     -20.012  12.319  14.735  0.00  0.00     0.167 HD
BRANCH   9  11
ATOM     11  C25 07J d   1     -20.834  10.433  14.571  0.00  0.00     0.033 A 
ATOM     12  C26 07J d   1     -21.286   9.751  13.459  0.00  0.00    -0.056 A 
ATOM     13  C27 07J d   1     -22.348   8.874  13.556  0.00  0.00    -0.060 A 
ATOM     14  H   07J d   1     -20.800   9.906  12.496  0.00  0.00     0.087 H 
ATOM     15  C28 07J d   1     -22.994   8.671  14.765  0.00  0.00     0.010 A 
ATOM     16  H   07J d   1     -22.683   8.334  12.670  0.00  0.00     0.086 H 
ATOM     17  C29 07J d   1     -22.548   9.370  15.869  0.00  0.00    -0.060 A 
ATOM     18  C30 07J d   1     -21.483  10.241  15.775  0.00  0.00    -0.056 A 
ATOM     19  H   07J d   1     -23.045   9.231  16.829  0.00  0.00     0.086 H 
ATOM     20  H   07J d   1     -21.150  10.783  16.660  0.00  0.00     0.087 H 
BRANCH  15  21
ATOM     21  N31 07J d   1     -24.089   7.789  14.922  0.00  0.00    -0.280 NA
ATOM     22  C32 07J d   1     -25.206   8.445  15.604  0.00  0.00     0.009 C 
ATOM     23  C33 07J d   1     -26.287   7.419  15.884  0.00  0.00     0.124 C 
ATOM     24  H   07J d   1     -25.607   9.238  14.972  0.00  0.00     0.059 H 
ATOM     25  H   07J d   1     -24.860   8.878  16.542  0.00  0.00     0.059 H 
ATOM     26  N34 07J d   1     -26.626   6.798  14.573  0.00  0.00     0.090 N 
ATOM     27  H   07J d   1     -27.163   7.886  16.334  0.00  0.00     0.081 H 
ATOM     28  H   07J d   1     -25.940   6.669  16.595  0.00  0.00     0.081 H 
ATOM     29  C37 07J d   1     -25.498   6.043  13.949  0.00  0.00     0.124 C 
ATOM     30  C38 07J d   1     -24.375   7.034  13.700  0.00  0.00     0.009 C 
ATOM     31  H   07J d   1     -25.816   5.582  13.014  0.00  0.00     0.081 H 
ATOM     32  H   07J d   1     -25.163   5.242  14.607  0.00  0.00     0.081 H 
ATOM     33  H   07J d   1     -23.480   6.491  13.398  0.00  0.00     0.059 H 
ATOM     34  H   07J d   1     -24.677   7.726  12.914  0.00  0.00     0.059 H 
BRANCH  26  35
ATOM     35  C35 07J d   1     -27.892   6.024  14.616  0.00  0.00     0.110 C 
ATOM     36  H   07J d   1     -27.884   5.327  15.454  0.00  0.00     0.079 H 
ATOM     37  H   07J d   1     -28.012   5.439  13.704  0.00  0.00     0.079 H 
BRANCH  35  38
ATOM     38  C36 07J d   1     -29.025   7.014  14.762  0.00  0.00    -0.051 C 
ATOM     39  H   07J d   1     -28.893   7.582  15.683  0.00  0.00     0.029 H 
ATOM     40  H   07J d   1     -29.023   7.695  13.911  0.00  0.00     0.029 H 
ATOM     41  H   07J d   1     -29.973   6.477  14.797  0.00  0.00     0.029 H 
ENDBRANCH  35  38
ENDBRANCH  26  35
ENDBRANCH  15  21
ENDBRANCH   9  11
ENDBRANCH   3   9
BRANCH   1  42
ATOM     42  N16 07J d   1     -16.287   8.711  12.416  0.00  0.00    -0.288 N 
ATOM     43  C2  07J d   1     -15.083   8.601  11.722  0.00  0.00     0.328 C 
ATOM     44  O1  07J d   1     -14.787   7.616  11.055  0.00  0.00    -0.246 OA
ATOM     45  N3  07J d   1     -14.223   9.676  11.847  0.00  0.00    -0.305 N 
ATOM     46  H   07J d   1     -14.482  10.467  12.437  0.00  0.00     0.171 HD
BRANCH  45  47
ATOM     47  C4  07J d   1     -12.994   9.686  11.166  0.00  0.00     0.085 A 
ATOM     48  C5  07J d   1     -11.898   8.980  11.619  0.00  0.00     0.096 A 
ATOM     49 CL1  07J d   1     -11.972   8.068  13.081  0.00  0.00    -0.079 Cl
ATOM     50  C7  07J d   1     -10.715   9.015  10.908  0.00  0.00     0.095 A 
ATOM     51  C10 07J d   1     -10.631   9.738   9.732  0.00  0.00    -0.015 A 
ATOM     52  C11 07J d   1     -11.724  10.455   9.280  0.00  0.00     0.095 A 
ATOM     53  H   07J d   1      -9.703   9.743   9.161  0.00  0.00     0.092 H 
ATOM     54  C14 07J d   1     -12.900  10.413   9.998  0.00  0.00     0.096 A 
ATOM     55 CL2  07J d   1     -14.267  11.294   9.452  0.00  0.00    -0.079 Cl
BRANCH  50  56
ATOM     56  O8  07J d   1      -9.661   8.271  11.425  0.00  0.00    -0.354 OA
BRANCH  56  57
ATOM     57  C9  07J d   1      -8.548   8.295  10.540  0.00  0.00     0.010 C 
ATOM     58  H   07J d   1      -8.841   7.872   9.579  0.00  0.00     0.066 H 
ATOM     59  H   07J d   1      -8.219   9.325  10.400  0.00  0.00     0.066 H 
ATOM     60  H   07J d   1      -7.735   7.706  10.965  0.00  0.00     0.066 H 
ENDBRANCH  56  57
ENDBRANCH  50  56
BRANCH  52  61
ATOM     61  O12 07J d   1     -11.725  11.212   8.110  0.00  0.00    -0.354 OA
BRANCH  61  62
ATOM     62  C13 07J d   1     -10.485  11.081   7.419  0.00  0.00     0.010 C 
ATOM     63  H   07J d   1      -9.675  11.427   8.061  0.00  0.00     0.066 H 
ATOM     64  H   07J d   1     -10.324  10.035   7.160  0.00  0.00     0.066 H 
ATOM     65  H   07J d   1     -10.512  11.681   6.510  0.00  0.00     0.066 H 
ENDBRANCH  61  62
ENDBRANCH  52  61
ENDBRANCH  45  47
BRANCH  42  66
ATOM     66  C17 07J d   1     -17.227   7.611  12.333  0.00  0.00    -0.008 C 
ATOM     67  H   07J d   1     -17.444   7.243  13.336  0.00  0.00     0.057 H 
ATOM     68  H   07J d   1     -18.148   7.957  11.865  0.00  0.00     0.057 H 
ATOM     69  H   07J d   1     -16.794   6.809  11.736  0.00  0.00     0.057 H 
ENDBRANCH  42  66
ENDBRANCH   1  42
TORSDOF 12
