REMARK  6 active torsions:
REMARK  status: ('A' for Active; 'I' for Inactive)
REMARK    1  A    between atoms: C1_1  and  N6_17 
REMARK    2  A    between atoms: C10_21  and  O1_4 
REMARK    3  A    between atoms: N3_11  and  C13_24 
REMARK    4  A    between atoms: N5_15  and  C5_14 
REMARK    5  A    between atoms: C6_16  and  N5_15 
REMARK    6  A    between atoms: N6_17  and  C7_18 
ROOT
ATOM      1  C1  KBI d   1     -21.719   6.480 -31.872  0.00  0.00     0.724 A 
ATOM      2  N1  KBI d   1     -20.504   6.227 -32.404  0.00  0.00    -0.073 NA
ATOM      3  C2  KBI d   1     -21.425   8.776 -32.197  0.00  0.00     0.196 A 
ATOM      4  N2  KBI d   1     -22.173   7.744 -31.771  0.00  0.00    -0.042 NA
ATOM      5  C3  KBI d   1     -20.172   8.536 -32.745  0.00  0.00     0.141 A 
ATOM      6  N3  KBI d   1     -21.602  10.095 -32.234  0.00  0.00    -0.154 N 
ATOM      7  C4  KBI d   1     -19.732   7.214 -32.835  0.00  0.00     0.053 A 
ATOM      8  N4  KBI d   1     -19.635   9.717 -33.085  0.00  0.00    -0.059 NA
ATOM      9  C5  KBI d   1     -20.519  10.670 -32.762  0.00  0.00     0.710 A 
ATOM     10  H2  KBI d   1     -18.758   6.995 -33.258  0.00  0.00     0.119 H 
ENDROOT
BRANCH   1  11
ATOM     11  N6  KBI d   1     -22.475   5.463 -31.447  0.00  0.00    -0.218 N 
ATOM     12  H4  KBI d   1     -22.066   4.519 -31.412  0.00  0.00     0.178 HD
BRANCH  11  13
ATOM     13  C7  KBI d   1     -23.878   5.649 -31.026  0.00  0.00     0.026 C 
ATOM     14  C8  KBI d   1     -23.939   5.804 -29.493  0.00  0.00    -0.043 C 
ATOM     15  C9  KBI d   1     -25.385   5.873 -28.980  0.00  0.00    -0.039 C 
ATOM     16  H6  KBI d   1     -23.416   6.729 -29.208  0.00  0.00     0.036 H 
ATOM     17  H7  KBI d   1     -23.438   4.942 -29.028  0.00  0.00     0.036 H 
ATOM     18  C10 KBI d   1     -26.176   4.632 -29.410  0.00  0.00     0.035 C 
ATOM     19  H8  KBI d   1     -25.871   6.770 -29.391  0.00  0.00     0.036 H 
ATOM     20  H9  KBI d   1     -25.375   5.932 -27.882  0.00  0.00     0.036 H 
ATOM     21  C11 KBI d   1     -26.159   4.526 -30.943  0.00  0.00    -0.039 C 
ATOM     22  H10 KBI d   1     -25.711   3.734 -28.978  0.00  0.00     0.082 H 
ATOM     23  C12 KBI d   1     -24.715   4.436 -31.465  0.00  0.00    -0.043 C 
ATOM     24  H11 KBI d   1     -26.643   5.416 -31.372  0.00  0.00     0.036 H 
ATOM     25  H12 KBI d   1     -26.710   3.625 -31.249  0.00  0.00     0.036 H 
ATOM     26  H13 KBI d   1     -24.250   3.520 -31.072  0.00  0.00     0.036 H 
ATOM     27  H14 KBI d   1     -24.735   4.395 -32.564  0.00  0.00     0.036 H 
ATOM     28  H5  KBI d   1     -24.282   6.557 -31.498  0.00  0.00     0.073 H 
BRANCH  18  29
ATOM     29  O1  KBI d   1     -27.519   4.739 -28.941  0.00  0.00    -0.396 OA
ATOM     30  H1  KBI d   1     -28.009   3.970 -29.208  0.00  0.00     0.210 HD
ENDBRANCH  18  29
ENDBRANCH  11  13
ENDBRANCH   1  11
BRANCH   6  31
ATOM     31  C13 KBI d   1     -22.784  10.820 -31.743  0.00  0.00     0.058 C 
ATOM     32  C14 KBI d   1     -22.564  11.141 -30.257  0.00  0.00     0.039 C 
ATOM     33  O2  KBI d   1     -23.412  10.237 -29.524  0.00  0.00    -0.389 OA
ATOM     34  H16 KBI d   1     -21.510  10.982 -29.984  0.00  0.00     0.077 H 
ATOM     35  H17 KBI d   1     -22.844  12.184 -30.046  0.00  0.00     0.077 H 
ATOM     36  C15 KBI d   1     -24.591  10.088 -30.336  0.00  0.00     0.021 C 
ATOM     37  C16 KBI d   1     -24.038   9.948 -31.759  0.00  0.00    -0.023 C 
ATOM     38  H18 KBI d   1     -25.239  10.973 -30.253  0.00  0.00     0.074 H 
ATOM     39  H19 KBI d   1     -25.157   9.191 -30.045  0.00  0.00     0.074 H 
ATOM     40  H20 KBI d   1     -23.786   8.901 -31.981  0.00  0.00     0.039 H 
ATOM     41  H21 KBI d   1     -24.763  10.316 -32.500  0.00  0.00     0.039 H 
ATOM     42  H15 KBI d   1     -22.938  11.734 -32.335  0.00  0.00     0.077 H 
ENDBRANCH   6  31
BRANCH   9  43
ATOM     43  N5  KBI d   1     -20.374  11.994 -32.952  0.00  0.00    -0.183 N 
ATOM     44  H3  KBI d   1     -21.060  12.626 -32.514  0.00  0.00     0.184 HD
BRANCH  43  45
ATOM     45  C6  KBI d   1     -19.384  12.540 -33.681  0.00  0.00     0.126 A 
ATOM     46  C17 KBI d   1     -19.120  12.124 -34.986  0.00  0.00     0.149 A 
ATOM     47  F3  KBI d   1     -19.861  11.156 -35.558  0.00  0.00    -0.203 F 
ATOM     48  C18 KBI d   1     -18.080  12.705 -35.712  0.00  0.00    -0.006 A 
ATOM     49  C19 KBI d   1     -17.301  13.713 -35.152  0.00  0.00     0.122 A 
ATOM     50  H22 KBI d   1     -17.877  12.368 -36.722  0.00  0.00     0.093 H 
ATOM     51  F2  KBI d   1     -16.295  14.272 -35.854  0.00  0.00    -0.206 F 
ATOM     52  C20 KBI d   1     -17.564  14.138 -33.854  0.00  0.00    -0.006 A 
ATOM     53  C21 KBI d   1     -18.599  13.554 -33.127  0.00  0.00     0.149 A 
ATOM     54  H23 KBI d   1     -16.964  14.923 -33.408  0.00  0.00     0.093 H 
ATOM     55  F1  KBI d   1     -18.841  13.984 -31.875  0.00  0.00    -0.203 F 
ENDBRANCH  43  45
ENDBRANCH   9  43
TORSDOF 6
