REMARK  7 active torsions:
REMARK  status: ('A' for Active; 'I' for Inactive)
REMARK    1  A    between atoms: C20_28  and  O1_4 
REMARK    2  A    between atoms: O1_4  and  C23_31 
REMARK    3  A    between atoms: N3_8  and  C6_13 
REMARK    4  A    between atoms: N5_12  and  C4_9 
REMARK    5  A    between atoms: C5_11  and  N6_14 
REMARK    6  A    between atoms: C7_15  and  N5_12 
REMARK    7  A    between atoms: N6_14  and  C8_16 
ROOT
ATOM      1  C1  JBI d   1      21.156   8.470  31.857  0.00  0.00     0.196 A 
ATOM      2  N1  JBI d   1      20.170   5.971  32.143  0.00  0.00    -0.072 NA
ATOM      3  C2  JBI d   1      19.958   8.267  32.520  0.00  0.00     0.141 A 
ATOM      4  N2  JBI d   1      21.826   7.419  31.359  0.00  0.00    -0.042 NA
ATOM      5  C3  JBI d   1      19.476   6.972  32.651  0.00  0.00     0.053 A 
ATOM      6  N3  JBI d   1      21.381   9.782  31.891  0.00  0.00    -0.157 N 
ATOM      7  C4  JBI d   1      21.336   6.174  31.507  0.00  0.00     0.728 A 
ATOM      8  N4  JBI d   1      19.499   9.455  32.920  0.00  0.00    -0.059 NA
ATOM      9  C5  JBI d   1      20.373  10.377  32.526  0.00  0.00     0.710 A 
ATOM     10  H1  JBI d   1      18.540   6.785  33.165  0.00  0.00     0.119 H 
ENDROOT
BRANCH   7  11
ATOM     11  N5  JBI d   1      21.974   5.111  31.009  0.00  0.00    -0.188 N 
ATOM     12  H2  JBI d   1      21.465   4.216  30.989  0.00  0.00     0.184 HD
BRANCH  11  13
ATOM     13  C7  JBI d   1      23.227   5.123  30.534  0.00  0.00     0.049 A 
ATOM     14  C18 JBI d   1      23.625   6.039  29.566  0.00  0.00    -0.054 A 
ATOM     15  C19 JBI d   1      24.927   6.021  29.074  0.00  0.00    -0.049 A 
ATOM     16  H17 JBI d   1      22.918   6.771  29.193  0.00  0.00     0.087 H 
ATOM     17  C20 JBI d   1      25.837   5.077  29.543  0.00  0.00     0.068 A 
ATOM     18  H18 JBI d   1      25.233   6.742  28.325  0.00  0.00     0.087 H 
ATOM     19  C21 JBI d   1      25.438   4.156  30.507  0.00  0.00    -0.049 A 
ATOM     20  C22 JBI d   1      24.136   4.179  30.997  0.00  0.00    -0.054 A 
ATOM     21  H19 JBI d   1      26.142   3.420  30.877  0.00  0.00     0.087 H 
ATOM     22  H20 JBI d   1      23.829   3.456  31.744  0.00  0.00     0.087 H 
BRANCH  17  23
ATOM     23  O1  JBI d   1      27.114   5.064  29.055  0.00  0.00    -0.356 OA
BRANCH  23  24
ATOM     24  C23 JBI d   1      27.936   4.087  29.719  0.00  0.00     0.010 C 
ATOM     25  H21 JBI d   1      28.951   4.112  29.295  0.00  0.00     0.066 H 
ATOM     26  H22 JBI d   1      27.504   3.086  29.576  0.00  0.00     0.066 H 
ATOM     27  H23 JBI d   1      27.982   4.316  30.794  0.00  0.00     0.066 H 
ENDBRANCH  23  24
ENDBRANCH  17  23
ENDBRANCH  11  13
ENDBRANCH   7  11
BRANCH   6  28
ATOM     28  C6  JBI d   1      22.548  10.469  31.297  0.00  0.00     0.036 C 
ATOM     29  C9  JBI d   1      23.839   9.712  31.624  0.00  0.00    -0.045 C 
ATOM     30  C10 JBI d   1      24.715   9.978  30.407  0.00  0.00    -0.063 C 
ATOM     31  H5  JBI d   1      23.646   8.636  31.744  0.00  0.00     0.036 H 
ATOM     32  H6  JBI d   1      24.306  10.105  32.539  0.00  0.00     0.036 H 
ATOM     33  C11 JBI d   1      23.739   9.811  29.245  0.00  0.00    -0.063 C 
ATOM     34  H7  JBI d   1      25.536   9.249  30.343  0.00  0.00     0.033 H 
ATOM     35  H8  JBI d   1      25.130  10.996  30.433  0.00  0.00     0.033 H 
ATOM     36  C12 JBI d   1      22.437  10.443  29.754  0.00  0.00    -0.045 C 
ATOM     37  H9  JBI d   1      23.590   8.747  29.010  0.00  0.00     0.033 H 
ATOM     38  H10 JBI d   1      24.104  10.336  28.350  0.00  0.00     0.033 H 
ATOM     39  H11 JBI d   1      22.330  11.465  29.362  0.00  0.00     0.036 H 
ATOM     40  H12 JBI d   1      21.572   9.838  29.444  0.00  0.00     0.036 H 
ATOM     41  H3  JBI d   1      22.600  11.503  31.668  0.00  0.00     0.074 H 
ENDBRANCH   6  28
BRANCH   9  42
ATOM     42  N6  JBI d   1      20.266  11.693  32.746  0.00  0.00    -0.187 N 
ATOM     43  H4  JBI d   1      20.976  12.315  32.333  0.00  0.00     0.184 HD
BRANCH  42  44
ATOM     44  C8  JBI d   1      19.286  12.247  33.475  0.00  0.00     0.087 A 
ATOM     45  C13 JBI d   1      19.083  11.880  34.806  0.00  0.00     0.143 A 
ATOM     46  F1  JBI d   1      19.861  10.939  35.380  0.00  0.00    -0.204 F 
ATOM     47  C14 JBI d   1      18.075  12.473  35.555  0.00  0.00    -0.043 A 
ATOM     48  C15 JBI d   1      17.258  13.449  34.982  0.00  0.00    -0.080 A 
ATOM     49  H13 JBI d   1      17.922  12.177  36.587  0.00  0.00     0.088 H 
ATOM     50  C16 JBI d   1      17.461  13.828  33.657  0.00  0.00    -0.081 A 
ATOM     51  H14 JBI d   1      16.469  13.910  35.565  0.00  0.00     0.083 H 
ATOM     52  C17 JBI d   1      18.474  13.229  32.908  0.00  0.00    -0.054 A 
ATOM     53  H15 JBI d   1      16.832  14.588  33.208  0.00  0.00     0.083 H 
ATOM     54  H16 JBI d   1      18.631  13.529  31.878  0.00  0.00     0.087 H 
ENDBRANCH  42  44
ENDBRANCH   9  42
TORSDOF 7
