REMARK  9 active torsions:
REMARK  status: ('A' for Active; 'I' for Inactive)
REMARK    1  A    between atoms: N1_1  and  C2_2 
REMARK    2  A    between atoms: C2_2  and  C3_3 
REMARK    3  A    between atoms: C3_3  and  C4_4 
REMARK    4  A    between atoms: C4_4  and  C5_5 
REMARK    5  A    between atoms: C5_5  and  N6_6 
REMARK    6  A    between atoms: N6_6  and  C7_7 
REMARK    7  A    between atoms: C7_7  and  C8_8 
REMARK    8  A    between atoms: C8_8  and  C9_9 
REMARK    9  A    between atoms: C9_9  and  N10_10 
ROOT
ATOM      1  C5  SPD d   1      22.458  30.397  33.178  0.00  0.00     0.082 C 
ATOM      2  H10 SPD d   1      22.062  29.851  32.309  0.00  0.00     0.075 H 
ATOM      3  H11 SPD d   1      22.364  31.479  33.005  0.00  0.00     0.075 H 
ENDROOT
BRANCH   1   4
ATOM      4  C4  SPD d   1      23.927  30.063  33.321  0.00  0.00    -0.041 C 
ATOM      5  H8  SPD d   1      24.534  30.867  32.880  0.00  0.00     0.035 H 
ATOM      6  H9  SPD d   1      24.180  29.954  34.386  0.00  0.00     0.035 H 
BRANCH   4   7
ATOM      7  C3  SPD d   1      24.202  28.749  32.589  0.00  0.00    -0.041 C 
ATOM      8  H6  SPD d   1      23.947  27.906  33.247  0.00  0.00     0.035 H 
ATOM      9  H7  SPD d   1      23.585  28.704  31.679  0.00  0.00     0.035 H 
BRANCH   7  10
ATOM     10  C2  SPD d   1      25.674  28.661  32.205  0.00  0.00     0.080 C 
ATOM     11  H4  SPD d   1      25.861  29.302  31.331  0.00  0.00     0.075 H 
ATOM     12  H5  SPD d   1      26.291  29.003  33.049  0.00  0.00     0.075 H 
BRANCH  10  13
ATOM     13  N1  SPD d   1      26.024  27.288  31.879  0.00  0.00    -0.079 N 
ATOM     14  H1  SPD d   1      26.999  27.241  31.627  0.00  0.00     0.274 HD
ATOM     15  H2  SPD d   1      25.461  26.972  31.105  0.00  0.00     0.274 HD
ATOM     16  H3  SPD d   1      25.855  26.699  32.679  0.00  0.00     0.274 HD
ENDBRANCH  10  13
ENDBRANCH   7  10
ENDBRANCH   4   7
ENDBRANCH   1   4
BRANCH   1  17
ATOM     17  N6  SPD d   1      21.672  30.055  34.321  0.00  0.00    -0.075 N 
ATOM     18  H12 SPD d   1      22.283  30.095  35.122  0.00  0.00     0.277 HD
ATOM     19  H13 SPD d   1      21.354  29.108  34.188  0.00  0.00     0.277 HD
BRANCH  17  20
ATOM     20  C7  SPD d   1      20.499  30.857  34.640  0.00  0.00     0.083 C 
ATOM     21  H14 SPD d   1      20.369  31.631  33.869  0.00  0.00     0.075 H 
ATOM     22  H15 SPD d   1      20.644  31.336  35.620  0.00  0.00     0.075 H 
BRANCH  20  23
ATOM     23  C8  SPD d   1      19.247  29.982  34.689  0.00  0.00    -0.020 C 
ATOM     24  H16 SPD d   1      19.505  29.034  35.183  0.00  0.00     0.037 H 
ATOM     25  H17 SPD d   1      18.922  29.782  33.657  0.00  0.00     0.037 H 
BRANCH  23  26
ATOM     26  C9  SPD d   1      18.079  30.623  35.449  0.00  0.00     0.081 C 
ATOM     27  H18 SPD d   1      18.104  31.716  35.330  0.00  0.00     0.075 H 
ATOM     28  H19 SPD d   1      18.138  30.369  36.518  0.00  0.00     0.075 H 
BRANCH  26  29
ATOM     29  N10 SPD d   1      16.856  30.085  34.873  0.00  0.00    -0.079 N 
ATOM     30  H20 SPD d   1      16.059  30.482  35.346  0.00  0.00     0.274 HD
ATOM     31  H21 SPD d   1      16.846  29.083  34.981  0.00  0.00     0.274 HD
ATOM     32  H22 SPD d   1      16.816  30.317  33.893  0.00  0.00     0.274 HD
ENDBRANCH  26  29
ENDBRANCH  23  26
ENDBRANCH  20  23
ENDBRANCH  17  20
ENDBRANCH   1  17
TORSDOF 9
