REMARK  5 active torsions:
REMARK  status: ('A' for Active; 'I' for Inactive)
REMARK    1  A    between atoms: C2_3  and  C1_1 
REMARK    2  A    between atoms: C5_7  and  C8_9 
REMARK       I    between atoms: C8_9  and  N10_11 
REMARK    3  A    between atoms: N10_11  and  C11_12 
REMARK    4  A    between atoms: N15_15  and  C20_19 
REMARK    5  A    between atoms: C23_22  and  C25_24 
ROOT
ATOM      1  C11 07N d   1       0.133   3.828  25.026  0.00  0.00     0.045 C 
ATOM      2  C13 07N d   1       0.858   2.468  25.034  0.00  0.00    -0.029 C 
ATOM      3  C14 07N d   1      -0.031   1.420  25.714  0.00  0.00    -0.001 C 
ATOM      4  N15 07N d   1      -1.309   1.383  24.989  0.00  0.00    -0.357 N 
ATOM      5  C16 07N d   1      -2.099   2.619  24.979  0.00  0.00     0.027 C 
ATOM      6  C17 07N d   1      -1.234   3.711  24.330  0.00  0.00     0.114 C 
ATOM      7  F19 07N d   1      -1.006   3.384  22.990  0.00  0.00    -0.246 F 
ATOM      8  H6  07N d   1      -0.009   4.166  26.063  0.00  0.00     0.077 H 
ATOM      9  H7  07N d   1       1.805   2.560  25.587  0.00  0.00     0.038 H 
ATOM     10  H8  07N d   1       1.066   2.157  24.000  0.00  0.00     0.038 H 
ATOM     11  H9  07N d   1      -0.203   1.699  26.764  0.00  0.00     0.064 H 
ATOM     12  H10 07N d   1       0.453   0.433  25.671  0.00  0.00     0.064 H 
ATOM     13  H11 07N d   1      -2.359   2.908  26.008  0.00  0.00     0.068 H 
ATOM     14  H12 07N d   1      -3.020   2.472  24.395  0.00  0.00     0.068 H 
ATOM     15  H13 07N d   1      -1.761   4.674  24.395  0.00  0.00     0.097 H 
ENDROOT
BRANCH   1  16
ATOM     16  N10 07N d   1       0.922   4.822  24.285  0.00  0.00    -0.348 N 
ATOM     17  C8  07N d   1       2.078   5.335  24.760  0.00  0.00     0.270 C 
ATOM     18  O9  07N d   1       2.534   4.990  25.835  0.00  0.00    -0.266 OA
ATOM     19  H5  07N d   1       0.590   5.131  23.394  0.00  0.00     0.163 HD
BRANCH  17  20
ATOM     20  C5  07N d   1       2.834   6.321  23.990  0.00  0.00     0.124 A 
ATOM     21  C4  07N d   1       2.524   6.919  22.778  0.00  0.00     0.089 A 
ATOM     22 CL1  07N d   1       1.125   6.710  21.769  0.00  0.00    -0.080 Cl
ATOM     23  C3  07N d   1       3.576   7.784  22.478  0.00  0.00     0.080 A 
ATOM     24  C2  07N d   1       4.490   7.705  23.475  0.00  0.00     0.029 A 
ATOM     25 CL2  07N d   1       3.654   8.768  21.053  0.00  0.00    -0.080 Cl
ATOM     26  N6  07N d   1       4.047   6.822  24.400  0.00  0.00    -0.353 N 
ATOM     27  H4  07N d   1       4.538   6.567  25.269  0.00  0.00     0.166 HD
BRANCH  24  28
ATOM     28  C1  07N d   1       5.789   8.462  23.565  0.00  0.00    -0.036 C 
ATOM     29  H1  07N d   1       6.312   8.184  24.492  0.00  0.00     0.035 H 
ATOM     30  H2  07N d   1       5.584   9.543  23.570  0.00  0.00     0.035 H 
ATOM     31  H3  07N d   1       6.420   8.213  22.699  0.00  0.00     0.035 H 
ENDBRANCH  24  28
ENDBRANCH  17  20
ENDBRANCH   1  16
BRANCH   4  32
ATOM     32  C20 07N d   1      -1.908   0.157  24.774  0.00  0.00     0.169 A 
ATOM     33  N21 07N d   1      -2.995  -0.047  24.077  0.00  0.00    -0.235 NA
ATOM     34  C22 07N d   1      -3.410  -1.286  23.964  0.00  0.00     0.028 A 
ATOM     35  C23 07N d   1      -2.614  -2.198  24.607  0.00  0.00     0.102 A 
ATOM     36  H14 07N d   1      -4.305  -1.565  23.410  0.00  0.00     0.117 H 
ATOM     37  S24 07N d   1      -1.294  -1.323  25.369  0.00  0.00    -0.044 SA
BRANCH  35  38
ATOM     38  C25 07N d   1      -2.785  -3.603  24.668  0.00  0.00     0.218 C 
ATOM     39  O26 07N d   1      -3.715  -4.145  24.101  0.00  0.00    -0.643 OA
ATOM     40  O27 07N d   1      -1.888  -4.343  25.350  0.00  0.00    -0.643 OA
ENDBRANCH  35  38
ENDBRANCH   4  32
TORSDOF 5
