REMARK  10 active torsions:
REMARK  status: ('A' for Active; 'I' for Inactive)
REMARK    1  A    between atoms: C2_8  and  C7_9 
REMARK    2  A    between atoms: C7_9  and  N1_10 
REMARK       I    between atoms: N1_10  and  C8_11 
REMARK    3  A    between atoms: N1_10  and  C9_13 
REMARK    4  A    between atoms: C9_13  and  C10_14 
REMARK    5  A    between atoms: C9_13  and  C11_21 
REMARK       I    between atoms: C10_14  and  N3_16 
REMARK    6  A    between atoms: N3_16  and  C20_17 
REMARK    7  A    between atoms: C20_17  and  C22_18 
REMARK    8  A    between atoms: C20_17  and  C23_19 
REMARK    9  A    between atoms: C20_17  and  C21_20 
REMARK   10  A    between atoms: C12_30  and  C19_31 
ROOT
ATOM      1  C9  07G d   1       7.440  -1.428  19.036  0.00  0.00     0.120 C 
ATOM      2  H   07G d   1       8.177  -0.751  19.491  0.00  0.00     0.096 H 
ENDROOT
BRANCH   1   3
ATOM      3  N1  07G d   1       6.632  -1.366  20.232  0.00  0.00    -0.337 N 
ATOM      4  C8  07G d   1       5.661  -2.192  20.598  0.00  0.00     0.172 C 
ATOM      5  O1  07G d   1       5.069  -2.037  21.668  0.00  0.00    -0.283 OA
ATOM      6  H   07G d   1       5.383  -3.018  19.945  0.00  0.00     0.180 H 
BRANCH   3   7
ATOM      7  C7  07G d   1       7.123  -0.290  21.103  0.00  0.00     0.022 C 
ATOM      8  H   07G d   1       6.910  -0.567  22.146  0.00  0.00     0.071 H 
ATOM      9  H   07G d   1       8.210  -0.201  20.962  0.00  0.00     0.071 H 
BRANCH   7  10
ATOM     10  C2  07G d   1       6.488   1.080  20.829  0.00  0.00    -0.037 A 
ATOM     11  C3  07G d   1       7.260   2.235  20.984  0.00  0.00    -0.035 A 
ATOM     12  C4  07G d   1       6.717   3.498  20.775  0.00  0.00     0.155 A 
ATOM     13  H   07G d   1       8.301   2.144  21.272  0.00  0.00     0.089 H 
ATOM     14  F1  07G d   1       7.463   4.611  20.928  0.00  0.00    -0.203 F 
ATOM     15  C5  07G d   1       5.386   3.609  20.411  0.00  0.00     0.154 A 
ATOM     16  F2  07G d   1       4.866   4.828  20.212  0.00  0.00    -0.203 F 
ATOM     17  C6  07G d   1       4.605   2.468  20.248  0.00  0.00    -0.042 A 
ATOM     18  C1  07G d   1       5.153   1.203  20.462  0.00  0.00    -0.072 A 
ATOM     19  H   07G d   1       3.566   2.563  19.953  0.00  0.00     0.088 H 
ATOM     20  H   07G d   1       4.539   0.318  20.342  0.00  0.00     0.084 H 
ENDBRANCH   7  10
ENDBRANCH   3   7
ENDBRANCH   1   3
BRANCH   1  21
ATOM     21  C10 07G d   1       8.489  -2.458  18.887  0.00  0.00     0.246 C 
ATOM     22  O2  07G d   1       9.105  -2.710  19.916  0.00  0.00    -0.271 OA
ATOM     23  N3  07G d   1       8.801  -2.906  17.655  0.00  0.00    -0.351 N 
ATOM     24  H   07G d   1       8.219  -2.628  16.891  0.00  0.00     0.163 HD
BRANCH  23  25
ATOM     25  C20 07G d   1       9.961  -3.790  17.368  0.00  0.00     0.022 C 
BRANCH  25  26
ATOM     26  C22 07G d   1       9.938  -5.058  18.218  0.00  0.00    -0.054 C 
ATOM     27  H   07G d   1      10.812  -5.680  17.973  0.00  0.00     0.030 H 
ATOM     28  H   07G d   1       9.017  -5.622  18.010  0.00  0.00     0.030 H 
ATOM     29  H   07G d   1       9.969  -4.786  19.283  0.00  0.00     0.030 H 
ENDBRANCH  25  26
BRANCH  25  30
ATOM     30  C23 07G d   1       9.968  -4.162  15.887  0.00  0.00    -0.054 C 
ATOM     31  H   07G d   1      10.827  -4.816  15.677  0.00  0.00     0.030 H 
ATOM     32  H   07G d   1      10.046  -3.248  15.280  0.00  0.00     0.030 H 
ATOM     33  H   07G d   1       9.036  -4.690  15.637  0.00  0.00     0.030 H 
ENDBRANCH  25  30
BRANCH  25  34
ATOM     34  C21 07G d   1      11.230  -2.980  17.663  0.00  0.00    -0.054 C 
ATOM     35  H   07G d   1      12.116  -3.600  17.462  0.00  0.00     0.030 H 
ATOM     36  H   07G d   1      11.230  -2.671  18.719  0.00  0.00     0.030 H 
ATOM     37  H   07G d   1      11.254  -2.088  17.019  0.00  0.00     0.030 H 
ENDBRANCH  25  34
ENDBRANCH  23  25
ENDBRANCH   1  21
BRANCH   1  38
ATOM     38  C11 07G d   1       7.173  -0.403  17.929  0.00  0.00     0.020 A 
ATOM     39  C14 07G d   1       8.194   0.494  17.701  0.00  0.00     0.002 A 
ATOM     40  C15 07G d   1       9.480   0.603  18.231  0.00  0.00    -0.069 A 
ATOM     41  C13 07G d   1       7.750   1.369  16.725  0.00  0.00     0.045 A 
ATOM     42  C16 07G d   1      10.320   1.606  17.785  0.00  0.00    -0.061 A 
ATOM     43  H   07G d   1       9.819  -0.095  18.988  0.00  0.00     0.085 H 
ATOM     44  C17 07G d   1       9.885   2.492  16.808  0.00  0.00     0.036 A 
ATOM     45  H   07G d   1      11.318   1.701  18.198  0.00  0.00     0.086 H 
ATOM     46 CL1  07G d   1      10.928   3.754  16.256  0.00  0.00    -0.084 Cl
ATOM     47  C18 07G d   1       8.602   2.373  16.280  0.00  0.00    -0.035 A 
ATOM     48  H   07G d   1       8.266   3.067  15.518  0.00  0.00     0.089 H 
ATOM     49  N2  07G d   1       6.495   1.034  16.399  0.00  0.00    -0.349 N 
ATOM     50  C12 07G d   1       6.112  -0.027  17.122  0.00  0.00     0.120 A 
ATOM     51  H   07G d   1       5.913   1.518  15.700  0.00  0.00     0.166 HD
BRANCH  50  52
ATOM     52  C19 07G d   1       4.731  -0.643  16.974  0.00  0.00     0.227 C 
ATOM     53  O4  07G d   1       4.332  -1.489  17.794  0.00  0.00    -0.643 OA
ATOM     54  O3  07G d   1       4.065  -0.209  16.023  0.00  0.00    -0.643 OA
ENDBRANCH  50  52
ENDBRANCH   1  38
TORSDOF 10
