REMARK  14 active torsions:
REMARK  status: ('A' for Active; 'I' for Inactive)
REMARK    1  A    between atoms: C01_1  and  O02_2 
REMARK    2  A    between atoms: O02_2  and  C03_3 
REMARK    3  A    between atoms: C03_3  and  C04_4 
REMARK    4  A    between atoms: C03_3  and  C10_10 
REMARK    5  A    between atoms: C04_4  and  O05_5 
REMARK    6  A    between atoms: O05_5  and  P06_6 
REMARK    7  A    between atoms: C10_10  and  O11_11 
REMARK    8  A    between atoms: C10_10  and  C12_12 
REMARK    9  A    between atoms: C12_12  and  O13_13 
REMARK   10  A    between atoms: C12_12  and  C14_14 
REMARK   11  A    between atoms: C14_14  and  O15_15 
REMARK   12  A    between atoms: C14_14  and  C16_16 
REMARK   13  A    between atoms: C16_16  and  O17_17 
REMARK   14  A    between atoms: O17_17  and  P18_18 
ROOT
ATOM      1  C10 5MM d   1       3.918 -30.486  50.186  0.00  0.00     0.089 C 
ATOM      2  H7  5MM d   1       3.995 -31.529  49.845  0.00  0.00     0.091 H 
ENDROOT
BRANCH   1   3
ATOM      3  C03 5MM d   1       4.053 -30.463  51.742  0.00  0.00     0.086 C 
ATOM      4  H4  5MM d   1       4.041 -29.415  52.076  0.00  0.00     0.090 H 
BRANCH   3   5
ATOM      5  O02 5MM d   1       5.289 -31.055  52.117  0.00  0.00    -0.386 OA
BRANCH   5   6
ATOM      6  C01 5MM d   1       6.366 -30.243  52.529  0.00  0.00     0.005 C 
ATOM      7  H1  5MM d   1       7.230 -30.878  52.777  0.00  0.00     0.066 H 
ATOM      8  H2  5MM d   1       6.070 -29.664  53.416  0.00  0.00     0.066 H 
ATOM      9  H3  5MM d   1       6.638 -29.555  51.715  0.00  0.00     0.066 H 
ENDBRANCH   5   6
ENDBRANCH   3   5
BRANCH   3  10
ATOM     10  C04 5MM d   1       2.891 -31.217  52.448  0.00  0.00     0.059 C 
ATOM     11  H5  5MM d   1       2.961 -31.048  53.533  0.00  0.00     0.079 H 
ATOM     12  H6  5MM d   1       2.982 -32.293  52.238  0.00  0.00     0.079 H 
BRANCH  10  13
ATOM     13  O05 5MM d   1       1.633 -30.764  51.992  0.00  0.00    -0.280 OA
BRANCH  13  14
ATOM     14  P06 5MM d   1       0.275 -30.877  52.946  0.00  0.00     0.422 P 
ATOM     15  O07 5MM d   1      -0.780 -30.003  52.421  0.00  0.00    -0.617 OA
ATOM     16  O08 5MM d   1      -0.213 -32.454  52.956  0.00  0.00    -0.617 OA
ATOM     17  O09 5MM d   1       0.627 -30.386  54.469  0.00  0.00    -0.617 OA
ENDBRANCH  13  14
ENDBRANCH  10  13
ENDBRANCH   3  10
ENDBRANCH   1   3
BRANCH   1  18
ATOM     18  O11 5MM d   1       2.662 -29.974  49.801  0.00  0.00    -0.390 OA
ATOM     19  H8  5MM d   1       1.974 -30.507  50.182  0.00  0.00     0.210 HD
ENDBRANCH   1  18
BRANCH   1  20
ATOM     20  C12 5MM d   1       5.055 -29.657  49.509  0.00  0.00     0.089 C 
ATOM     21  H9  5MM d   1       6.017 -30.072  49.845  0.00  0.00     0.091 H 
BRANCH  20  22
ATOM     22  O13 5MM d   1       4.998 -28.308  49.876  0.00  0.00    -0.390 OA
ATOM     23  H10 5MM d   1       5.092 -28.233  50.818  0.00  0.00     0.210 HD
ENDBRANCH  20  22
BRANCH  20  24
ATOM     24  C14 5MM d   1       5.003 -29.733  47.957  0.00  0.00     0.084 C 
ATOM     25  H11 5MM d   1       4.916 -28.721  47.535  0.00  0.00     0.090 H 
BRANCH  24  26
ATOM     26  O15 5MM d   1       3.912 -30.509  47.540  0.00  0.00    -0.391 OA
ATOM     27  H12 5MM d   1       3.895 -30.545  46.591  0.00  0.00     0.210 HD
ENDBRANCH  24  26
BRANCH  24  28
ATOM     28  C16 5MM d   1       6.319 -30.396  47.482  0.00  0.00     0.059 C 
ATOM     29  H13 5MM d   1       7.127 -29.650  47.475  0.00  0.00     0.079 H 
ATOM     30  H14 5MM d   1       6.184 -30.800  46.468  0.00  0.00     0.079 H 
BRANCH  28  31
ATOM     31  O17 5MM d   1       6.648 -31.442  48.368  0.00  0.00    -0.280 OA
BRANCH  31  32
ATOM     32  P18 5MM d   1       7.423 -32.767  47.742  0.00  0.00     0.422 P 
ATOM     33  O19 5MM d   1       7.658 -33.780  48.776  0.00  0.00    -0.617 OA
ATOM     34  O20 5MM d   1       8.870 -32.237  47.165  0.00  0.00    -0.617 OA
ATOM     35  O21 5MM d   1       6.511 -33.382  46.500  0.00  0.00    -0.617 OA
ENDBRANCH  31  32
ENDBRANCH  28  31
ENDBRANCH  24  28
ENDBRANCH  20  24
ENDBRANCH   1  20
TORSDOF 14
