REMARK  3 active torsions:
REMARK  status: ('A' for Active; 'I' for Inactive)
REMARK       I    between atoms: N26_6  and  C26_7 
REMARK    1  A    between atoms: C26_7  and  C25_9 
REMARK    2  A    between atoms: N20_14  and  C20_15 
REMARK       I    between atoms: N15_20  and  C15_21 
REMARK    3  A    between atoms: C15_21  and  C14_23 
ROOT
ATOM      1  C20 RCP d   1       4.854  29.973  21.538  0.00  0.00     0.010 C 
ATOM      2  C19 RCP d   1       5.812  29.178  22.420  0.00  0.00    -0.031 C 
ATOM      3  C18 RCP d   1       5.107  28.840  23.739  0.00  0.00    -0.000 C 
ATOM      4  C17 RCP d   1       4.583  31.296  22.245  0.00  0.00    -0.031 C 
ATOM      5  C16 RCP d   1       3.924  31.014  23.594  0.00  0.00    -0.000 C 
ATOM      6  N15 RCP d   1       4.807  30.125  24.368  0.00  0.00    -0.348 N 
ATOM      7  C15 RCP d   1       5.288  30.444  25.590  0.00  0.00     0.255 C 
ATOM      8  O15 RCP d   1       5.997  29.674  26.239  0.00  0.00    -0.267 OA
ATOM      9  H   RCP d   1       3.933  29.409  21.393  0.00  0.00     0.072 H 
ATOM     10  H   RCP d   1       6.705  29.769  22.620  0.00  0.00     0.038 H 
ATOM     11  H   RCP d   1       6.104  28.259  21.912  0.00  0.00     0.038 H 
ATOM     12  H   RCP d   1       5.736  28.222  24.379  0.00  0.00     0.064 H 
ATOM     13  H   RCP d   1       4.200  28.260  23.568  0.00  0.00     0.064 H 
ATOM     14  H   RCP d   1       3.921  31.910  21.634  0.00  0.00     0.038 H 
ATOM     15  H   RCP d   1       5.521  31.829  22.399  0.00  0.00     0.038 H 
ATOM     16  H   RCP d   1       2.955  30.537  23.443  0.00  0.00     0.064 H 
ATOM     17  H   RCP d   1       3.769  31.948  24.135  0.00  0.00     0.064 H 
ENDROOT
BRANCH   1  18
ATOM     18  N20 RCP d   1       5.409  30.209  20.200  0.00  0.00    -0.407 N 
ATOM     19  C24 RCP d   1       4.959  31.455  19.583  0.00  0.00     0.002 C 
ATOM     20  C25 RCP d   1       5.536  31.715  18.194  0.00  0.00     0.039 C 
ATOM     21  H   RCP d   1       3.877  31.384  19.472  0.00  0.00     0.065 H 
ATOM     22  H   RCP d   1       5.293  32.269  20.226  0.00  0.00     0.065 H 
ATOM     23  C23 RCP d   1       6.050  30.498  17.447  0.00  0.00    -0.051 C 
ATOM     24  H   RCP d   1       6.436  32.316  18.320  0.00  0.00     0.057 H 
ATOM     25  C22 RCP d   1       6.941  29.668  18.350  0.00  0.00    -0.050 C 
ATOM     26  H   RCP d   1       6.626  30.827  16.582  0.00  0.00     0.034 H 
ATOM     27  H   RCP d   1       5.203  29.892  17.126  0.00  0.00     0.034 H 
ATOM     28  C21 RCP d   1       6.233  29.155  19.604  0.00  0.00    -0.009 C 
ATOM     29  H   RCP d   1       7.762  30.307  18.676  0.00  0.00     0.035 H 
ATOM     30  H   RCP d   1       7.266  28.798  17.779  0.00  0.00     0.035 H 
ATOM     31  H   RCP d   1       6.984  28.841  20.329  0.00  0.00     0.063 H 
ATOM     32  H   RCP d   1       5.591  28.318  19.329  0.00  0.00     0.063 H 
BRANCH  20  33
ATOM     33  C26 RCP d   1       4.471  32.424  17.409  0.00  0.00     0.225 C 
ATOM     34  N26 RCP d   1       4.829  33.591  16.853  0.00  0.00    -0.348 N 
ATOM     35  C29 RCP d   1       6.179  34.155  17.012  0.00  0.00     0.017 C 
ATOM     36  C27 RCP d   1       3.869  34.385  16.078  0.00  0.00     0.017 C 
ATOM     37  C30 RCP d   1       6.815  34.457  15.647  0.00  0.00     0.034 C 
ATOM     38  H   RCP d   1       6.105  35.085  17.576  0.00  0.00     0.067 H 
ATOM     39  H   RCP d   1       6.802  33.429  17.534  0.00  0.00     0.067 H 
ATOM     40  O28 RCP d   1       5.847  34.587  14.604  0.00  0.00    -0.388 OA
ATOM     41  H   RCP d   1       7.471  33.625  15.392  0.00  0.00     0.076 H 
ATOM     42  H   RCP d   1       7.348  35.404  15.729  0.00  0.00     0.076 H 
ATOM     43  C28 RCP d   1       4.631  35.209  15.031  0.00  0.00     0.034 C 
ATOM     44  H   RCP d   1       3.987  35.312  14.158  0.00  0.00     0.076 H 
ATOM     45  H   RCP d   1       4.890  36.165  15.486  0.00  0.00     0.076 H 
ATOM     46  H   RCP d   1       3.162  33.722  15.580  0.00  0.00     0.067 H 
ATOM     47  H   RCP d   1       3.322  35.053  16.744  0.00  0.00     0.067 H 
ATOM     48  O26 RCP d   1       3.343  31.946  17.318  0.00  0.00    -0.273 OA
ENDBRANCH  20  33
ENDBRANCH   1  18
BRANCH   7  49
ATOM     49  C14 RCP d   1       4.955  31.779  26.234  0.00  0.00     0.054 A 
ATOM     50  C1  RCP d   1       5.871  32.833  26.197  0.00  0.00    -0.009 A 
ATOM     51  C2  RCP d   1       7.060  32.685  25.485  0.00  0.00    -0.071 A 
ATOM     52  C6  RCP d   1       5.573  34.066  26.829  0.00  0.00    -0.024 A 
ATOM     53  C3  RCP d   1       7.942  33.759  25.391  0.00  0.00    -0.082 A 
ATOM     54  H   RCP d   1       7.298  31.736  25.005  0.00  0.00     0.084 H 
ATOM     55  C4  RCP d   1       7.649  34.979  26.012  0.00  0.00    -0.082 A 
ATOM     56  H   RCP d   1       8.869  33.648  24.829  0.00  0.00     0.083 H 
ATOM     57  C5  RCP d   1       6.454  35.147  26.714  0.00  0.00    -0.072 A 
ATOM     58  H   RCP d   1       8.359  35.804  25.947  0.00  0.00     0.083 H 
ATOM     59  H   RCP d   1       6.210  36.108  27.167  0.00  0.00     0.084 H 
ATOM     60  C7  RCP d   1       4.374  34.249  27.509  0.00  0.00    -0.061 A 
ATOM     61  C8  RCP d   1       3.494  33.179  27.606  0.00  0.00    -0.024 A 
ATOM     62  H   RCP d   1       4.130  35.212  27.957  0.00  0.00     0.086 H 
ATOM     63  C13 RCP d   1       3.753  31.962  26.929  0.00  0.00    -0.009 A 
ATOM     64  C9  RCP d   1       2.327  33.322  28.369  0.00  0.00    -0.072 A 
ATOM     65  C12 RCP d   1       2.838  30.906  27.015  0.00  0.00    -0.071 A 
ATOM     66  C11 RCP d   1       1.686  31.046  27.783  0.00  0.00    -0.082 A 
ATOM     67  H   RCP d   1       3.028  29.975  26.481  0.00  0.00     0.084 H 
ATOM     68  C10 RCP d   1       1.427  32.248  28.454  0.00  0.00    -0.082 A 
ATOM     69  H   RCP d   1       0.983  30.217  27.863  0.00  0.00     0.083 H 
ATOM     70  H   RCP d   1       0.518  32.350  29.047  0.00  0.00     0.083 H 
ATOM     71  H   RCP d   1       2.121  34.257  28.890  0.00  0.00     0.084 H 
ENDBRANCH   7  49
TORSDOF 3
