REMARK  9 active torsions:
REMARK  status: ('A' for Active; 'I' for Inactive)
REMARK    1  A    between atoms: C5_5  and  N10_10 
REMARK    2  A    between atoms: C7_7  and  O28_28 
REMARK       I    between atoms: N10_10  and  C11_11 
REMARK    3  A    between atoms: C11_11  and  C12_12 
REMARK    4  A    between atoms: C15_15  and  N21_21 
REMARK    5  A    between atoms: N21_21  and  S22_22 
REMARK    6  A    between atoms: S22_22  and  C23_23 
REMARK    7  A    between atoms: C23_23  and  C24_24 
REMARK    8  A    between atoms: C24_24  and  C25_25 
REMARK    9  A    between atoms: O28_28  and  C29_29 
ROOT
ATOM      1  C12 B0R d   1      13.315 -28.139  -2.238  0.00  0.00     0.111 A 
ATOM      2  C14 B0R d   1      13.056 -28.517  -3.566  0.00  0.00     0.162 A 
ATOM      3  C15 B0R d   1      12.348 -29.691  -3.870  0.00  0.00     0.082 A 
ATOM      4  C16 B0R d   1      11.871 -30.524  -2.835  0.00  0.00    -0.051 A 
ATOM      5  C17 B0R d   1      12.117 -30.159  -1.492  0.00  0.00    -0.042 A 
ATOM      6  C18 B0R d   1      12.832 -28.972  -1.196  0.00  0.00     0.135 A 
ATOM      7  F19 B0R d   1      13.049 -28.650   0.101  0.00  0.00    -0.205 F 
ATOM      8  F20 B0R d   1      13.501 -27.737  -4.566  0.00  0.00    -0.203 F 
ATOM      9  H   B0R d   1      11.321 -31.436  -3.068  0.00  0.00     0.087 H 
ATOM     10  H   B0R d   1      11.756 -30.792  -0.682  0.00  0.00     0.088 H 
ENDROOT
BRANCH   1  11
ATOM     11  C11 B0R d   1      14.085 -26.863  -2.036  0.00  0.00     0.262 C 
ATOM     12  N10 B0R d   1      15.257 -26.982  -1.386  0.00  0.00    -0.321 N 
ATOM     13  H   B0R d   1      15.460 -27.940  -1.099  0.00  0.00     0.169 HD
ATOM     14  O13 B0R d   1      13.648 -25.801  -2.484  0.00  0.00    -0.267 OA
BRANCH  12  15
ATOM     15  C5  B0R d   1      16.283 -26.052  -1.009  0.00  0.00     0.053 A 
ATOM     16  C4  B0R d   1      17.569 -26.608  -0.774  0.00  0.00     0.030 A 
ATOM     17  N3  B0R d   1      18.651 -25.876  -0.406  0.00  0.00    -0.239 NA
ATOM     18  H   B0R d   1      17.694 -27.684  -0.896  0.00  0.00     0.118 H 
ATOM     19  C2  B0R d   1      18.502 -24.540  -0.259  0.00  0.00     0.158 A 
ATOM     20  C1  B0R d   1      17.257 -23.925  -0.477  0.00  0.00     0.068 A 
ATOM     21  N9  B0R d   1      19.402 -23.590   0.093  0.00  0.00    -0.258 N 
ATOM     22  C6  B0R d   1      16.099 -24.650  -0.859  0.00  0.00    -0.038 A 
ATOM     23  C7  B0R d   1      17.458 -22.549  -0.238  0.00  0.00     0.197 A 
ATOM     24  H   B0R d   1      15.136 -24.167  -1.026  0.00  0.00     0.088 H 
ATOM     25  N8  B0R d   1      18.762 -22.374   0.105  0.00  0.00    -0.147 NA
ATOM     26  H   B0R d   1      20.385 -23.750   0.311  0.00  0.00     0.191 HD
BRANCH  23  27
ATOM     27  O28 B0R d   1      16.607 -21.491  -0.295  0.00  0.00    -0.338 OA
BRANCH  27  28
ATOM     28  C29 B0R d   1      16.724 -20.497   0.720  0.00  0.00     0.012 C 
ATOM     29  H   B0R d   1      16.553 -20.953   1.695  0.00  0.00     0.067 H 
ATOM     30  H   B0R d   1      17.724 -20.065   0.690  0.00  0.00     0.067 H 
ATOM     31  H   B0R d   1      15.984 -19.715   0.548  0.00  0.00     0.067 H 
ENDBRANCH  27  28
ENDBRANCH  23  27
ENDBRANCH  12  15
ENDBRANCH   1  11
BRANCH   3  32
ATOM     32  N21 B0R d   1      12.157 -29.974  -5.150  0.00  0.00    -0.281 N 
ATOM     33  H   B0R d   1      12.534 -29.303  -5.820  0.00  0.00     0.178 HD
BRANCH  32  34
ATOM     34  S22 B0R d   1      11.358 -31.321  -5.809  0.00  0.00     0.231 S 
ATOM     35  O26 B0R d   1      10.095 -31.417  -5.066  0.00  0.00    -0.206 OA
ATOM     36  O27 B0R d   1      11.417 -31.148  -7.270  0.00  0.00    -0.206 OA
BRANCH  34  37
ATOM     37  C23 B0R d   1      12.435 -32.727  -5.331  0.00  0.00     0.046 C 
ATOM     38  H   B0R d   1      11.799 -33.610  -5.266  0.00  0.00     0.058 H 
ATOM     39  H   B0R d   1      12.922 -32.453  -4.395  0.00  0.00     0.058 H 
BRANCH  37  40
ATOM     40  C24 B0R d   1      13.548 -33.047  -6.342  0.00  0.00    -0.055 C 
ATOM     41  H   B0R d   1      13.275 -32.598  -7.297  0.00  0.00     0.033 H 
ATOM     42  H   B0R d   1      13.645 -34.131  -6.404  0.00  0.00     0.033 H 
BRANCH  40  43
ATOM     43  C25 B0R d   1      14.905 -32.473  -5.919  0.00  0.00    -0.076 C 
ATOM     44  H   B0R d   1      14.829 -31.389  -5.833  0.00  0.00     0.027 H 
ATOM     45  H   B0R d   1      15.193 -32.895  -4.956  0.00  0.00     0.027 H 
ATOM     46  H   B0R d   1      15.655 -32.728  -6.668  0.00  0.00     0.027 H 
ENDBRANCH  40  43
ENDBRANCH  37  40
ENDBRANCH  34  37
ENDBRANCH  32  34
ENDBRANCH   3  32
TORSDOF 9
