REMARK  7 active torsions:
REMARK  status: ('A' for Active; 'I' for Inactive)
REMARK       I    between atoms: C02_2  and  N03_3 
REMARK       I    between atoms: C02_2  and  N14_14 
REMARK    1  A    between atoms: N03_3  and  C04_4 
REMARK    2  A    between atoms: C04_4  and  C05_5 
REMARK    3  A    between atoms: C04_4  and  C06_6 
REMARK    4  A    between atoms: C10_10  and  O11_11 
REMARK    5  A    between atoms: O11_11  and  C12_12 
REMARK    6  A    between atoms: N14_14  and  C15_15 
REMARK    7  A    between atoms: C17_17  and  C18_18 
ROOT
ATOM      1  O01 07Q d   1       1.091 -46.937  12.900  0.00  0.00    -0.247 OA
ATOM      2  C02 07Q d   1       2.282 -46.624  12.801  0.00  0.00     0.322 C 
ATOM      3  N03 07Q d   1       2.890 -46.502  11.473  0.00  0.00    -0.335 N 
ATOM      4  N14 07Q d   1       3.101 -46.365  14.009  0.00  0.00    -0.287 N 
ATOM      5  H   07Q d   1       3.264 -47.343  11.033  0.00  0.00     0.165 HD
ATOM      6  H   07Q d   1       4.063 -46.053  13.873  0.00  0.00     0.172 HD
ENDROOT
BRANCH   3   7
ATOM      7  C04 07Q d   1       2.989 -45.219  10.736  0.00  0.00     0.036 C 
ATOM      8  H   07Q d   1       3.515 -45.484   9.819  0.00  0.00     0.079 H 
BRANCH   7   9
ATOM      9  C05 07Q d   1       3.797 -44.185  11.509  0.00  0.00    -0.053 C 
ATOM     10  H   07Q d   1       3.988 -43.323  10.870  0.00  0.00     0.030 H 
ATOM     11  H   07Q d   1       3.235 -43.870  12.388  0.00  0.00     0.030 H 
ATOM     12  H   07Q d   1       4.744 -44.625  11.821  0.00  0.00     0.030 H 
ENDBRANCH   7   9
BRANCH   7  13
ATOM     13  C06 07Q d   1       1.652 -44.618  10.289  0.00  0.00    -0.033 A 
ATOM     14  C07 07Q d   1       1.257 -43.331  10.692  0.00  0.00    -0.075 A 
ATOM     15  C08 07Q d   1       0.031 -42.787  10.278  0.00  0.00    -0.080 A 
ATOM     16  H   07Q d   1       1.913 -42.746  11.336  0.00  0.00     0.084 H 
ATOM     17  C09 07Q d   1      -0.817 -43.537   9.446  0.00  0.00    -0.051 A 
ATOM     18  H   07Q d   1      -0.262 -41.788  10.600  0.00  0.00     0.083 H 
ATOM     19  C10 07Q d   1      -0.441 -44.823   9.031  0.00  0.00     0.068 A 
ATOM     20  H   07Q d   1      -1.770 -43.118   9.122  0.00  0.00     0.087 H 
ATOM     21  C13 07Q d   1       0.797 -45.366   9.455  0.00  0.00    -0.043 A 
ATOM     22  H   07Q d   1       1.089 -46.366   9.135  0.00  0.00     0.088 H 
BRANCH  19  23
ATOM     23  O11 07Q d   1      -1.268 -45.588   8.216  0.00  0.00    -0.356 OA
BRANCH  23  24
ATOM     24  C12 07Q d   1      -1.446 -46.939   8.525  0.00  0.00     0.010 C 
ATOM     25  H   07Q d   1      -0.482 -47.447   8.498  0.00  0.00     0.066 H 
ATOM     26  H   07Q d   1      -1.877 -47.029   9.522  0.00  0.00     0.066 H 
ATOM     27  H   07Q d   1      -2.117 -47.392   7.795  0.00  0.00     0.066 H 
ENDBRANCH  23  24
ENDBRANCH  19  23
ENDBRANCH   7  13
ENDBRANCH   3   7
BRANCH   4  28
ATOM     28  C15 07Q d   1       2.619 -46.528  15.396  0.00  0.00     0.175 A 
ATOM     29  N16 07Q d   1       3.285 -45.958  16.508  0.00  0.00    -0.223 NA
ATOM     30  C17 07Q d   1       2.602 -46.262  17.814  0.00  0.00     0.076 A 
ATOM     31  C24 07Q d   1       1.451 -47.075  17.556  0.00  0.00    -0.013 A 
ATOM     32  S25 07Q d   1       1.300 -47.356  15.948  0.00  0.00    -0.061 SA
ATOM     33  H   07Q d   1       0.772 -47.453  18.320  0.00  0.00     0.098 H 
BRANCH  30  34
ATOM     34  C18 07Q d   1       3.080 -45.795  19.180  0.00  0.00    -0.004 A 
ATOM     35  C19 07Q d   1       4.088 -44.795  19.306  0.00  0.00    -0.054 A 
ATOM     36  C20 07Q d   1       4.517 -44.387  20.582  0.00  0.00     0.003 A 
ATOM     37  H   07Q d   1       4.526 -44.347  18.414  0.00  0.00     0.087 H 
ATOM     38  N21 07Q d   1       3.979 -44.942  21.683  0.00  0.00    -0.273 NA
ATOM     39  H   07Q d   1       5.286 -43.620  20.679  0.00  0.00     0.114 H 
ATOM     40  C22 07Q d   1       3.007 -45.908  21.601  0.00  0.00     0.003 A 
ATOM     41  C23 07Q d   1       2.548 -46.355  20.354  0.00  0.00    -0.054 A 
ATOM     42  H   07Q d   1       2.588 -46.331  22.514  0.00  0.00     0.114 H 
ATOM     43  H   07Q d   1       1.784 -47.131  20.296  0.00  0.00     0.087 H 
ENDBRANCH  30  34
ENDBRANCH   4  28
TORSDOF 7
