REMARK  4 active torsions:
REMARK  status: ('A' for Active; 'I' for Inactive)
REMARK    1  A    between atoms: O3B_8  and  PG_1 
REMARK    2  A    between atoms: PB_5  and  O3B_8 
REMARK    3  A    between atoms: O3A_12  and  PB_5 
REMARK    4  A    between atoms: PA_9  and  O3A_12 
ROOT
ATOM      1  PB  3PO d   1      16.049   1.292  20.120  0.00  0.00     0.428 P 
ATOM      2  O1B 3PO d   1      16.364   1.439  21.609  0.00  0.00    -0.624 OA
ATOM      3  O2B 3PO d   1      17.044   0.604  19.205  0.00  0.00    -0.624 OA
ENDROOT
BRANCH   1   4
ATOM      4  O3B 3PO d   1      15.643   2.753  19.506  0.00  0.00    -0.173 OA
BRANCH   4   5
ATOM      5  PG  3PO d   1      16.516   4.118  19.605  0.00  0.00     0.431 P 
ATOM      6  O1G 3PO d   1      15.530   5.231  19.340  0.00  0.00    -0.616 OA
ATOM      7  O2G 3PO d   1      17.085   4.115  21.007  0.00  0.00    -0.616 OA
ATOM      8  O3G 3PO d   1      17.516   3.973  18.494  0.00  0.00    -0.616 OA
ENDBRANCH   4   5
ENDBRANCH   1   4
BRANCH   1   9
ATOM      9  O3A 3PO d   1      14.688   0.437  19.941  0.00  0.00    -0.173 OA
BRANCH   9  10
ATOM     10  PA  3PO d   1      14.485  -0.991  20.659  0.00  0.00     0.431 P 
ATOM     11  O1A 3PO d   1      14.666  -0.671  22.133  0.00  0.00    -0.616 OA
ATOM     12  O2A 3PO d   1      15.541  -1.894  20.067  0.00  0.00    -0.616 OA
ATOM     13  O5' 3PO d   1      13.084  -1.405  20.266  0.00  0.00    -0.616 OA
ENDBRANCH   9  10
ENDBRANCH   1   9
TORSDOF 4
