REMARK  4 active torsions:
REMARK  status: ('A' for Active; 'I' for Inactive)
REMARK    1  A    between atoms: C7_9  and  C26_11 
REMARK    2  A    between atoms: C26_11  and  N23_12 
REMARK       I    between atoms: N19_15  and  C18_18 
REMARK    3  A    between atoms: C18_18  and  C14_20 
REMARK    4  A    between atoms: C15_24  and  C17_26 
ROOT
ATOM      1  N23 07H d   1       5.945  29.485  21.110  0.00  0.00     0.095 N 
ATOM      2  C22 07H d   1       6.466  28.531  22.103  0.00  0.00     0.128 C 
ATOM      3  C21 07H d   1       5.430  28.405  23.225  0.00  0.00     0.023 C 
ATOM      4  N19 07H d   1       5.287  29.734  23.840  0.00  0.00    -0.345 N 
ATOM      5  C25 07H d   1       4.996  30.872  22.939  0.00  0.00     0.023 C 
ATOM      6  C24 07H d   1       5.942  30.830  21.723  0.00  0.00     0.128 C 
ATOM      7  C18 07H d   1       5.434  29.897  25.177  0.00  0.00     0.253 C 
ATOM      8  O20 07H d   1       5.646  28.936  25.894  0.00  0.00    -0.267 OA
ATOM      9  H   07H d   1       7.415  28.885  22.504  0.00  0.00     0.082 H 
ATOM     10  H   07H d   1       6.639  27.560  21.639  0.00  0.00     0.082 H 
ATOM     11  H   07H d   1       5.754  27.674  23.965  0.00  0.00     0.067 H 
ATOM     12  H   07H d   1       4.475  28.062  22.827  0.00  0.00     0.067 H 
ATOM     13  H   07H d   1       5.145  31.807  23.479  0.00  0.00     0.067 H 
ATOM     14  H   07H d   1       3.964  30.805  22.595  0.00  0.00     0.067 H 
ATOM     15  H   07H d   1       5.598  31.553  20.984  0.00  0.00     0.082 H 
ATOM     16  H   07H d   1       6.953  31.069  22.054  0.00  0.00     0.082 H 
ENDROOT
BRANCH   1  17
ATOM     17  C26 07H d   1       6.897  29.471  19.992  0.00  0.00     0.136 C 
ATOM     18  H   07H d   1       7.881  29.739  20.377  0.00  0.00     0.086 H 
ATOM     19  H   07H d   1       6.892  28.474  19.551  0.00  0.00     0.086 H 
BRANCH  17  20
ATOM     20  C7  07H d   1       6.521  30.464  18.922  0.00  0.00    -0.027 C 
ATOM     21  C9  07H d   1       5.312  30.228  18.039  0.00  0.00     0.048 C 
ATOM     22  O5  07H d   1       4.678  31.416  17.549  0.00  0.00    -0.346 OA
ATOM     23  H   07H d   1       5.662  29.676  17.167  0.00  0.00     0.082 H 
ATOM     24  H   07H d   1       4.574  29.706  18.649  0.00  0.00     0.082 H 
ATOM     25  C2  07H d   1       5.575  32.338  17.078  0.00  0.00     0.079 A 
ATOM     26  C1  07H d   1       6.873  32.474  17.643  0.00  0.00    -0.002 A 
ATOM     27  C6  07H d   1       5.207  33.195  16.032  0.00  0.00    -0.050 A 
ATOM     28  C4  07H d   1       7.779  33.421  17.150  0.00  0.00    -0.070 A 
ATOM     29  C3  07H d   1       7.278  31.556  18.734  0.00  0.00    -0.064 C 
ATOM     30  C8  07H d   1       7.396  34.255  16.103  0.00  0.00    -0.082 A 
ATOM     31  H   07H d   1       8.776  33.505  17.582  0.00  0.00     0.084 H 
ATOM     32  C10 07H d   1       6.118  34.139  15.549  0.00  0.00    -0.080 A 
ATOM     33  H   07H d   1       8.093  34.998  15.715  0.00  0.00     0.083 H 
ATOM     34  H   07H d   1       5.827  34.794  14.728  0.00  0.00     0.083 H 
ATOM     35  H   07H d   1       8.151  31.759  19.355  0.00  0.00     0.085 H 
ATOM     36  H   07H d   1       4.211  33.126  15.595  0.00  0.00     0.087 H 
ENDBRANCH  17  20
ENDBRANCH   1  17
BRANCH   7  37
ATOM     37  C14 07H d   1       5.280  31.226  25.816  0.00  0.00     0.033 A 
ATOM     38  C13 07H d   1       6.279  32.219  25.760  0.00  0.00    -0.068 A 
ATOM     39  C12 07H d   1       6.063  33.446  26.370  0.00  0.00    -0.081 A 
ATOM     40  H   07H d   1       7.217  32.024  25.240  0.00  0.00     0.085 H 
ATOM     41  C11 07H d   1       4.870  33.705  27.038  0.00  0.00    -0.071 A 
ATOM     42  H   07H d   1       6.835  34.214  26.326  0.00  0.00     0.083 H 
ATOM     43  C15 07H d   1       3.879  32.716  27.096  0.00  0.00    -0.007 A 
ATOM     44  H   07H d   1       4.707  34.672  27.514  0.00  0.00     0.084 H 
ATOM     45  C16 07H d   1       4.079  31.491  26.470  0.00  0.00    -0.056 A 
ATOM     46  H   07H d   1       3.294  30.735  26.491  0.00  0.00     0.086 H 
BRANCH  43  47
ATOM     47  C17 07H d   1       2.586  32.905  27.796  0.00  0.00     0.061 A 
ATOM     48  N27 07H d   1       1.964  34.047  28.024  0.00  0.00    -0.278 N 
ATOM     49  N28 07H d   1       0.752  33.749  28.676  0.00  0.00    -0.187 NA
ATOM     50  H   07H d   1       2.300  34.977  27.773  0.00  0.00     0.189 HD
ATOM     51  C29 07H d   1       0.667  32.407  28.846  0.00  0.00     0.024 A 
ATOM     52  C30 07H d   1       1.783  31.857  28.314  0.00  0.00    -0.036 A 
ATOM     53  H   07H d   1      -0.151  31.869  29.324  0.00  0.00     0.117 H 
ATOM     54  H   07H d   1       2.023  30.794  28.288  0.00  0.00     0.089 H 
ENDBRANCH  43  47
ENDBRANCH   7  37
TORSDOF 4
