REMARK  8 active torsions:
REMARK  status: ('A' for Active; 'I' for Inactive)
REMARK    1  A    between atoms: CAA_1  and  CAM_2 
REMARK    2  A    between atoms: CAM_2  and  CAJ_4 
REMARK    3  A    between atoms: CAJ_4  and  CAH_5 
REMARK    4  A    between atoms: CAH_5  and  CAI_6 
REMARK    5  A    between atoms: CAI_6  and  CAK_7 
REMARK    6  A    between atoms: CAK_7  and  N1_8 
REMARK    7  A    between atoms: N7_12  and  CAB_13 
REMARK    8  A    between atoms: N3_17  and  CAC_18 
ROOT
ATOM      1  N1  PNX d   1      43.235  17.189 -24.005  0.00  0.00    -0.264 N 
ATOM      2  C6  PNX d   1      43.983  16.980 -22.890  0.00  0.00     0.282 A 
ATOM      3  O6  PNX d   1      43.459  16.830 -21.797  0.00  0.00    -0.265 OA
ATOM      4  C5  PNX d   1      45.372  16.945 -23.065  0.00  0.00     0.151 A 
ATOM      5  N7  PNX d   1      46.402  16.755 -22.195  0.00  0.00    -0.338 N 
ATOM      6  C8  PNX d   1      47.553  16.808 -22.905  0.00  0.00     0.068 A 
ATOM      7  N9  PNX d   1      47.269  17.023 -24.207  0.00  0.00    -0.223 NA
ATOM      8  C4  PNX d   1      45.926  17.119 -24.340  0.00  0.00     0.167 A 
ATOM      9  N3  PNX d   1      45.149  17.330 -25.432  0.00  0.00    -0.286 N 
ATOM     10  C2  PNX d   1      43.803  17.360 -25.234  0.00  0.00     0.333 A 
ATOM     11  O2  PNX d   1      43.093  17.546 -26.215  0.00  0.00    -0.246 OA
ATOM     12  H15 PNX d   1      48.553  16.695 -22.490  0.00  0.00     0.143 H 
ENDROOT
BRANCH   1  13
ATOM     13  CAK PNX d   1      41.774  17.237 -23.840  0.00  0.00     0.007 C 
ATOM     14  H10 PNX d   1      41.541  17.552 -22.812  0.00  0.00     0.065 H 
ATOM     15  H11 PNX d   1      41.359  17.967 -24.550  0.00  0.00     0.065 H 
BRANCH  13  16
ATOM     16  CAI PNX d   1      41.130  15.871 -24.098  0.00  0.00    -0.049 C 
ATOM     17  H8  PNX d   1      41.783  15.283 -24.759  0.00  0.00     0.035 H 
ATOM     18  H9  PNX d   1      41.006  15.344 -23.141  0.00  0.00     0.035 H 
BRANCH  16  19
ATOM     19  CAH PNX d   1      39.763  16.036 -24.761  0.00  0.00    -0.057 C 
ATOM     20  H6  PNX d   1      39.240  15.068 -24.753  0.00  0.00     0.033 H 
ATOM     21  H7  PNX d   1      39.176  16.775 -24.196  0.00  0.00     0.033 H 
BRANCH  19  22
ATOM     22  CAJ PNX d   1      39.909  16.514 -26.208  0.00  0.00    -0.010 C 
ATOM     23  H4  PNX d   1      39.045  17.150 -26.453  0.00  0.00     0.044 H 
ATOM     24  H5  PNX d   1      40.834  17.105 -26.287  0.00  0.00     0.044 H 
BRANCH  22  25
ATOM     25  CAM PNX d   1      39.974  15.386 -27.217  0.00  0.00     0.123 C 
ATOM     26  OAD PNX d   1      40.046  14.218 -26.861  0.00  0.00    -0.298 OA
BRANCH  25  27
ATOM     27  CAA PNX d   1      39.950  15.700 -28.697  0.00  0.00    -0.021 C 
ATOM     28  H1  PNX d   1      39.883  16.789 -28.840  0.00  0.00     0.037 H 
ATOM     29  H2  PNX d   1      39.078  15.216 -29.161  0.00  0.00     0.037 H 
ATOM     30  H3  PNX d   1      40.871  15.324 -29.167  0.00  0.00     0.037 H 
ENDBRANCH  25  27
ENDBRANCH  22  25
ENDBRANCH  19  22
ENDBRANCH  16  19
ENDBRANCH  13  16
ENDBRANCH   1  13
BRANCH   9  31
ATOM     31  CAC PNX d   1      45.743  17.514 -26.758  0.00  0.00    -0.008 C 
ATOM     32  H16 PNX d   1      46.839  17.452 -26.681  0.00  0.00     0.057 H 
ATOM     33  H17 PNX d   1      45.459  18.500 -27.153  0.00  0.00     0.057 H 
ATOM     34  H18 PNX d   1      45.378  16.728 -27.436  0.00  0.00     0.057 H 
ENDBRANCH   9  31
BRANCH   5  35
ATOM     35  CAB PNX d   1      46.366  16.528 -20.748  0.00  0.00    -0.013 C 
ATOM     36  H12 PNX d   1      47.392  16.416 -20.369  0.00  0.00     0.057 H 
ATOM     37  H13 PNX d   1      45.794  15.613 -20.535  0.00  0.00     0.057 H 
ATOM     38  H14 PNX d   1      45.884  17.385 -20.254  0.00  0.00     0.057 H 
ENDBRANCH   5  35
TORSDOF 8
