REMARK  5 active torsions:
REMARK  status: ('A' for Active; 'I' for Inactive)
REMARK       I    between atoms: C02_2  and  N03_3 
REMARK       I    between atoms: C02_2  and  N12_12 
REMARK    1  A    between atoms: N03_3  and  C04_4 
REMARK    2  A    between atoms: C04_4  and  C05_5 
REMARK    3  A    between atoms: C07_7  and  O08_8 
REMARK    4  A    between atoms: N12_12  and  C13_13 
REMARK    5  A    between atoms: C15_15  and  C16_16 
ROOT
ATOM      1  O01 07R d   1      18.141  33.991  17.434  0.00  0.00    -0.247 OA
ATOM      2  C02 07R d   1      17.081  34.694  17.192  0.00  0.00     0.322 C 
ATOM      3  N03 07R d   1      16.784  35.225  15.820  0.00  0.00    -0.339 N 
ATOM      4  N12 07R d   1      16.130  34.992  18.260  0.00  0.00    -0.287 N 
ATOM      5  H1  07R d   1      17.266  36.037  15.491  0.00  0.00     0.164 HD
ATOM      6  H9  07R d   1      15.394  35.664  18.184  0.00  0.00     0.172 HD
ENDROOT
BRANCH   3   7
ATOM      7  C04 07R d   1      15.766  34.549  14.928  0.00  0.00     0.021 C 
ATOM      8  H2  07R d   1      15.069  35.301  14.528  0.00  0.00     0.071 H 
ATOM      9  H3  07R d   1      15.206  33.802  15.509  0.00  0.00     0.071 H 
BRANCH   7  10
ATOM     10  C05 07R d   1      16.498  33.856  13.767  0.00  0.00    -0.038 A 
ATOM     11  C06 07R d   1      17.553  34.658  13.085  0.00  0.00    -0.043 A 
ATOM     12  C07 07R d   1      18.270  34.095  12.056  0.00  0.00     0.066 A 
ATOM     13  H4  07R d   1      17.753  35.676  13.398  0.00  0.00     0.088 H 
ATOM     14  C09 07R d   1      17.995  32.769  11.672  0.00  0.00    -0.051 A 
ATOM     15  C10 07R d   1      16.963  31.972  12.330  0.00  0.00    -0.080 A 
ATOM     16  H6  07R d   1      18.566  32.326  10.864  0.00  0.00     0.087 H 
ATOM     17  C11 07R d   1      16.218  32.530  13.389  0.00  0.00    -0.075 A 
ATOM     18  H7  07R d   1      16.771  30.956  12.005  0.00  0.00     0.083 H 
ATOM     19  H8  07R d   1      15.452  31.955  13.897  0.00  0.00     0.084 H 
BRANCH  12  20
ATOM     20  O08 07R d   1      19.252  34.857  11.383  0.00  0.00    -0.361 OA
ATOM     21  H5  07R d   1      19.653  34.327  10.704  0.00  0.00     0.217 HD
ENDBRANCH  12  20
ENDBRANCH   7  10
ENDBRANCH   3   7
BRANCH   4  22
ATOM     22  C13 07R d   1      16.390  34.176  19.470  0.00  0.00     0.175 A 
ATOM     23  N14 07R d   1      15.506  33.267  20.157  0.00  0.00    -0.223 NA
ATOM     24  C15 07R d   1      16.134  32.580  21.329  0.00  0.00     0.076 A 
ATOM     25  C22 07R d   1      17.505  33.077  21.416  0.00  0.00    -0.013 A 
ATOM     26  S23 07R d   1      17.869  34.145  20.185  0.00  0.00    -0.061 SA
ATOM     27  H14 07R d   1      18.209  32.785  22.194  0.00  0.00     0.098 H 
BRANCH  24  28
ATOM     28  C16 07R d   1      15.380  31.570  22.171  0.00  0.00    -0.004 A 
ATOM     29  C17 07R d   1      14.066  31.110  21.684  0.00  0.00    -0.054 A 
ATOM     30  C18 07R d   1      13.252  30.142  22.406  0.00  0.00     0.003 A 
ATOM     31  H10 07R d   1      13.690  31.509  20.749  0.00  0.00     0.087 H 
ATOM     32  N19 07R d   1      13.709  29.619  23.581  0.00  0.00    -0.273 NA
ATOM     33  H11 07R d   1      12.289  29.839  22.012  0.00  0.00     0.114 H 
ATOM     34  C20 07R d   1      14.964  30.028  24.052  0.00  0.00     0.003 A 
ATOM     35  C21 07R d   1      15.849  30.990  23.379  0.00  0.00    -0.054 A 
ATOM     36  H12 07R d   1      15.310  29.601  24.987  0.00  0.00     0.114 H 
ATOM     37  H13 07R d   1      16.820  31.246  23.788  0.00  0.00     0.087 H 
ENDBRANCH  24  28
ENDBRANCH   4  22
TORSDOF 5
