REMARK WARNING: 32 MAX_TORS EXCEEDED!!!
REMARK  52 active torsions:
REMARK  status: ('A' for Active; 'I' for Inactive)
REMARK    1  A    between atoms: N_1  and  CA_2 
REMARK    2  A    between atoms: CA_2  and  C_3 
REMARK    3  A    between atoms: CA_2  and  CB_5 
REMARK       I    between atoms: C_3  and  N_9 
REMARK    4  A    between atoms: CB_5  and  CG_6 
REMARK    5  A    between atoms: CG_6  and  CD1_7 
REMARK    6  A    between atoms: CG_6  and  CD2_8 
REMARK    7  A    between atoms: N_9  and  CA_10 
REMARK    8  A    between atoms: CA_10  and  C_11 
REMARK    9  A    between atoms: CA_10  and  CB_13 
REMARK       I    between atoms: C_11  and  N_18 
REMARK   10  A    between atoms: CB_13  and  CG_14 
REMARK   11  A    between atoms: CG_14  and  CD_15 
REMARK       I    between atoms: CD_15  and  NE2_17 
REMARK   12  A    between atoms: N_18  and  CA_19 
REMARK   13  A    between atoms: CA_19  and  C_20 
REMARK   14  A    between atoms: CA_19  and  CB_22 
REMARK       I    between atoms: C_20  and  N_29 
REMARK   15  A    between atoms: CB_22  and  CG_23 
REMARK   16  A    between atoms: CG_23  and  CD_24 
REMARK   17  A    between atoms: CD_24  and  NE_25 
REMARK       I    between atoms: NE_25  and  CZ_26 
REMARK       I    between atoms: CZ_26  and  NH1_27 
REMARK       I    between atoms: CZ_26  and  NH2_28 
REMARK   18  A    between atoms: N_29  and  CA_30 
REMARK   19  A    between atoms: CA_30  and  C_31 
REMARK   20  A    between atoms: CA_30  and  CB_33 
REMARK       I    between atoms: C_31  and  N_35 
REMARK   21  A    between atoms: CB_33  and  OG_34 
REMARK   22  A    between atoms: CA_36  and  C_37 
REMARK       I    between atoms: C_37  and  N_42 
REMARK   23  A    between atoms: CA_43  and  C_44 
REMARK       I    between atoms: C_44  and  N_49 
REMARK   24  A    between atoms: N_49  and  CA_50 
REMARK   25  A    between atoms: CA_50  and  C_51 
REMARK   26  A    between atoms: CA_50  and  CB_53 
REMARK       I    between atoms: C_51  and  N_57 
REMARK   27  A    between atoms: CB_53  and  CG_54 
REMARK   28  A    between atoms: N_57  and  CA_58 
REMARK   29  A    between atoms: CA_58  and  C_59 
REMARK       I    between atoms: C_59  and  N_61 
REMARK   30  A    between atoms: N_61  and  CA_62 
REMARK   31  A    between atoms: CA_62  and  C_63 
REMARK   32  A    between atoms: CA_62  and  CB_65 
REMARK       I    between atoms: C_63  and  N_70 
REMARK   33  A    between atoms: CB_65  and  CG_66 
REMARK   34  A    between atoms: CG_66  and  CD_67 
REMARK       I    between atoms: CD_67  and  NE2_69 
REMARK   35  A    between atoms: N_70  and  CA_71 
REMARK   36  A    between atoms: CA_71  and  C_72 
REMARK   37  A    between atoms: CA_71  and  CB_74 
REMARK       I    between atoms: C_72  and  N_76 
REMARK   38  A    between atoms: CB_74  and  OG_75 
REMARK   39  A    between atoms: N_76  and  CA_77 
REMARK   40  A    between atoms: CA_77  and  C_78 
REMARK   41  A    between atoms: CA_77  and  CB_80 
REMARK       I    between atoms: C_78  and  N_87 
REMARK   42  A    between atoms: CB_80  and  CG_81 
REMARK   43  A    between atoms: N_87  and  CA_88 
REMARK   44  A    between atoms: CA_88  and  C_89 
REMARK   45  A    between atoms: CA_88  and  CB_91 
REMARK       I    between atoms: C_89  and  N_98 
REMARK   46  A    between atoms: CB_91  and  CG_92 
REMARK   47  A    between atoms: CG_92  and  CD_93 
REMARK   48  A    between atoms: CD_93  and  NE_94 
REMARK       I    between atoms: NE_94  and  CZ_95 
REMARK       I    between atoms: CZ_95  and  NH1_96 
REMARK   49  A    between atoms: N_98  and  CA_99 
REMARK   50  A    between atoms: CA_99  and  CB_100 
REMARK   51  A    between atoms: CA_99  and  C_103 
REMARK   52  A    between atoms: CB_100  and  OG_101 
REMARK       I    between atoms: C_103  and  NT_102 
ROOT
ATOM      1  C   PRO d   1     -23.891 -22.025  23.136  0.00  0.00     0.241 C 
ATOM      2  O   PRO d   1     -24.595 -23.037  22.992  0.00  0.00    -0.271 OA
ATOM      3  N   ASP d   1     -23.926 -20.991  22.305  0.00  0.00    -0.346 N 
ATOM      4  H   ASP d   1     -23.396 -20.144  22.511  0.00  0.00     0.163 HD
ENDROOT
BRANCH   3   5
ATOM      5  CA  ASP d   1     -24.731 -21.082  21.094  0.00  0.00     0.098 C 
ATOM      6  H   ASP d   1     -25.762 -21.329  21.349  0.00  0.00     0.088 H 
BRANCH   5   7
ATOM      7  C   ASP d   1     -24.148 -22.181  20.218  0.00  0.00     0.241 C 
ATOM      8  O   ASP d   1     -22.929 -22.258  20.028  0.00  0.00    -0.271 OA
ATOM      9  N   GLY d   1     -25.020 -23.034  19.691  0.00  0.00    -0.351 N 
ATOM     10  H   GLY d   1     -26.014 -22.918  19.888  0.00  0.00     0.163 HD
BRANCH   9  11
ATOM     11  CA  GLY d   1     -24.586 -24.127  18.841  0.00  0.00     0.069 C 
ATOM     12  H   GLY d   1     -23.532 -24.320  19.039  0.00  0.00     0.078 H 
ATOM     13  H   GLY d   1     -24.752 -23.843  17.802  0.00  0.00     0.078 H 
BRANCH  11  14
ATOM     14  C   GLY d   1     -25.367 -25.394  19.123  0.00  0.00     0.236 C 
ATOM     15  O   GLY d   1     -26.282 -25.412  19.961  0.00  0.00    -0.272 OA
ATOM     16  N   GLN d   1     -25.015 -26.459  18.408  0.00  0.00    -0.346 N 
ATOM     17  H   GLN d   1     -24.332 -26.341  17.659  0.00  0.00     0.163 HD
BRANCH  16  18
ATOM     18  CA  GLN d   1     -25.565 -27.789  18.650  0.00  0.00     0.090 C 
ATOM     19  H   GLN d   1     -25.668 -27.959  19.722  0.00  0.00     0.087 H 
BRANCH  18  20
ATOM     20  C   GLN d   1     -24.606 -28.787  18.027  0.00  0.00     0.241 C 
ATOM     21  O   GLN d   1     -23.799 -28.434  17.160  0.00  0.00    -0.271 OA
ATOM     22  N   SER d   1     -24.694 -30.038  18.460  0.00  0.00    -0.344 N 
ATOM     23  H   SER d   1     -25.451 -30.302  19.091  0.00  0.00     0.163 HD
BRANCH  22  24
ATOM     24  CA  SER d   1     -23.716 -31.043  18.042  0.00  0.00     0.109 C 
ATOM     25  H   SER d   1     -22.767 -30.517  17.945  0.00  0.00     0.090 H 
BRANCH  24  26
ATOM     26  C   SER d   1     -24.016 -31.664  16.674  0.00  0.00     0.243 C 
ATOM     27  O   SER d   1     -23.096 -31.981  15.918  0.00  0.00    -0.271 OA
ATOM     28  N   PHE d   1     -25.296 -31.865  16.371  0.00  0.00    -0.346 N 
ATOM     29  H   PHE d   1     -26.015 -31.604  17.046  0.00  0.00     0.163 HD
BRANCH  28  30
ATOM     30  CA  PHE d   1     -25.696 -32.451  15.092  0.00  0.00     0.093 C 
ATOM     31  H   PHE d   1     -24.797 -32.845  14.618  0.00  0.00     0.088 H 
BRANCH  30  32
ATOM     32  C   PHE d   1     -26.326 -31.400  14.190  0.00  0.00     0.241 C 
ATOM     33  O   PHE d   1     -27.253 -30.692  14.608  0.00  0.00    -0.271 OA
ATOM     34  N   ARG d   1     -25.820 -31.305  12.960  0.00  0.00    -0.346 N 
ATOM     35  H   ARG d   1     -25.006 -31.871  12.719  0.00  0.00     0.163 HD
BRANCH  34  36
ATOM     36  CA  ARG d   1     -26.388 -30.420  11.943  0.00  0.00     0.089 C 
ATOM     37  H   ARG d   1     -26.442 -29.423  12.381  0.00  0.00     0.087 H 
BRANCH  36  38
ATOM     38  C   ARG d   1     -27.801 -30.829  11.545  0.00  0.00     0.241 C 
ATOM     39  O   ARG d   1     -28.591 -29.981  11.128  0.00  0.00    -0.271 OA
ATOM     40  N   SET d   1     -28.115 -32.119  11.655  0.00  0.00    -0.344 N 
ATOM     41  H   SET d   1     -27.404 -32.780  11.967  0.00  0.00     0.163 HD
BRANCH  40  42
ATOM     42  CA  SET d   1     -29.468 -32.613  11.336  0.00  0.00     0.109 C 
ATOM     43  H   SET d   1     -29.804 -32.101  10.434  0.00  0.00     0.090 H 
BRANCH  42  44
ATOM     44  CB  SET d   1     -29.475 -34.128  11.051  0.00  0.00     0.044 C 
ATOM     45  H   SET d   1     -28.794 -34.340  10.227  0.00  0.00     0.077 H 
ATOM     46  H   SET d   1     -30.487 -34.438  10.790  0.00  0.00     0.077 H 
BRANCH  44  47
ATOM     47  OG  SET d   1     -29.046 -34.850  12.215  0.00  0.00    -0.398 OA
ATOM     48  H   SET d   1     -29.054 -35.791  12.027  0.00  0.00     0.209 HD
ENDBRANCH  44  47
ENDBRANCH  42  44
BRANCH  42  49
ATOM     49  C   SET d   1     -30.413 -32.310  12.504  0.00  0.00     0.240 C 
ATOM     50  NT  SET d   1     -29.868 -31.722  13.568  0.00  0.00    -0.368 N 
ATOM     51  H   SET d   1     -30.442 -31.512  14.385  0.00  0.00     0.159 HD
ATOM     52  H   SET d   1     -28.877 -31.482  13.566  0.00  0.00     0.159 HD
ATOM     53  O   SET d   1     -31.600 -32.627  12.438  0.00  0.00    -0.271 OA
ENDBRANCH  42  49
ENDBRANCH  40  42
ENDBRANCH  36  38
BRANCH  36  54
ATOM     54  CB  ARG d   1     -25.488 -30.394  10.697  0.00  0.00    -0.036 C 
ATOM     55  H   ARG d   1     -26.134 -30.212   9.838  0.00  0.00     0.036 H 
ATOM     56  H   ARG d   1     -24.957 -31.345  10.665  0.00  0.00     0.036 H 
BRANCH  54  57
ATOM     57  CG  ARG d   1     -24.433 -29.291  10.707  0.00  0.00    -0.048 C 
ATOM     58  H   ARG d   1     -23.999 -29.233  11.705  0.00  0.00     0.035 H 
ATOM     59  H   ARG d   1     -24.910 -28.351  10.430  0.00  0.00     0.035 H 
BRANCH  57  60
ATOM     60  CD  ARG d   1     -23.320 -29.585   9.708  0.00  0.00     0.009 C 
ATOM     61  H   ARG d   1     -22.683 -28.706   9.605  0.00  0.00     0.064 H 
ATOM     62  H   ARG d   1     -23.757 -29.834   8.741  0.00  0.00     0.064 H 
BRANCH  60  63
ATOM     63  NE  ARG d   1     -22.522 -30.710  10.185  0.00  0.00    -0.227 N 
ATOM     64  CZ  ARG d   1     -21.796 -31.513   9.420  0.00  0.00     0.665 C 
ATOM     65  NH1 ARG d   1     -21.126 -32.511   9.990  0.00  0.00    -0.235 N 
ATOM     66  NH2 ARG d   1     -21.744 -31.341   8.104  0.00  0.00    -0.235 N 
ATOM     67  H   ARG d   1     -21.176 -32.648  10.999  0.00  0.00     0.174 HD
ATOM     68  H   ARG d   1     -20.562 -33.139   9.418  0.00  0.00     0.174 HD
ATOM     69  H   ARG d   1     -22.268 -30.582   7.668  0.00  0.00     0.174 HD
ATOM     70  H   ARG d   1     -21.180 -31.968   7.530  0.00  0.00     0.174 HD
ATOM     71  H   ARG d   1     -22.523 -30.893  11.188  0.00  0.00     0.177 HD
ENDBRANCH  60  63
ENDBRANCH  57  60
ENDBRANCH  54  57
ENDBRANCH  36  54
ENDBRANCH  34  36
ENDBRANCH  30  32
BRANCH  30  72
ATOM     72  CB  PHE d   1     -26.699 -33.590  15.303  0.00  0.00    -0.014 C 
ATOM     73  H   PHE d   1     -27.324 -33.635  14.411  0.00  0.00     0.043 H 
ATOM     74  H   PHE d   1     -27.241 -33.372  16.223  0.00  0.00     0.043 H 
BRANCH  72  75
ATOM     75  CG  PHE d   1     -26.072 -34.949  15.471  0.00  0.00    -0.056 A 
ATOM     76  CD1 PHE d   1     -24.728 -35.086  15.775  0.00  0.00    -0.077 A 
ATOM     77  CE1 PHE d   1     -24.163 -36.353  15.908  0.00  0.00    -0.082 A 
ATOM     78  H   PHE d   1     -24.109 -34.199  15.911  0.00  0.00     0.084 H 
ATOM     79  CZ  PHE d   1     -24.940 -37.476  15.737  0.00  0.00    -0.083 A 
ATOM     80  H   PHE d   1     -23.105 -36.455  16.148  0.00  0.00     0.083 H 
ATOM     81  CE2 PHE d   1     -26.281 -37.351  15.432  0.00  0.00    -0.082 A 
ATOM     82  H   PHE d   1     -24.496 -38.466  15.842  0.00  0.00     0.083 H 
ATOM     83  CD2 PHE d   1     -26.836 -36.095  15.295  0.00  0.00    -0.077 A 
ATOM     84  H   PHE d   1     -26.898 -38.240  15.300  0.00  0.00     0.083 H 
ATOM     85  H   PHE d   1     -27.893 -36.001  15.044  0.00  0.00     0.084 H 
ENDBRANCH  72  75
ENDBRANCH  30  72
ENDBRANCH  28  30
ENDBRANCH  24  26
BRANCH  24  86
ATOM     86  CB  SER d   1     -23.608 -32.147  19.096  0.00  0.00     0.044 C 
ATOM     87  H   SER d   1     -24.580 -32.629  19.198  0.00  0.00     0.077 H 
ATOM     88  H   SER d   1     -23.292 -31.700  20.039  0.00  0.00     0.077 H 
BRANCH  86  89
ATOM     89  OG  SER d   1     -22.655 -33.123  18.714  0.00  0.00    -0.398 OA
ATOM     90  H   SER d   1     -21.795 -32.707  18.614  0.00  0.00     0.209 HD
ENDBRANCH  86  89
ENDBRANCH  24  86
ENDBRANCH  22  24
ENDBRANCH  18  20
BRANCH  18  91
ATOM     91  CB  GLN d   1     -26.966 -27.943  18.054  0.00  0.00    -0.030 C 
ATOM     92  H   GLN d   1     -27.584 -27.150  18.475  0.00  0.00     0.037 H 
ATOM     93  H   GLN d   1     -27.309 -28.950  18.293  0.00  0.00     0.037 H 
BRANCH  91  94
ATOM     94  CG  GLN d   1     -27.018 -27.798  16.535  0.00  0.00     0.011 C 
ATOM     95  H   GLN d   1     -26.624 -28.715  16.096  0.00  0.00     0.047 H 
ATOM     96  H   GLN d   1     -26.434 -26.919  16.261  0.00  0.00     0.047 H 
BRANCH  94  97
ATOM     97  CD  GLN d   1     -28.435 -27.601  16.016  0.00  0.00     0.215 C 
ATOM     98  OE1 GLN d   1     -29.199 -26.787  16.551  0.00  0.00    -0.274 OA
ATOM     99  NE2 GLN d   1     -28.804 -28.355  14.976  0.00  0.00    -0.370 N 
ATOM    100  H   GLN d   1     -29.746 -28.271  14.594  0.00  0.00     0.159 HD
ATOM    101  H   GLN d   1     -28.143 -29.014  14.564  0.00  0.00     0.159 HD
ENDBRANCH  94  97
ENDBRANCH  91  94
ENDBRANCH  18  91
ENDBRANCH  16  18
ENDBRANCH  11  14
ENDBRANCH   9  11
ENDBRANCH   5   7
BRANCH   5 102
ATOM    102  CB  ASP d   1     -24.778 -19.746  20.364  0.00  0.00     0.043 C 
ATOM    103  H   ASP d   1     -25.101 -19.933  19.340  0.00  0.00     0.052 H 
ATOM    104  H   ASP d   1     -23.784 -19.301  20.413  0.00  0.00     0.052 H 
BRANCH 102 105
ATOM    105  CG  ASP d   1     -25.765 -18.767  20.998  0.00  0.00     0.175 C 
ATOM    106  OD1 ASP d   1     -26.846 -19.221  21.449  0.00  0.00    -0.648 OA
ATOM    107  OD2 ASP d   1     -25.475 -17.565  21.042  0.00  0.00    -0.648 OA
ENDBRANCH 102 105
ENDBRANCH   5 102
ENDBRANCH   3   5
BRANCH   1 108
ATOM    108  CA  PRO d   1     -22.945 -21.930  24.322  0.00  0.00     0.091 C 
ATOM    109  N   PRO d   1     -23.432 -22.732  25.447  0.00  0.00    -0.337 N 
ATOM    110  C   PRO d   1     -24.570 -22.403  26.062  0.00  0.00     0.243 C 
ATOM    111  CD  PRO d   1     -22.507 -23.809  25.836  0.00  0.00    -0.001 C 
ATOM    112  O   PRO d   1     -25.215 -21.402  25.767  0.00  0.00    -0.271 OA
ATOM    113  CG  PRO d   1     -21.509 -23.828  24.727  0.00  0.00    -0.048 C 
ATOM    114  H   PRO d   1     -23.011 -24.767  25.961  0.00  0.00     0.064 H 
ATOM    115  H   PRO d   1     -22.047 -23.634  26.809  0.00  0.00     0.064 H 
ATOM    116  CB  PRO d   1     -21.600 -22.575  23.969  0.00  0.00    -0.036 C 
ATOM    117  H   PRO d   1     -20.506 -23.931  25.141  0.00  0.00     0.035 H 
ATOM    118  H   PRO d   1     -21.715 -24.670  24.066  0.00  0.00     0.035 H 
ATOM    119  H   PRO d   1     -20.776 -21.910  24.226  0.00  0.00     0.036 H 
ATOM    120  H   PRO d   1     -21.536 -22.768  22.898  0.00  0.00     0.036 H 
ATOM    121  H   PRO d   1     -22.866 -20.872  24.571  0.00  0.00     0.087 H 
BRANCH 110 122
ATOM    122  CA  PRO d   1     -25.031 -23.334  27.174  0.00  0.00     0.092 C 
ATOM    123  N   PRO d   1     -25.995 -22.700  28.082  0.00  0.00    -0.337 N 
ATOM    124  C   SER d   1     -25.540 -21.817  28.983  0.00  0.00     0.245 C 
ATOM    125  CD  PRO d   1     -27.366 -23.196  27.863  0.00  0.00    -0.001 C 
ATOM    126  O   SER d   1     -24.352 -21.478  29.031  0.00  0.00    -0.271 OA
ATOM    127  CG  PRO d   1     -27.231 -24.002  26.592  0.00  0.00    -0.048 C 
ATOM    128  H   PRO d   1     -28.099 -22.394  27.781  0.00  0.00     0.064 H 
ATOM    129  H   PRO d   1     -27.744 -23.783  28.700  0.00  0.00     0.064 H 
ATOM    130  CB  PRO d   1     -25.828 -24.493  26.581  0.00  0.00    -0.036 C 
ATOM    131  H   PRO d   1     -27.943 -24.827  26.564  0.00  0.00     0.035 H 
ATOM    132  H   PRO d   1     -27.450 -23.399  25.711  0.00  0.00     0.035 H 
ATOM    133  H   PRO d   1     -25.707 -25.414  27.151  0.00  0.00     0.036 H 
ATOM    134  H   PRO d   1     -25.490 -24.759  25.580  0.00  0.00     0.036 H 
ATOM    135  H   PRO d   1     -24.120 -23.630  27.695  0.00  0.00     0.087 H 
BRANCH 124 136
ATOM    136  CA  SER d   1     -26.551 -21.225  29.961  0.00  0.00     0.109 C 
ATOM    137  H   SER d   1     -27.265 -22.005  30.226  0.00  0.00     0.090 H 
BRANCH 136 138
ATOM    138  N   SER d   1     -25.883 -20.769  31.179  0.00  0.00    -0.344 N 
ATOM    139  C   ARG d   1     -25.507 -21.623  32.125  0.00  0.00     0.241 C 
ATOM    140  O   ARG d   1     -25.701 -22.835  32.044  0.00  0.00    -0.271 OA
ATOM    141  H   SER d   1     -25.702 -19.773  31.305  0.00  0.00     0.163 HD
BRANCH 139 142
ATOM    142  CA  ARG d   1     -24.818 -21.024  33.349  0.00  0.00     0.089 C 
ATOM    143  H   ARG d   1     -24.459 -20.017  33.134  0.00  0.00     0.087 H 
BRANCH 142 144
ATOM    144  N   ARG d   1     -25.786 -20.955  34.438  0.00  0.00    -0.346 N 
ATOM    145  C   GLN d   1     -26.689 -19.979  34.478  0.00  0.00     0.241 C 
ATOM    146  O   GLN d   1     -26.616 -18.975  33.767  0.00  0.00    -0.271 OA
ATOM    147  H   ARG d   1     -25.770 -21.660  35.175  0.00  0.00     0.163 HD
BRANCH 145 148
ATOM    148  CA  GLN d   1     -27.842 -20.146  35.462  0.00  0.00     0.090 C 
ATOM    149  H   GLN d   1     -27.623 -20.985  36.123  0.00  0.00     0.087 H 
BRANCH 148 150
ATOM    150  N   GLN d   1     -27.999 -18.950  36.272  0.00  0.00    -0.346 N 
ATOM    151  C   LEU d   1     -27.098 -18.589  37.177  0.00  0.00     0.249 C 
ATOM    152  O   LEU d   1     -26.095 -19.255  37.432  0.00  0.00    -0.271 OA
ATOM    153  H   GLN d   1     -28.828 -18.370  36.141  0.00  0.00     0.163 HD
BRANCH 151 154
ATOM    154  CA  LEU d   1     -27.375 -17.277  37.899  0.00  0.00     0.176 C 
ATOM    155  H   LEU d   1     -28.411 -16.999  37.707  0.00  0.00     0.099 H 
BRANCH 154 156
ATOM    156  N   LEU d   1     -27.243 -17.404  39.350  0.00  0.00    -0.066 N 
ATOM    157  H   LEU d   1     -27.868 -18.137  39.684  0.00  0.00     0.275 HD
ATOM    158  H   LEU d   1     -26.279 -17.645  39.583  0.00  0.00     0.275 HD
ATOM    159  H   LEU d   1     -27.489 -16.518  39.791  0.00  0.00     0.275 HD
ENDBRANCH 154 156
BRANCH 154 160
ATOM    160  CB  LEU d   1     -26.452 -16.185  37.355  0.00  0.00    -0.028 C 
ATOM    161  H   LEU d   1     -25.437 -16.503  37.593  0.00  0.00     0.037 H 
ATOM    162  H   LEU d   1     -26.790 -15.252  37.807  0.00  0.00     0.037 H 
BRANCH 160 163
ATOM    163  CG  LEU d   1     -26.480 -15.956  35.844  0.00  0.00    -0.059 C 
ATOM    164  H   LEU d   1     -26.040 -16.828  35.361  0.00  0.00     0.038 H 
BRANCH 163 165
ATOM    165  CD1 LEU d   1     -27.898 -15.806  35.341  0.00  0.00    -0.073 C 
ATOM    166  H   LEU d   1     -28.354 -14.929  35.800  0.00  0.00     0.028 H 
ATOM    167  H   LEU d   1     -27.887 -15.686  34.258  0.00  0.00     0.028 H 
ATOM    168  H   LEU d   1     -28.471 -16.695  35.603  0.00  0.00     0.028 H 
ENDBRANCH 163 165
BRANCH 163 169
ATOM    169  CD2 LEU d   1     -25.670 -14.730  35.488  0.00  0.00    -0.073 C 
ATOM    170  H   LEU d   1     -25.655 -14.608  34.405  0.00  0.00     0.028 H 
ATOM    171  H   LEU d   1     -26.122 -13.851  35.948  0.00  0.00     0.028 H 
ATOM    172  H   LEU d   1     -24.651 -14.850  35.855  0.00  0.00     0.028 H 
ENDBRANCH 163 169
ENDBRANCH 160 163
ENDBRANCH 154 160
ENDBRANCH 151 154
ENDBRANCH 148 150
BRANCH 148 173
ATOM    173  CB  GLN d   1     -29.137 -20.421  34.687  0.00  0.00    -0.030 C 
ATOM    174  H   GLN d   1     -29.358 -19.524  34.109  0.00  0.00     0.037 H 
ATOM    175  H   GLN d   1     -29.897 -20.687  35.422  0.00  0.00     0.037 H 
BRANCH 173 176
ATOM    176  CG  GLN d   1     -29.052 -21.577  33.698  0.00  0.00     0.011 C 
ATOM    177  H   GLN d   1     -28.146 -21.444  33.107  0.00  0.00     0.047 H 
ATOM    178  H   GLN d   1     -29.958 -21.565  33.093  0.00  0.00     0.047 H 
BRANCH 176 179
ATOM    179  CD  GLN d   1     -28.967 -22.933  34.380  0.00  0.00     0.215 C 
ATOM    180  OE1 GLN d   1     -29.803 -23.274  35.219  0.00  0.00    -0.274 OA
ATOM    181  NE2 GLN d   1     -27.957 -23.717  34.016  0.00  0.00    -0.370 N 
ATOM    182  H   GLN d   1     -27.852 -24.641  34.435  0.00  0.00     0.159 HD
ATOM    183  H   GLN d   1     -27.287 -23.395  33.317  0.00  0.00     0.159 HD
ENDBRANCH 176 179
ENDBRANCH 173 176
ENDBRANCH 148 173
ENDBRANCH 145 148
ENDBRANCH 142 144
BRANCH 142 184
ATOM    184  CB  ARG d   1     -23.602 -21.875  33.728  0.00  0.00    -0.036 C 
ATOM    185  H   ARG d   1     -23.950 -22.898  33.873  0.00  0.00     0.036 H 
ATOM    186  H   ARG d   1     -23.160 -21.435  34.622  0.00  0.00     0.036 H 
BRANCH 184 187
ATOM    187  CG  ARG d   1     -22.515 -21.907  32.643  0.00  0.00    -0.048 C 
ATOM    188  H   ARG d   1     -22.198 -20.880  32.460  0.00  0.00     0.035 H 
ATOM    189  H   ARG d   1     -22.941 -22.384  31.760  0.00  0.00     0.035 H 
BRANCH 187 190
ATOM    190  CD  ARG d   1     -21.281 -22.710  33.058  0.00  0.00     0.009 C 
ATOM    191  H   ARG d   1     -21.587 -23.736  33.263  0.00  0.00     0.064 H 
ATOM    192  H   ARG d   1     -20.844 -22.243  33.941  0.00  0.00     0.064 H 
BRANCH 190 193
ATOM    193  NE  ARG d   1     -20.274 -22.728  31.992  0.00  0.00    -0.227 N 
ATOM    194  CZ  ARG d   1     -20.175 -23.666  31.056  0.00  0.00     0.665 C 
ATOM    195  NH1 ARG d   1     -19.228 -23.585  30.129  0.00  0.00    -0.235 N 
ATOM    196  NH2 ARG d   1     -21.022 -24.688  31.034  0.00  0.00    -0.235 N 
ATOM    197  H   ARG d   1     -18.575 -22.802  30.134  0.00  0.00     0.174 HD
ATOM    198  H   ARG d   1     -19.154 -24.306  29.411  0.00  0.00     0.174 HD
ATOM    199  H   ARG d   1     -21.756 -24.758  31.739  0.00  0.00     0.174 HD
ATOM    200  H   ARG d   1     -20.939 -25.404  30.312  0.00  0.00     0.174 HD
ATOM    201  H   ARG d   1     -19.599 -21.963  31.967  0.00  0.00     0.177 HD
ENDBRANCH 190 193
ENDBRANCH 187 190
ENDBRANCH 184 187
ENDBRANCH 142 184
ENDBRANCH 139 142
ENDBRANCH 136 138
BRANCH 136 202
ATOM    202  CB  SER d   1     -27.306 -20.061  29.311  0.00  0.00     0.044 C 
ATOM    203  H   SER d   1     -27.734 -20.404  28.369  0.00  0.00     0.077 H 
ATOM    204  H   SER d   1     -26.608 -19.240  29.147  0.00  0.00     0.077 H 
BRANCH 202 205
ATOM    205  OG  SER d   1     -28.354 -19.607  30.147  0.00  0.00    -0.398 OA
ATOM    206  H   SER d   1     -27.989 -19.309  30.983  0.00  0.00     0.209 HD
ENDBRANCH 202 205
ENDBRANCH 136 202
ENDBRANCH 124 136
ENDBRANCH 110 122
ENDBRANCH   1 108
TORSDOF 52
