REMARK WARNING: 32 MAX_TORS EXCEEDED!!!
REMARK  59 active torsions:
REMARK  status: ('A' for Active; 'I' for Inactive)
REMARK    1  A    between atoms: N_1  and  CA_2 
REMARK    2  A    between atoms: CA_2  and  C_3 
REMARK    3  A    between atoms: CA_2  and  CB_5 
REMARK       I    between atoms: C_3  and  N_11 
REMARK    4  A    between atoms: CB_5  and  CG_6 
REMARK    5  A    between atoms: N_11  and  CA_12 
REMARK    6  A    between atoms: CA_12  and  C_13 
REMARK    7  A    between atoms: CA_12  and  CB_15 
REMARK       I    between atoms: C_13  and  N_19 
REMARK    8  A    between atoms: CB_15  and  CG_16 
REMARK    9  A    between atoms: CG_16  and  CD1_17 
REMARK   10  A    between atoms: CG_16  and  CD2_18 
REMARK   11  A    between atoms: N_19  and  CA_20 
REMARK   12  A    between atoms: CA_20  and  C_21 
REMARK   13  A    between atoms: CA_20  and  CB_23 
REMARK       I    between atoms: C_21  and  N_28 
REMARK   14  A    between atoms: CB_23  and  CG_24 
REMARK   15  A    between atoms: CG_24  and  CD_25 
REMARK       I    between atoms: CD_25  and  NE2_27 
REMARK   16  A    between atoms: N_28  and  CA_29 
REMARK   17  A    between atoms: CA_29  and  C_30 
REMARK   18  A    between atoms: CA_29  and  CB_32 
REMARK       I    between atoms: C_30  and  N_39 
REMARK   19  A    between atoms: CB_32  and  CG_33 
REMARK   20  A    between atoms: CG_33  and  CD_34 
REMARK   21  A    between atoms: CD_34  and  NE_35 
REMARK       I    between atoms: NE_35  and  CZ_36 
REMARK       I    between atoms: CZ_36  and  NH1_37 
REMARK       I    between atoms: CZ_36  and  NH2_38 
REMARK   22  A    between atoms: N_39  and  CA_40 
REMARK   23  A    between atoms: CA_40  and  C_41 
REMARK       I    between atoms: C_41  and  N_43 
REMARK   24  A    between atoms: N_43  and  CA_44 
REMARK   25  A    between atoms: CA_44  and  C_45 
REMARK   26  A    between atoms: CA_44  and  CB_47 
REMARK       I    between atoms: C_45  and  N_49 
REMARK   27  A    between atoms: CB_47  and  SG_48 
REMARK   28  A    between atoms: N_49  and  CA_50 
REMARK   29  A    between atoms: CA_50  and  C_51 
REMARK   30  A    between atoms: CA_50  and  CB_53 
REMARK       I    between atoms: C_51  and  N_54 
REMARK   31  A    between atoms: N_54  and  CA_55 
REMARK   32  A    between atoms: CA_55  and  C_56 
REMARK   33  A    between atoms: CA_55  and  CB_58 
REMARK       I    between atoms: C_56  and  N_62 
REMARK   34  A    between atoms: CB_58  and  CG_59 
REMARK   35  A    between atoms: N_62  and  CA_63 
REMARK   36  A    between atoms: CA_63  and  C_64 
REMARK       I    between atoms: C_64  and  N_66 
REMARK   37  A    between atoms: N_66  and  CA_67 
REMARK   38  A    between atoms: CA_67  and  C_68 
REMARK   39  A    between atoms: CA_67  and  CB_70 
REMARK       I    between atoms: C_68  and  N_75 
REMARK   40  A    between atoms: CB_70  and  CG_71 
REMARK   41  A    between atoms: CG_71  and  CD_72 
REMARK       I    between atoms: CD_72  and  NE2_74 
REMARK   42  A    between atoms: N_75  and  CA_76 
REMARK   43  A    between atoms: CA_76  and  C_77 
REMARK   44  A    between atoms: CA_76  and  CB_79 
REMARK       I    between atoms: C_77  and  N_81 
REMARK   45  A    between atoms: CB_79  and  OG_80 
REMARK   46  A    between atoms: N_81  and  CA_82 
REMARK   47  A    between atoms: CA_82  and  C_83 
REMARK   48  A    between atoms: CA_82  and  CB_85 
REMARK       I    between atoms: C_83  and  N_92 
REMARK   49  A    between atoms: CB_85  and  CG_86 
REMARK   50  A    between atoms: N_92  and  CA_93 
REMARK   51  A    between atoms: CA_93  and  C_94 
REMARK   52  A    between atoms: CA_93  and  CB_96 
REMARK       I    between atoms: C_94  and  N_103 
REMARK   53  A    between atoms: CB_96  and  CG_97 
REMARK   54  A    between atoms: CG_97  and  CD_98 
REMARK   55  A    between atoms: CD_98  and  NE_99 
REMARK       I    between atoms: NE_99  and  CZ_100 
REMARK       I    between atoms: CZ_100  and  NH1_101 
REMARK   56  A    between atoms: N_103  and  CA_104 
REMARK   57  A    between atoms: CA_104  and  CB_105 
REMARK   58  A    between atoms: CA_104  and  C_108 
REMARK   59  A    between atoms: CB_105  and  OG_106 
REMARK       I    between atoms: C_108  and  NT_107 
ROOT
ATOM      1  C   ALA d   1     -24.315 -21.968  23.244  0.00  0.00     0.240 C 
ATOM      2  O   ALA d   1     -25.064 -22.931  23.081  0.00  0.00    -0.271 OA
ATOM      3  N   ASP d   1     -24.290 -20.921  22.421  0.00  0.00    -0.346 N 
ATOM      4  H   ASP d   1     -23.747 -20.093  22.666  0.00  0.00     0.163 HD
ENDROOT
BRANCH   1   5
ATOM      5  CA  ALA d   1     -23.349 -21.939  24.414  0.00  0.00     0.086 C 
ATOM      6  H   ALA d   1     -23.076 -20.905  24.623  0.00  0.00     0.086 H 
BRANCH   5   7
ATOM      7  N   ALA d   1     -23.978 -22.509  25.591  0.00  0.00    -0.346 N 
ATOM      8  C   CYS d   1     -25.099 -22.024  26.102  0.00  0.00     0.241 C 
ATOM      9  O   CYS d   1     -25.715 -21.056  25.641  0.00  0.00    -0.271 OA
ATOM     10  H   ALA d   1     -23.540 -23.313  26.041  0.00  0.00     0.163 HD
BRANCH   8  11
ATOM     11  CA  CYS d   1     -25.581 -22.736  27.356  0.00  0.00     0.097 C 
ATOM     12  H   CYS d   1     -24.689 -22.972  27.936  0.00  0.00     0.088 H 
BRANCH  11  13
ATOM     13  N   CYS d   1     -26.394 -21.891  28.211  0.00  0.00    -0.346 N 
ATOM     14  C   GLY d   1     -26.223 -21.978  29.522  0.00  0.00     0.236 C 
ATOM     15  O   GLY d   1     -25.437 -22.784  30.021  0.00  0.00    -0.272 OA
ATOM     16  H   CYS d   1     -27.078 -21.248  27.814  0.00  0.00     0.163 HD
BRANCH  14  17
ATOM     17  CA  GLY d   1     -27.025 -21.028  30.383  0.00  0.00     0.069 C 
ATOM     18  H   GLY d   1     -27.150 -20.098  29.829  0.00  0.00     0.078 H 
ATOM     19  H   GLY d   1     -27.976 -21.508  30.616  0.00  0.00     0.078 H 
BRANCH  17  20
ATOM     20  N   GLY d   1     -26.363 -20.717  31.634  0.00  0.00    -0.351 N 
ATOM     21  C   ARG d   1     -25.219 -20.048  31.658  0.00  0.00     0.240 C 
ATOM     22  O   ARG d   1     -24.649 -19.662  30.624  0.00  0.00    -0.271 OA
ATOM     23  H   GLY d   1     -26.785 -21.018  32.512  0.00  0.00     0.163 HD
BRANCH  21  24
ATOM     24  CA  ARG d   1     -24.632 -19.772  33.050  0.00  0.00     0.089 C 
ATOM     25  H   ARG d   1     -24.021 -18.874  32.959  0.00  0.00     0.087 H 
BRANCH  24  26
ATOM     26  N   ARG d   1     -25.670 -19.497  34.051  0.00  0.00    -0.346 N 
ATOM     27  C   GLN d   1     -26.457 -18.427  33.966  0.00  0.00     0.241 C 
ATOM     28  O   GLN d   1     -26.374 -17.608  33.044  0.00  0.00    -0.271 OA
ATOM     29  H   ARG d   1     -25.791 -20.142  34.831  0.00  0.00     0.163 HD
BRANCH  27  30
ATOM     30  CA  GLN d   1     -27.498 -18.258  35.068  0.00  0.00     0.090 C 
ATOM     31  H   GLN d   1     -28.366 -17.762  34.633  0.00  0.00     0.087 H 
BRANCH  30  32
ATOM     32  N   GLN d   1     -27.935 -19.548  35.593  0.00  0.00    -0.346 N 
ATOM     33  C   LEU d   1     -28.515 -20.459  34.820  0.00  0.00     0.241 C 
ATOM     34  O   LEU d   1     -28.749 -20.274  33.627  0.00  0.00    -0.271 OA
ATOM     35  H   GLN d   1     -27.791 -19.756  36.581  0.00  0.00     0.163 HD
BRANCH  33  36
ATOM     36  CA  LEU d   1     -28.886 -21.785  35.487  0.00  0.00     0.089 C 
ATOM     37  H   LEU d   1     -28.905 -22.530  34.691  0.00  0.00     0.087 H 
BRANCH  36  38
ATOM     38  N   LEU d   1     -27.888 -22.254  36.449  0.00  0.00    -0.346 N 
ATOM     39  C   HIS d   1     -26.640 -22.514  36.059  0.00  0.00     0.249 C 
ATOM     40  O   HIS d   1     -26.245 -22.301  34.916  0.00  0.00    -0.271 OA
ATOM     41  H   LEU d   1     -28.149 -22.383  37.426  0.00  0.00     0.163 HD
BRANCH  39  42
ATOM     42  CA  HIS d   1     -25.694 -23.087  37.110  0.00  0.00     0.181 C 
ATOM     43  H   HIS d   1     -25.827 -22.516  38.029  0.00  0.00     0.099 H 
BRANCH  42  44
ATOM     44  N   HIS d   1     -26.004 -24.478  37.415  0.00  0.00    -0.066 N 
ATOM     45  H   HIS d   1     -26.972 -24.549  37.728  0.00  0.00     0.275 HD
ATOM     46  H   HIS d   1     -25.874 -25.046  36.578  0.00  0.00     0.275 HD
ATOM     47  H   HIS d   1     -25.382 -24.810  38.152  0.00  0.00     0.275 HD
ENDBRANCH  42  44
BRANCH  42  48
ATOM     48  CB  HIS d   1     -24.243 -22.951  36.636  0.00  0.00     0.011 C 
ATOM     49  H   HIS d   1     -24.109 -21.927  36.289  0.00  0.00     0.046 H 
ATOM     50  H   HIS d   1     -24.082 -23.702  35.862  0.00  0.00     0.046 H 
BRANCH  48  51
ATOM     51  CG  HIS d   1     -23.232 -23.194  37.712  0.00  0.00     0.053 A 
ATOM     52  ND1 HIS d   1     -23.131 -22.393  38.830  0.00  0.00    -0.247 NA
ATOM     53  CE1 HIS d   1     -22.163 -22.847  39.606  0.00  0.00     0.064 A 
ATOM     54  NE2 HIS d   1     -21.636 -23.915  39.033  0.00  0.00    -0.359 N 
ATOM     55  H   HIS d   1     -21.852 -22.414  40.557  0.00  0.00     0.143 H 
ATOM     56  CD2 HIS d   1     -22.287 -24.153  37.846  0.00  0.00     0.002 A 
ATOM     57  H   HIS d   1     -20.870 -24.473  39.411  0.00  0.00     0.166 HD
ATOM     58  H   HIS d   1     -22.081 -24.962  37.145  0.00  0.00     0.114 H 
ENDBRANCH  48  51
ENDBRANCH  42  48
ENDBRANCH  39  42
ENDBRANCH  36  38
BRANCH  36  59
ATOM     59  CB  LEU d   1     -30.278 -21.711  36.121  0.00  0.00    -0.035 C 
ATOM     60  H   LEU d   1     -30.945 -21.214  35.416  0.00  0.00     0.037 H 
ATOM     61  H   LEU d   1     -30.192 -21.169  37.063  0.00  0.00     0.037 H 
BRANCH  59  62
ATOM     62  CG  LEU d   1     -30.852 -23.094  36.421  0.00  0.00    -0.059 C 
ATOM     63  H   LEU d   1     -30.229 -23.570  37.178  0.00  0.00     0.038 H 
BRANCH  62  64
ATOM     64  CD1 LEU d   1     -32.261 -23.003  36.996  0.00  0.00    -0.073 C 
ATOM     65  H   LEU d   1     -32.237 -22.431  37.923  0.00  0.00     0.028 H 
ATOM     66  H   LEU d   1     -32.914 -22.507  36.278  0.00  0.00     0.028 H 
ATOM     67  H   LEU d   1     -32.636 -24.007  37.197  0.00  0.00     0.028 H 
ENDBRANCH  62  64
BRANCH  62  68
ATOM     68  CD2 LEU d   1     -30.830 -23.945  35.153  0.00  0.00    -0.073 C 
ATOM     69  H   LEU d   1     -31.431 -23.462  34.383  0.00  0.00     0.028 H 
ATOM     70  H   LEU d   1     -29.803 -24.047  34.803  0.00  0.00     0.028 H 
ATOM     71  H   LEU d   1     -31.240 -24.931  35.371  0.00  0.00     0.028 H 
ENDBRANCH  62  68
ENDBRANCH  59  62
ENDBRANCH  36  59
ENDBRANCH  33  36
ENDBRANCH  30  32
BRANCH  30  72
ATOM     72  CB  GLN d   1     -26.937 -17.389  36.201  0.00  0.00    -0.030 C 
ATOM     73  H   GLN d   1     -26.069 -17.910  36.605  0.00  0.00     0.037 H 
ATOM     74  H   GLN d   1     -27.743 -17.238  36.919  0.00  0.00     0.037 H 
BRANCH  72  75
ATOM     75  CG  GLN d   1     -26.467 -16.011  35.758  0.00  0.00     0.011 C 
ATOM     76  H   GLN d   1     -25.785 -16.144  34.918  0.00  0.00     0.047 H 
ATOM     77  H   GLN d   1     -25.992 -15.529  36.612  0.00  0.00     0.047 H 
BRANCH  75  78
ATOM     78  CD  GLN d   1     -27.608 -15.124  35.297  0.00  0.00     0.215 C 
ATOM     79  OE1 GLN d   1     -28.555 -14.873  36.043  0.00  0.00    -0.274 OA
ATOM     80  NE2 GLN d   1     -27.523 -14.646  34.062  0.00  0.00    -0.370 N 
ATOM     81  H   GLN d   1     -28.261 -14.044  33.696  0.00  0.00     0.159 HD
ATOM     82  H   GLN d   1     -26.720 -14.880  33.479  0.00  0.00     0.159 HD
ENDBRANCH  75  78
ENDBRANCH  72  75
ENDBRANCH  30  72
ENDBRANCH  27  30
ENDBRANCH  24  26
BRANCH  24  83
ATOM     83  CB  ARG d   1     -23.744 -20.939  33.512  0.00  0.00    -0.036 C 
ATOM     84  H   ARG d   1     -24.392 -21.805  33.643  0.00  0.00     0.036 H 
ATOM     85  H   ARG d   1     -23.239 -20.619  34.424  0.00  0.00     0.036 H 
BRANCH  83  86
ATOM     86  CG  ARG d   1     -22.659 -21.333  32.508  0.00  0.00    -0.048 C 
ATOM     87  H   ARG d   1     -22.206 -20.415  32.133  0.00  0.00     0.035 H 
ATOM     88  H   ARG d   1     -23.132 -21.927  31.726  0.00  0.00     0.035 H 
BRANCH  86  89
ATOM     89  CD  ARG d   1     -21.546 -22.181  33.128  0.00  0.00     0.009 C 
ATOM     90  H   ARG d   1     -21.953 -23.145  33.432  0.00  0.00     0.064 H 
ATOM     91  H   ARG d   1     -21.139 -21.664  33.997  0.00  0.00     0.064 H 
BRANCH  89  92
ATOM     92  NE  ARG d   1     -20.482 -22.391  32.147  0.00  0.00    -0.227 N 
ATOM     93  CZ  ARG d   1     -20.447 -23.401  31.284  0.00  0.00     0.665 C 
ATOM     94  NH1 ARG d   1     -19.461 -23.483  30.408  0.00  0.00    -0.235 N 
ATOM     95  NH2 ARG d   1     -21.402 -24.325  31.289  0.00  0.00    -0.235 N 
ATOM     96  H   ARG d   1     -18.730 -22.772  30.395  0.00  0.00     0.174 HD
ATOM     97  H   ARG d   1     -19.431 -24.257  29.744  0.00  0.00     0.174 HD
ATOM     98  H   ARG d   1     -22.169 -24.262  31.958  0.00  0.00     0.174 HD
ATOM     99  H   ARG d   1     -21.368 -25.097  30.623  0.00  0.00     0.174 HD
ATOM    100  H   ARG d   1     -19.716 -21.718  32.124  0.00  0.00     0.177 HD
ENDBRANCH  89  92
ENDBRANCH  86  89
ENDBRANCH  83  86
ENDBRANCH  24  83
ENDBRANCH  21  24
ENDBRANCH  17  20
ENDBRANCH  14  17
ENDBRANCH  11  13
BRANCH  11 101
ATOM    101  CB  CYS d   1     -26.268 -24.061  27.027  0.00  0.00     0.001 C 
ATOM    102  H   CYS d   1     -26.755 -24.397  27.943  0.00  0.00     0.052 H 
ATOM    103  H   CYS d   1     -25.496 -24.726  26.641  0.00  0.00     0.052 H 
BRANCH 101 104
ATOM    104  SG  CYS d   1     -27.536 -23.969  25.778  0.00  0.00    -0.180 SA
ATOM    105  H   CYS d   1     -27.006 -23.524  24.642  0.00  0.00     0.101 HD
ENDBRANCH 101 104
ENDBRANCH  11 101
ENDBRANCH   8  11
ENDBRANCH   5   7
BRANCH   5 106
ATOM    106  CB  ALA d   1     -22.104 -22.720  24.070  0.00  0.00    -0.049 C 
ATOM    107  H   ALA d   1     -21.407 -22.678  24.907  0.00  0.00     0.030 H 
ATOM    108  H   ALA d   1     -22.371 -23.758  23.870  0.00  0.00     0.030 H 
ATOM    109  H   ALA d   1     -21.637 -22.286  23.186  0.00  0.00     0.030 H 
ENDBRANCH   5 106
ENDBRANCH   1   5
BRANCH   3 110
ATOM    110  CA  ASP d   1     -25.038 -20.958  21.172  0.00  0.00     0.098 C 
ATOM    111  H   ASP d   1     -26.081 -21.192  21.386  0.00  0.00     0.088 H 
BRANCH 110 112
ATOM    112  C   ASP d   1     -24.427 -22.033  20.281  0.00  0.00     0.241 C 
ATOM    113  O   ASP d   1     -23.208 -22.091  20.116  0.00  0.00    -0.271 OA
ATOM    114  N   GLY d   1     -25.284 -22.892  19.735  0.00  0.00    -0.351 N 
ATOM    115  H   GLY d   1     -26.281 -22.787  19.924  0.00  0.00     0.163 HD
BRANCH 114 116
ATOM    116  CA  GLY d   1     -24.839 -23.969  18.881  0.00  0.00     0.069 C 
ATOM    117  H   GLY d   1     -23.794 -24.180  19.108  0.00  0.00     0.078 H 
ATOM    118  H   GLY d   1     -24.970 -23.662  17.843  0.00  0.00     0.078 H 
BRANCH 116 119
ATOM    119  C   GLY d   1     -25.642 -25.230  19.112  0.00  0.00     0.236 C 
ATOM    120  O   GLY d   1     -26.608 -25.240  19.883  0.00  0.00    -0.272 OA
ATOM    121  N   GLN d   1     -25.242 -26.296  18.428  0.00  0.00    -0.346 N 
ATOM    122  H   GLN d   1     -24.495 -26.187  17.741  0.00  0.00     0.163 HD
BRANCH 121 123
ATOM    123  CA  GLN d   1     -25.832 -27.622  18.622  0.00  0.00     0.090 C 
ATOM    124  H   GLN d   1     -25.921 -27.818  19.691  0.00  0.00     0.087 H 
BRANCH 123 125
ATOM    125  C   GLN d   1     -24.922 -28.645  17.967  0.00  0.00     0.241 C 
ATOM    126  O   GLN d   1     -24.107 -28.298  17.108  0.00  0.00    -0.271 OA
ATOM    127  N   SER d   1     -25.056 -29.906  18.366  0.00  0.00    -0.344 N 
ATOM    128  H   SER d   1     -25.837 -30.161  18.970  0.00  0.00     0.163 HD
BRANCH 127 129
ATOM    129  CA  SER d   1     -24.099 -30.935  17.952  0.00  0.00     0.109 C 
ATOM    130  H   SER d   1     -23.141 -30.421  17.879  0.00  0.00     0.090 H 
BRANCH 129 131
ATOM    131  C   SER d   1     -24.372 -31.539  16.572  0.00  0.00     0.243 C 
ATOM    132  O   SER d   1     -23.439 -31.908  15.849  0.00  0.00    -0.271 OA
ATOM    133  N   PHE d   1     -25.649 -31.661  16.222  0.00  0.00    -0.346 N 
ATOM    134  H   PHE d   1     -26.372 -31.326  16.858  0.00  0.00     0.163 HD
BRANCH 133 135
ATOM    135  CA  PHE d   1     -26.043 -32.261  14.953  0.00  0.00     0.093 C 
ATOM    136  H   PHE d   1     -25.155 -32.687  14.486  0.00  0.00     0.088 H 
BRANCH 135 137
ATOM    137  C   PHE d   1     -26.642 -31.203  14.039  0.00  0.00     0.241 C 
ATOM    138  O   PHE d   1     -27.545 -30.453  14.447  0.00  0.00    -0.271 OA
ATOM    139  N   ARG d   1     -26.142 -31.147  12.806  0.00  0.00    -0.346 N 
ATOM    140  H   ARG d   1     -25.369 -31.765  12.559  0.00  0.00     0.163 HD
BRANCH 139 141
ATOM    141  CA  ARG d   1     -26.662 -30.232  11.796  0.00  0.00     0.089 C 
ATOM    142  H   ARG d   1     -26.682 -29.233  12.230  0.00  0.00     0.087 H 
BRANCH 141 143
ATOM    143  C   ARG d   1     -28.073 -30.628  11.401  0.00  0.00     0.241 C 
ATOM    144  O   ARG d   1     -28.863 -29.778  10.978  0.00  0.00    -0.271 OA
ATOM    145  N   SET d   1     -28.386 -31.914  11.546  0.00  0.00    -0.344 N 
ATOM    146  H   SET d   1     -27.685 -32.563  11.905  0.00  0.00     0.163 HD
BRANCH 145 147
ATOM    147  CA  SET d   1     -29.727 -32.417  11.197  0.00  0.00     0.109 C 
ATOM    148  H   SET d   1     -30.017 -31.903  10.281  0.00  0.00     0.090 H 
BRANCH 147 149
ATOM    149  CB  SET d   1     -29.736 -33.930  10.904  0.00  0.00     0.044 C 
ATOM    150  H   SET d   1     -28.991 -34.147  10.138  0.00  0.00     0.077 H 
ATOM    151  H   SET d   1     -30.730 -34.218  10.562  0.00  0.00     0.077 H 
BRANCH 149 152
ATOM    152  OG  SET d   1     -29.417 -34.672  12.086  0.00  0.00    -0.398 OA
ATOM    153  H   SET d   1     -29.427 -35.611  11.886  0.00  0.00     0.209 HD
ENDBRANCH 149 152
ENDBRANCH 147 149
BRANCH 147 154
ATOM    154  C   SET d   1     -30.743 -32.094  12.306  0.00  0.00     0.240 C 
ATOM    155  NT  SET d   1     -30.256 -31.472  13.376  0.00  0.00    -0.368 N 
ATOM    156  H   SET d   1     -30.872 -31.241  14.156  0.00  0.00     0.159 HD
ATOM    157  H   SET d   1     -29.267 -31.227  13.417  0.00  0.00     0.159 HD
ATOM    158  O   SET d   1     -31.926 -32.421  12.187  0.00  0.00    -0.271 OA
ENDBRANCH 147 154
ENDBRANCH 145 147
ENDBRANCH 141 143
BRANCH 141 159
ATOM    159  CB  ARG d   1     -25.750 -30.190  10.551  0.00  0.00    -0.036 C 
ATOM    160  H   ARG d   1     -26.370 -29.873   9.712  0.00  0.00     0.036 H 
ATOM    161  H   ARG d   1     -25.314 -31.183  10.442  0.00  0.00     0.036 H 
BRANCH 159 162
ATOM    162  CG  ARG d   1     -24.587 -29.198  10.648  0.00  0.00    -0.048 C 
ATOM    163  H   ARG d   1     -24.169 -29.257  11.653  0.00  0.00     0.035 H 
ATOM    164  H   ARG d   1     -24.967 -28.201  10.427  0.00  0.00     0.035 H 
BRANCH 162 165
ATOM    165  CD  ARG d   1     -23.476 -29.525   9.643  0.00  0.00     0.009 C 
ATOM    166  H   ARG d   1     -22.825 -28.659   9.523  0.00  0.00     0.064 H 
ATOM    167  H   ARG d   1     -23.917 -29.777   8.679  0.00  0.00     0.064 H 
BRANCH 165 168
ATOM    168  NE  ARG d   1     -22.701 -30.656  10.138  0.00  0.00    -0.227 N 
ATOM    169  CZ  ARG d   1     -21.969 -31.467   9.389  0.00  0.00     0.665 C 
ATOM    170  NH1 ARG d   1     -21.314 -32.469   9.967  0.00  0.00    -0.235 N 
ATOM    171  NH2 ARG d   1     -21.905 -31.289   8.076  0.00  0.00    -0.235 N 
ATOM    172  H   ARG d   1     -21.379 -32.606  10.976  0.00  0.00     0.174 HD
ATOM    173  H   ARG d   1     -20.747 -33.101   9.402  0.00  0.00     0.174 HD
ATOM    174  H   ARG d   1     -22.421 -30.525   7.639  0.00  0.00     0.174 HD
ATOM    175  H   ARG d   1     -21.340 -31.916   7.503  0.00  0.00     0.174 HD
ATOM    176  H   ARG d   1     -22.724 -30.837  11.142  0.00  0.00     0.177 HD
ENDBRANCH 165 168
ENDBRANCH 162 165
ENDBRANCH 159 162
ENDBRANCH 141 159
ENDBRANCH 139 141
ENDBRANCH 135 137
BRANCH 135 177
ATOM    177  CB  PHE d   1     -27.076 -33.376  15.181  0.00  0.00    -0.014 C 
ATOM    178  H   PHE d   1     -27.670 -33.450  14.270  0.00  0.00     0.043 H 
ATOM    179  H   PHE d   1     -27.643 -33.107  16.072  0.00  0.00     0.043 H 
BRANCH 177 180
ATOM    180  CG  PHE d   1     -26.480 -34.748  15.434  0.00  0.00    -0.056 A 
ATOM    181  CD1 PHE d   1     -25.124 -34.919  15.646  0.00  0.00    -0.077 A 
ATOM    182  CE1 PHE d   1     -24.599 -36.185  15.873  0.00  0.00    -0.082 A 
ATOM    183  H   PHE d   1     -24.462 -34.053  15.635  0.00  0.00     0.084 H 
ATOM    184  CZ  PHE d   1     -25.427 -37.287  15.880  0.00  0.00    -0.083 A 
ATOM    185  H   PHE d   1     -23.530 -36.307  16.046  0.00  0.00     0.083 H 
ATOM    186  CE2 PHE d   1     -26.778 -37.133  15.665  0.00  0.00    -0.082 A 
ATOM    187  H   PHE d   1     -25.012 -38.280  16.056  0.00  0.00     0.083 H 
ATOM    188  CD2 PHE d   1     -27.297 -35.867  15.443  0.00  0.00    -0.077 A 
ATOM    189  H   PHE d   1     -27.436 -38.002  15.669  0.00  0.00     0.083 H 
ATOM    190  H   PHE d   1     -28.367 -35.750  15.272  0.00  0.00     0.084 H 
ENDBRANCH 177 180
ENDBRANCH 135 177
ENDBRANCH 133 135
ENDBRANCH 129 131
BRANCH 129 191
ATOM    191  CB  SER d   1     -24.039 -32.057  18.991  0.00  0.00     0.044 C 
ATOM    192  H   SER d   1     -24.979 -32.608  18.971  0.00  0.00     0.077 H 
ATOM    193  H   SER d   1     -23.873 -31.619  19.975  0.00  0.00     0.077 H 
BRANCH 191 194
ATOM    194  OG  SER d   1     -22.977 -32.949  18.700  0.00  0.00    -0.398 OA
ATOM    195  H   SER d   1     -22.145 -32.469  18.711  0.00  0.00     0.209 HD
ENDBRANCH 191 194
ENDBRANCH 129 191
ENDBRANCH 127 129
ENDBRANCH 123 125
BRANCH 123 196
ATOM    196  CB  GLN d   1     -27.246 -27.712  18.045  0.00  0.00    -0.030 C 
ATOM    197  H   GLN d   1     -27.809 -26.872  18.452  0.00  0.00     0.037 H 
ATOM    198  H   GLN d   1     -27.637 -28.694  18.313  0.00  0.00     0.037 H 
BRANCH 196 199
ATOM    199  CG  GLN d   1     -27.321 -27.604  16.529  0.00  0.00     0.011 C 
ATOM    200  H   GLN d   1     -26.929 -28.527  16.102  0.00  0.00     0.047 H 
ATOM    201  H   GLN d   1     -26.743 -26.733  16.221  0.00  0.00     0.047 H 
BRANCH 199 202
ATOM    202  CD  GLN d   1     -28.749 -27.424  16.039  0.00  0.00     0.215 C 
ATOM    203  OE1 GLN d   1     -29.510 -26.622  16.587  0.00  0.00    -0.274 OA
ATOM    204  NE2 GLN d   1     -29.124 -28.176  15.006  0.00  0.00    -0.370 N 
ATOM    205  H   GLN d   1     -30.073 -28.101  14.639  0.00  0.00     0.159 HD
ATOM    206  H   GLN d   1     -28.463 -28.827  14.582  0.00  0.00     0.159 HD
ENDBRANCH 199 202
ENDBRANCH 196 199
ENDBRANCH 123 196
ENDBRANCH 121 123
ENDBRANCH 116 119
ENDBRANCH 114 116
ENDBRANCH 110 112
BRANCH 110 207
ATOM    207  CB  ASP d   1     -25.030 -19.603  20.466  0.00  0.00     0.043 C 
ATOM    208  H   ASP d   1     -25.326 -19.766  19.430  0.00  0.00     0.052 H 
ATOM    209  H   ASP d   1     -24.028 -19.184  20.560  0.00  0.00     0.052 H 
BRANCH 207 210
ATOM    210  CG  ASP d   1     -26.008 -18.611  21.078  0.00  0.00     0.175 C 
ATOM    211  OD1 ASP d   1     -27.134 -19.029  21.429  0.00  0.00    -0.648 OA
ATOM    212  OD2 ASP d   1     -25.654 -17.421  21.205  0.00  0.00    -0.648 OA
ENDBRANCH 207 210
ENDBRANCH 110 207
ENDBRANCH   3 110
TORSDOF 59
