REMARK WARNING: 32 MAX_TORS EXCEEDED!!!
REMARK  43 active torsions:
REMARK  status: ('A' for Active; 'I' for Inactive)
REMARK    1  A    between atoms: CA_2  and  N_1 
REMARK    2  A    between atoms: C_3  and  CA_2 
REMARK    3  A    between atoms: CA_2  and  CB_5 
REMARK       I    between atoms: N_8  and  C_3 
REMARK    4  A    between atoms: CB_5  and  CG1_6 
REMARK    5  A    between atoms: CB_5  and  CG2_7 
REMARK    6  A    between atoms: CA_9  and  N_8 
REMARK    7  A    between atoms: C_10  and  CA_9 
REMARK    8  A    between atoms: CA_9  and  CB_12 
REMARK       I    between atoms: N_13  and  C_10 
REMARK    9  A    between atoms: CA_14  and  N_13 
REMARK   10  A    between atoms: C_15  and  CA_14 
REMARK   11  A    between atoms: CA_14  and  CB_17 
REMARK       I    between atoms: N_24  and  C_15 
REMARK   12  A    between atoms: CB_17  and  CG_18 
REMARK   13  A    between atoms: CG_18  and  CD_19 
REMARK   14  A    between atoms: CD_19  and  NE_20 
REMARK       I    between atoms: NE_20  and  CZ_21 
REMARK       I    between atoms: CZ_21  and  NH1_22 
REMARK   15  A    between atoms: C_26  and  CA_25 
REMARK       I    between atoms: N_31  and  C_26 
REMARK   16  A    between atoms: C_33  and  CA_32 
REMARK       I    between atoms: N_38  and  C_33 
REMARK   17  A    between atoms: C_40  and  CA_39 
REMARK       I    between atoms: N_45  and  C_40 
REMARK   18  A    between atoms: CA_46  and  N_45 
REMARK   19  A    between atoms: C_47  and  CA_46 
REMARK   20  A    between atoms: CA_46  and  CB_49 
REMARK       I    between atoms: N_53  and  C_47 
REMARK   21  A    between atoms: CB_49  and  CG1_50 
REMARK   22  A    between atoms: CB_49  and  CG2_51 
REMARK   23  A    between atoms: CG1_50  and  CD1_52 
REMARK   24  A    between atoms: CA_54  and  N_53 
REMARK   25  A    between atoms: C_55  and  CA_54 
REMARK       I    between atoms: N_57  and  C_55 
REMARK   26  A    between atoms: CA_58  and  N_57 
REMARK   27  A    between atoms: C_59  and  CA_58 
REMARK   28  A    between atoms: CA_58  and  CB_61 
REMARK       I    between atoms: N_62  and  C_59 
REMARK   29  A    between atoms: CA_63  and  N_62 
REMARK   30  A    between atoms: C_64  and  CA_63 
REMARK   31  A    between atoms: CA_63  and  CB_66 
REMARK       I    between atoms: N_71  and  C_64 
REMARK   32  A    between atoms: CB_66  and  CG_67 
REMARK   33  A    between atoms: CG_67  and  CD_68 
REMARK   34  A    between atoms: CA_72  and  N_71 
REMARK   35  A    between atoms: C_73  and  CA_72 
REMARK   36  A    between atoms: CA_72  and  CB_75 
REMARK       I    between atoms: N_78  and  C_73 
REMARK   37  A    between atoms: CB_75  and  CG1_76 
REMARK   38  A    between atoms: CB_75  and  CG2_77 
REMARK   39  A    between atoms: C_80  and  CA_79 
REMARK       I    between atoms: N_86  and  C_80 
REMARK   40  A    between atoms: CA_88  and  C_85 
REMARK       I    between atoms: C_85  and  N1_93 
REMARK   41  A    between atoms: N_86  and  CA_88 
REMARK   42  A    between atoms: CA_88  and  CB_89 
REMARK   43  A    between atoms: CB_89  and  CG_90 
ROOT
ATOM      1  C   PRO d   1      14.037  12.635   9.025  0.00  0.00     0.241 C 
ATOM      2  O   PRO d   1      14.199  13.513   8.181  0.00  0.00    -0.271 OA
ATOM      3  N   ILE d   1      14.053  11.340   8.745  0.00  0.00    -0.346 N 
ATOM      4  H   ILE d   1      13.979  10.666   9.507  0.00  0.00     0.163 HD
ENDROOT
BRANCH   3   5
ATOM      5  CA  ILE d   1      14.172  10.857   7.387  0.00  0.00     0.092 C 
ATOM      6  H   ILE d   1      15.031  11.345   6.927  0.00  0.00     0.088 H 
BRANCH   5   7
ATOM      7  C   ILE d   1      12.916  11.198   6.592  0.00  0.00     0.241 C 
ATOM      8  O   ILE d   1      11.804  10.967   7.046  0.00  0.00    -0.271 OA
ATOM      9  N   GLY d   1      13.108  11.754   5.402  0.00  0.00    -0.351 N 
ATOM     10  H   GLY d   1      14.063  11.925   5.087  0.00  0.00     0.163 HD
BRANCH   9  11
ATOM     11  CA  GLY d   1      12.007  12.127   4.535  0.00  0.00     0.069 C 
ATOM     12  H   GLY d   1      11.135  12.338   5.154  0.00  0.00     0.078 H 
ATOM     13  H   GLY d   1      11.815  11.305   3.845  0.00  0.00     0.078 H 
BRANCH  11  14
ATOM     14  C   GLY d   1      12.336  13.368   3.727  0.00  0.00     0.236 C 
ATOM     15  O   GLY d   1      13.449  13.900   3.794  0.00  0.00    -0.272 OA
ATOM     16  N   ALA d   1      11.364  13.839   2.961  0.00  0.00    -0.347 N 
ATOM     17  H   ALA d   1      10.476  13.340   2.916  0.00  0.00     0.163 HD
BRANCH  16  18
ATOM     18  CA  ALA d   1      11.540  15.056   2.183  0.00  0.00     0.086 C 
ATOM     19  H   ALA d   1      12.077  15.791   2.783  0.00  0.00     0.086 H 
BRANCH  18  20
ATOM     20  C   ALA d   1      10.179  15.618   1.809  0.00  0.00     0.240 C 
ATOM     21  O   ALA d   1       9.160  14.931   1.924  0.00  0.00    -0.271 OA
ATOM     22  N   GLU d   1      10.164  16.865   1.352  0.00  0.00    -0.346 N 
ATOM     23  H   GLU d   1      11.035  17.393   1.306  0.00  0.00     0.163 HD
BRANCH  22  24
ATOM     24  CA  GLU d   1       8.924  17.490   0.915  0.00  0.00     0.090 C 
ATOM     25  H   GLU d   1       8.130  17.154   1.582  0.00  0.00     0.087 H 
BRANCH  24  26
ATOM     26  C   GLU d   1       8.532  17.056  -0.495  0.00  0.00     0.241 C 
ATOM     27  O   GLU d   1       8.418  17.876  -1.409  0.00  0.00    -0.271 OA
ATOM     28  N   VAL d   1       8.340  15.750  -0.651  0.00  0.00    -0.346 N 
ATOM     29  H   VAL d   1       8.529  15.139   0.144  0.00  0.00     0.163 HD
BRANCH  28  30
ATOM     30  CA  VAL d   1       7.878  15.140  -1.885  0.00  0.00     0.092 C 
ATOM     31  H   VAL d   1       8.497  15.526  -2.695  0.00  0.00     0.088 H 
BRANCH  30  32
ATOM     32  C   VAL d   1       6.417  15.479  -2.154  0.00  0.00     0.243 C 
ATOM     33  O   VAL d   1       5.552  15.180  -1.336  0.00  0.00    -0.271 OA
ATOM     34  N   PRO d   1       6.128  16.082  -3.314  0.00  0.00    -0.337 N 
ATOM     35  CA  PRO d   1       4.732  16.414  -3.622  0.00  0.00     0.091 C 
ATOM     36  CD  PRO d   1       7.027  16.347  -4.453  0.00  0.00    -0.001 C 
ATOM     37  CB  PRO d   1       4.825  17.077  -5.001  0.00  0.00    -0.036 C 
ATOM     38  H   PRO d   1       4.274  17.045  -2.861  0.00  0.00     0.087 H 
ATOM     39  CG  PRO d   1       6.067  16.506  -5.609  0.00  0.00    -0.048 C 
ATOM     40  H   PRO d   1       4.868  18.164  -4.929  0.00  0.00     0.036 H 
ATOM     41  H   PRO d   1       3.943  16.878  -5.610  0.00  0.00     0.036 H 
ATOM     42  H   PRO d   1       6.472  17.154  -6.386  0.00  0.00     0.035 H 
ATOM     43  H   PRO d   1       5.874  15.557  -6.109  0.00  0.00     0.035 H 
ATOM     44  H   PRO d   1       7.755  15.551  -4.613  0.00  0.00     0.064 H 
ATOM     45  H   PRO d   1       7.656  17.224  -4.301  0.00  0.00     0.064 H 
BRANCH  35  46
ATOM     46  C   PRO d   1       3.874  15.156  -3.708  0.00  0.00     0.241 C 
ATOM     47  O   PRO d   1       4.377  14.100  -4.107  0.00  0.00    -0.271 OA
ATOM     48  N   XSN d   1       2.601  15.262  -3.332  0.00  0.00    -0.346 N 
ATOM     49  H   XSN d   1       2.266  16.135  -2.925  0.00  0.00     0.163 HD
BRANCH  48  50
ATOM     50  CA  XSN d   1       1.674  14.135  -3.497  0.00  0.00     0.098 C 
ATOM     51  H   XSN d   1       1.970  13.320  -2.837  0.00  0.00     0.088 H 
BRANCH  50  52
ATOM     52  C   XSN d   1       1.730  13.749  -4.973  0.00  0.00     0.238 C 
ATOM     53  O   XSN d   1       1.849  14.611  -5.846  0.00  0.00    -0.271 OA
ATOM     54  N1  XSN d   1       1.651  12.440  -5.215  0.00  0.00    -0.368 N 
ATOM     55  H   XSN d   1       1.688  12.096  -6.174  0.00  0.00     0.159 HD
ATOM     56  H   XSN d   1       1.553  11.783  -4.441  0.00  0.00     0.159 HD
ENDBRANCH  50  52
BRANCH  50  57
ATOM     57  CB  XSN d   1       0.230  14.496  -3.117  0.00  0.00     0.043 C 
ATOM     58  H   XSN d   1      -0.409  13.636  -3.317  0.00  0.00     0.052 H 
ATOM     59  H   XSN d   1      -0.080  15.360  -3.705  0.00  0.00     0.052 H 
BRANCH  57  60
ATOM     60  CG  XSN d   1       0.122  14.854  -1.619  0.00  0.00     0.175 C 
ATOM     61  OD1 XSN d   1      -0.906  14.466  -1.019  0.00  0.00    -0.648 OA
ATOM     62  OD2 XSN d   1       1.060  15.497  -1.102  0.00  0.00    -0.648 OA
ENDBRANCH  57  60
ENDBRANCH  50  57
ENDBRANCH  48  50
ENDBRANCH  35  46
ENDBRANCH  30  32
BRANCH  30  63
ATOM     63  CB  VAL d   1       7.995  13.604  -1.784  0.00  0.00    -0.033 C 
ATOM     64  H   VAL d   1       7.355  13.258  -0.972  0.00  0.00     0.042 H 
BRANCH  63  65
ATOM     65  CG1 VAL d   1       7.505  12.937  -3.062  0.00  0.00    -0.071 C 
ATOM     66  H   VAL d   1       6.460  13.199  -3.230  0.00  0.00     0.028 H 
ATOM     67  H   VAL d   1       8.107  13.280  -3.903  0.00  0.00     0.028 H 
ATOM     68  H   VAL d   1       7.598  11.855  -2.965  0.00  0.00     0.028 H 
ENDBRANCH  63  65
BRANCH  63  69
ATOM     69  CG2 VAL d   1       9.433  13.200  -1.451  0.00  0.00    -0.071 C 
ATOM     70  H   VAL d   1      10.100  13.557  -2.236  0.00  0.00     0.028 H 
ATOM     71  H   VAL d   1       9.722  13.642  -0.498  0.00  0.00     0.028 H 
ATOM     72  H   VAL d   1       9.498  12.114  -1.383  0.00  0.00     0.028 H 
ENDBRANCH  63  69
ENDBRANCH  30  63
ENDBRANCH  28  30
ENDBRANCH  24  26
BRANCH  24  73
ATOM     73  CB  GLU d   1       9.031  19.007   1.014  0.00  0.00    -0.029 C 
ATOM     74  H   GLU d   1       8.052  19.426   0.784  0.00  0.00     0.037 H 
ATOM     75  H   GLU d   1       9.805  19.333   0.319  0.00  0.00     0.037 H 
BRANCH  73  76
ATOM     76  CG  GLU d   1       9.425  19.481   2.403  0.00  0.00     0.018 C 
ATOM     77  H   GLU d   1      10.433  19.891   2.344  0.00  0.00     0.049 H 
ATOM     78  H   GLU d   1       9.357  18.629   3.079  0.00  0.00     0.049 H 
BRANCH  76  79
ATOM     79  CD  GLU d   1       8.515  20.563   2.928  0.00  0.00     0.172 C 
ATOM     80  OE1 GLU d   1       7.574  20.954   2.206  0.00  0.00    -0.648 OA
ATOM     81  OE2 GLU d   1       8.742  21.023   4.063  0.00  0.00    -0.648 OA
ENDBRANCH  76  79
ENDBRANCH  73  76
ENDBRANCH  24  73
ENDBRANCH  22  24
ENDBRANCH  18  20
BRANCH  18  82
ATOM     82  CB  ALA d   1      12.365  14.772   0.930  0.00  0.00    -0.049 C 
ATOM     83  H   ALA d   1      13.344  14.390   1.220  0.00  0.00     0.030 H 
ATOM     84  H   ALA d   1      11.851  14.030   0.319  0.00  0.00     0.030 H 
ATOM     85  H   ALA d   1      12.487  15.693   0.360  0.00  0.00     0.030 H 
ENDBRANCH  18  82
ENDBRANCH  16  18
ENDBRANCH  11  14
ENDBRANCH   9  11
ENDBRANCH   5   7
BRANCH   5  86
ATOM     86  CB  ILE d   1      14.396   9.346   7.370  0.00  0.00    -0.030 C 
ATOM     87  H   ILE d   1      13.647   8.877   8.007  0.00  0.00     0.043 H 
BRANCH  86  88
ATOM     88  CG1 ILE d   1      15.793   9.021   7.900  0.00  0.00    -0.063 C 
ATOM     89  H   ILE d   1      15.887   9.492   8.878  0.00  0.00     0.033 H 
ATOM     90  H   ILE d   1      16.512   9.384   7.166  0.00  0.00     0.033 H 
BRANCH  88  91
ATOM     91  CD1 ILE d   1      16.044   7.554   8.084  0.00  0.00    -0.076 C 
ATOM     92  H   ILE d   1      15.325   7.150   8.796  0.00  0.00     0.027 H 
ATOM     93  H   ILE d   1      15.934   7.045   7.127  0.00  0.00     0.027 H 
ATOM     94  H   ILE d   1      17.055   7.404   8.462  0.00  0.00     0.027 H 
ENDBRANCH  88  91
ENDBRANCH  86  88
BRANCH  86  95
ATOM     95  CG2 ILE d   1      14.253   8.806   5.956  0.00  0.00    -0.071 C 
ATOM     96  H   ILE d   1      13.251   9.021   5.586  0.00  0.00     0.028 H 
ATOM     97  H   ILE d   1      14.991   9.283   5.310  0.00  0.00     0.028 H 
ATOM     98  H   ILE d   1      14.416   7.728   5.962  0.00  0.00     0.028 H 
ENDBRANCH  86  95
ENDBRANCH   5  86
ENDBRANCH   3   5
BRANCH   1  99
ATOM     99  CA  PRO d   1      13.810  12.996  10.475  0.00  0.00     0.091 C 
ATOM    100  N   PRO d   1      14.406  14.299  10.789  0.00  0.00    -0.337 N 
ATOM    101  C   PRO d   1      15.730  14.474  10.635  0.00  0.00     0.243 C 
ATOM    102  CD  PRO d   1      13.437  15.224  11.397  0.00  0.00    -0.001 C 
ATOM    103  O   PRO d   1      16.488  13.570  10.296  0.00  0.00    -0.271 OA
ATOM    104  CG  PRO d   1      12.309  14.316  11.810  0.00  0.00    -0.048 C 
ATOM    105  H   PRO d   1      13.117  16.008  10.711  0.00  0.00     0.064 H 
ATOM    106  H   PRO d   1      13.856  15.782  12.234  0.00  0.00     0.064 H 
ATOM    107  CB  PRO d   1      12.318  13.230  10.720  0.00  0.00    -0.036 C 
ATOM    108  H   PRO d   1      12.442  13.908  12.812  0.00  0.00     0.035 H 
ATOM    109  H   PRO d   1      11.353  14.836  11.879  0.00  0.00     0.035 H 
ATOM    110  H   PRO d   1      11.794  12.324  11.024  0.00  0.00     0.036 H 
ATOM    111  H   PRO d   1      11.786  13.534   9.819  0.00  0.00     0.036 H 
ATOM    112  H   PRO d   1      14.233  12.184  11.067  0.00  0.00     0.087 H 
BRANCH 101 113
ATOM    113  CA  PRO d   1      16.303  15.865  10.915  0.00  0.00     0.092 C 
ATOM    114  N   PRO d   1      17.602  15.738  11.581  0.00  0.00    -0.337 N 
ATOM    115  C   PRO d   1      17.641  15.094  12.751  0.00  0.00     0.243 C 
ATOM    116  CD  PRO d   1      18.711  16.255  10.763  0.00  0.00    -0.001 C 
ATOM    117  O   PRO d   1      16.627  14.723  13.337  0.00  0.00    -0.271 OA
ATOM    118  CG  PRO d   1      18.111  16.314   9.384  0.00  0.00    -0.048 C 
ATOM    119  H   PRO d   1      19.601  15.628  10.811  0.00  0.00     0.064 H 
ATOM    120  H   PRO d   1      19.077  17.222  11.108  0.00  0.00     0.064 H 
ATOM    121  CB  PRO d   1      16.648  16.585   9.605  0.00  0.00    -0.036 C 
ATOM    122  H   PRO d   1      18.577  17.088   8.774  0.00  0.00     0.035 H 
ATOM    123  H   PRO d   1      18.271  15.386   8.835  0.00  0.00     0.035 H 
ATOM    124  H   PRO d   1      16.440  17.653   9.665  0.00  0.00     0.036 H 
ATOM    125  H   PRO d   1      16.041  16.225   8.774  0.00  0.00     0.036 H 
ATOM    126  H   PRO d   1      15.557  16.398  11.505  0.00  0.00     0.087 H 
BRANCH 115 127
ATOM    127  CA  PRO d   1      19.016  14.842  13.367  0.00  0.00     0.092 C 
ATOM    128  N   PRO d   1      18.943  14.615  14.816  0.00  0.00    -0.337 N 
ATOM    129  C   ARG d   1      18.822  15.676  15.628  0.00  0.00     0.243 C 
ATOM    130  CD  PRO d   1      19.213  13.216  15.175  0.00  0.00    -0.001 C 
ATOM    131  O   ARG d   1      18.776  16.821  15.210  0.00  0.00    -0.271 OA
ATOM    132  CG  PRO d   1      19.193  12.510  13.843  0.00  0.00    -0.048 C 
ATOM    133  H   PRO d   1      18.482  12.813  15.876  0.00  0.00     0.064 H 
ATOM    134  H   PRO d   1      20.158  13.092  15.703  0.00  0.00     0.064 H 
ATOM    135  CB  PRO d   1      19.602  13.530  12.838  0.00  0.00    -0.036 C 
ATOM    136  H   PRO d   1      19.868  11.654  13.837  0.00  0.00     0.035 H 
ATOM    137  H   PRO d   1      18.204  12.109  13.621  0.00  0.00     0.035 H 
ATOM    138  H   PRO d   1      20.685  13.582  12.724  0.00  0.00     0.036 H 
ATOM    139  H   PRO d   1      19.236  13.291  11.840  0.00  0.00     0.036 H 
ATOM    140  H   PRO d   1      19.607  15.724  13.119  0.00  0.00     0.087 H 
BRANCH 129 141
ATOM    141  CA  ARG d   1      18.758  15.411  17.125  0.00  0.00     0.089 C 
ATOM    142  H   ARG d   1      18.854  14.342  17.317  0.00  0.00     0.087 H 
BRANCH 141 143
ATOM    143  N   ARG d   1      19.845  16.142  17.763  0.00  0.00    -0.346 N 
ATOM    144  C   ALA d   1      21.079  15.656  17.799  0.00  0.00     0.240 C 
ATOM    145  O   ALA d   1      21.380  14.532  17.372  0.00  0.00    -0.271 OA
ATOM    146  H   ARG d   1      19.653  17.047  18.192  0.00  0.00     0.163 HD
BRANCH 144 147
ATOM    147  CA  ALA d   1      22.117  16.553  18.445  0.00  0.00     0.086 C 
ATOM    148  H   ALA d   1      21.635  17.157  19.214  0.00  0.00     0.086 H 
BRANCH 147 149
ATOM    149  N   ALA d   1      23.146  15.725  19.050  0.00  0.00    -0.346 N 
ATOM    150  C   VAL d   1      22.971  15.175  20.246  0.00  0.00     0.249 C 
ATOM    151  O   VAL d   1      21.903  15.226  20.856  0.00  0.00    -0.271 OA
ATOM    152  H   ALA d   1      24.019  15.563  18.547  0.00  0.00     0.163 HD
BRANCH 150 153
ATOM    153  CA  VAL d   1      24.195  14.467  20.841  0.00  0.00     0.178 C 
ATOM    154  H   VAL d   1      25.057  14.648  20.199  0.00  0.00     0.099 H 
BRANCH 153 155
ATOM    155  N   VAL d   1      24.547  15.017  22.156  0.00  0.00    -0.066 N 
ATOM    156  H   VAL d   1      24.698  16.022  22.073  0.00  0.00     0.275 HD
ATOM    157  H   VAL d   1      23.787  14.839  22.812  0.00  0.00     0.275 HD
ATOM    158  H   VAL d   1      25.400  14.571  22.493  0.00  0.00     0.275 HD
ENDBRANCH 153 155
BRANCH 153 159
ATOM    159  CB  VAL d   1      23.951  12.950  20.881  0.00  0.00    -0.025 C 
ATOM    160  H   VAL d   1      23.119  12.757  21.559  0.00  0.00     0.042 H 
BRANCH 159 161
ATOM    161  CG1 VAL d   1      23.594  12.438  19.496  0.00  0.00    -0.071 C 
ATOM    162  H   VAL d   1      24.430  12.613  18.819  0.00  0.00     0.028 H 
ATOM    163  H   VAL d   1      23.385  11.370  19.548  0.00  0.00     0.028 H 
ATOM    164  H   VAL d   1      22.712  12.965  19.131  0.00  0.00     0.028 H 
ENDBRANCH 159 161
BRANCH 159 165
ATOM    165  CG2 VAL d   1      25.185  12.218  21.401  0.00  0.00    -0.071 C 
ATOM    166  H   VAL d   1      24.977  11.149  21.454  0.00  0.00     0.028 H 
ATOM    167  H   VAL d   1      26.022  12.393  20.725  0.00  0.00     0.028 H 
ATOM    168  H   VAL d   1      25.435  12.590  22.395  0.00  0.00     0.028 H 
ENDBRANCH 159 165
ENDBRANCH 153 159
ENDBRANCH 150 153
ENDBRANCH 147 149
BRANCH 147 169
ATOM    169  CB  ALA d   1      22.728  17.525  17.426  0.00  0.00    -0.049 C 
ATOM    170  H   ALA d   1      23.449  18.170  17.928  0.00  0.00     0.030 H 
ATOM    171  H   ALA d   1      23.230  16.959  16.642  0.00  0.00     0.030 H 
ATOM    172  H   ALA d   1      21.937  18.134  16.987  0.00  0.00     0.030 H 
ENDBRANCH 147 169
ENDBRANCH 144 147
ENDBRANCH 141 143
BRANCH 141 173
ATOM    173  CB  ARG d   1      17.422  15.883  17.687  0.00  0.00    -0.036 C 
ATOM    174  H   ARG d   1      17.338  16.944  17.451  0.00  0.00     0.036 H 
ATOM    175  H   ARG d   1      17.427  15.648  18.751  0.00  0.00     0.036 H 
BRANCH 173 176
ATOM    176  CG  ARG d   1      16.194  15.198  17.089  0.00  0.00    -0.048 C 
ATOM    177  H   ARG d   1      16.228  14.131  17.308  0.00  0.00     0.035 H 
ATOM    178  H   ARG d   1      16.185  15.343  16.009  0.00  0.00     0.035 H 
BRANCH 176 179
ATOM    179  CD  ARG d   1      14.938  15.803  17.695  0.00  0.00     0.009 C 
ATOM    180  H   ARG d   1      14.831  16.815  17.306  0.00  0.00     0.064 H 
ATOM    181  H   ARG d   1      15.044  15.782  18.780  0.00  0.00     0.064 H 
BRANCH 179 182
ATOM    182  NE  ARG d   1      13.734  15.056  17.346  0.00  0.00    -0.227 N 
ATOM    183  CZ  ARG d   1      12.937  15.373  16.336  0.00  0.00     0.665 C 
ATOM    184  NH1 ARG d   1      11.857  14.647  16.094  0.00  0.00    -0.235 N 
ATOM    185  NH2 ARG d   1      13.221  16.421  15.569  0.00  0.00    -0.235 N 
ATOM    186  H   ARG d   1      11.639  13.845  16.685  0.00  0.00     0.174 HD
ATOM    187  H   ARG d   1      11.243  14.890  15.317  0.00  0.00     0.174 HD
ATOM    188  H   ARG d   1      14.052  16.981  15.758  0.00  0.00     0.174 HD
ATOM    189  H   ARG d   1      12.608  16.665  14.791  0.00  0.00     0.174 HD
ATOM    190  H   ARG d   1      13.492  14.243  17.912  0.00  0.00     0.177 HD
ENDBRANCH 179 182
ENDBRANCH 176 179
ENDBRANCH 173 176
ENDBRANCH 141 173
ENDBRANCH 129 141
ENDBRANCH 115 127
ENDBRANCH 101 113
ENDBRANCH   1  99
TORSDOF 43
