REMARK WARNING: 32 MAX_TORS EXCEEDED!!!
REMARK  51 active torsions:
REMARK  status: ('A' for Active; 'I' for Inactive)
REMARK    1  A    between atoms: N_1  and  CA_2 
REMARK    2  A    between atoms: CA_2  and  C_3 
REMARK    3  A    between atoms: CA_2  and  CB_5 
REMARK       I    between atoms: C_3  and  N_10 
REMARK    4  A    between atoms: CB_5  and  CG_6 
REMARK    5  A    between atoms: CG_6  and  CD_7 
REMARK       I    between atoms: CD_7  and  NE2_9 
REMARK    6  A    between atoms: N_10  and  CA_11 
REMARK    7  A    between atoms: CA_11  and  C_12 
REMARK    8  A    between atoms: CA_11  and  CB_14 
REMARK       I    between atoms: C_12  and  N_21 
REMARK    9  A    between atoms: CB_14  and  CG_15 
REMARK   10  A    between atoms: CG_15  and  CD_16 
REMARK   11  A    between atoms: CD_16  and  NE_17 
REMARK       I    between atoms: NE_17  and  CZ_18 
REMARK       I    between atoms: CZ_18  and  NH1_19 
REMARK       I    between atoms: CZ_18  and  NH2_20 
REMARK   12  A    between atoms: N_21  and  CA_22 
REMARK   13  A    between atoms: CA_22  and  C_23 
REMARK   14  A    between atoms: CA_22  and  CB_25 
REMARK       I    between atoms: C_23  and  N_28 
REMARK   15  A    between atoms: CB_25  and  OG1_26 
REMARK   16  A    between atoms: CB_25  and  CG2_27 
REMARK   17  A    between atoms: N_28  and  CA_29 
REMARK   18  A    between atoms: CA_29  and  C_30 
REMARK   19  A    between atoms: CA_29  and  CB_32 
REMARK       I    between atoms: C_30  and  N_37 
REMARK   20  A    between atoms: CB_32  and  CG_33 
REMARK   21  A    between atoms: CG_33  and  CD_34 
REMARK       I    between atoms: CD_34  and  NE2_36 
REMARK   22  A    between atoms: CA_38  and  C_39 
REMARK       I    between atoms: C_39  and  N_44 
REMARK   23  A    between atoms: N_44  and  CA_45 
REMARK   24  A    between atoms: CA_45  and  C_46 
REMARK   25  A    between atoms: CA_45  and  CB_48 
REMARK       I    between atoms: C_46  and  N_52 
REMARK   26  A    between atoms: CB_48  and  CG_49 
REMARK   27  A    between atoms: N_52  and  CA_53 
REMARK   28  A    between atoms: CA_53  and  C_54 
REMARK       I    between atoms: C_54  and  N_56 
REMARK   29  A    between atoms: N_56  and  CA_57 
REMARK   30  A    between atoms: CA_57  and  C_58 
REMARK   31  A    between atoms: CA_57  and  CB_60 
REMARK       I    between atoms: C_58  and  N_65 
REMARK   32  A    between atoms: CB_60  and  CG_61 
REMARK   33  A    between atoms: CG_61  and  CD_62 
REMARK       I    between atoms: CD_62  and  NE2_64 
REMARK   34  A    between atoms: N_65  and  CA_66 
REMARK   35  A    between atoms: CA_66  and  C_67 
REMARK   36  A    between atoms: CA_66  and  CB_69 
REMARK       I    between atoms: C_67  and  N_71 
REMARK   37  A    between atoms: CB_69  and  OG_70 
REMARK   38  A    between atoms: N_71  and  CA_72 
REMARK   39  A    between atoms: CA_72  and  C_73 
REMARK   40  A    between atoms: CA_72  and  CB_75 
REMARK       I    between atoms: C_73  and  N_82 
REMARK   41  A    between atoms: CB_75  and  CG_76 
REMARK   42  A    between atoms: N_82  and  CA_83 
REMARK   43  A    between atoms: CA_83  and  C_84 
REMARK   44  A    between atoms: CA_83  and  CB_86 
REMARK       I    between atoms: C_84  and  N_93 
REMARK   45  A    between atoms: CB_86  and  CG_87 
REMARK   46  A    between atoms: CG_87  and  CD_88 
REMARK   47  A    between atoms: CD_88  and  NE_89 
REMARK       I    between atoms: NE_89  and  CZ_90 
REMARK       I    between atoms: CZ_90  and  NH1_91 
REMARK   48  A    between atoms: N_93  and  CA_94 
REMARK   49  A    between atoms: CA_94  and  CB_95 
REMARK   50  A    between atoms: CA_94  and  C_98 
REMARK   51  A    between atoms: CB_95  and  OG_96 
REMARK       I    between atoms: C_98  and  NT_97 
ROOT
ATOM      1  CA  ASP d   1     -25.057 -20.573  20.997  0.00  0.00     0.098 C 
ATOM      2  H   ASP d   1     -26.106 -20.780  21.207  0.00  0.00     0.088 H 
ENDROOT
BRANCH   1   3
ATOM      3  N   ASP d   1     -24.287 -20.564  22.232  0.00  0.00    -0.346 N 
ATOM      4  C   PRO d   1     -24.341 -21.616  23.041  0.00  0.00     0.241 C 
ATOM      5  O   PRO d   1     -25.173 -22.513  22.916  0.00  0.00    -0.271 OA
ATOM      6  H   ASP d   1     -23.711 -19.758  22.474  0.00  0.00     0.163 HD
BRANCH   4   7
ATOM      7  CA  PRO d   1     -23.342 -21.698  24.182  0.00  0.00     0.091 C 
ATOM      8  N   PRO d   1     -23.912 -22.468  25.291  0.00  0.00    -0.337 N 
ATOM      9  C   GLN d   1     -25.046 -22.089  25.889  0.00  0.00     0.243 C 
ATOM     10  CD  PRO d   1     -23.105 -23.659  25.626  0.00  0.00    -0.001 C 
ATOM     11  O   GLN d   1     -25.549 -20.990  25.696  0.00  0.00    -0.271 OA
ATOM     12  CG  PRO d   1     -21.804 -23.389  24.939  0.00  0.00    -0.048 C 
ATOM     13  H   PRO d   1     -23.570 -24.589  25.299  0.00  0.00     0.064 H 
ATOM     14  H   PRO d   1     -22.993 -23.804  26.700  0.00  0.00     0.064 H 
ATOM     15  CB  PRO d   1     -22.149 -22.557  23.736  0.00  0.00    -0.036 C 
ATOM     16  H   PRO d   1     -21.106 -22.870  25.596  0.00  0.00     0.035 H 
ATOM     17  H   PRO d   1     -21.304 -24.314  24.654  0.00  0.00     0.035 H 
ATOM     18  H   PRO d   1     -21.308 -21.945  23.411  0.00  0.00     0.036 H 
ATOM     19  H   PRO d   1     -22.394 -23.175  22.872  0.00  0.00     0.036 H 
ATOM     20  H   PRO d   1     -23.075 -20.679  24.463  0.00  0.00     0.087 H 
BRANCH   9  21
ATOM     21  CA  GLN d   1     -25.680 -23.084  26.877  0.00  0.00     0.090 C 
ATOM     22  H   GLN d   1     -24.848 -23.588  27.369  0.00  0.00     0.087 H 
BRANCH  21  23
ATOM     23  N   GLN d   1     -26.470 -22.434  27.915  0.00  0.00    -0.346 N 
ATOM     24  C   THR d   1     -25.912 -21.763  28.917  0.00  0.00     0.243 C 
ATOM     25  O   THR d   1     -24.706 -21.511  28.973  0.00  0.00    -0.271 OA
ATOM     26  H   GLN d   1     -27.487 -22.496  27.871  0.00  0.00     0.163 HD
BRANCH  24  27
ATOM     27  CA  THR d   1     -26.853 -21.309  30.026  0.00  0.00     0.113 C 
ATOM     28  H   THR d   1     -27.369 -22.180  30.431  0.00  0.00     0.091 H 
BRANCH  27  29
ATOM     29  N   THR d   1     -26.107 -20.699  31.119  0.00  0.00    -0.344 N 
ATOM     30  C   ARG d   1     -26.130 -21.229  32.335  0.00  0.00     0.241 C 
ATOM     31  O   ARG d   1     -26.775 -22.243  32.605  0.00  0.00    -0.271 OA
ATOM     32  H   THR d   1     -25.561 -19.855  30.947  0.00  0.00     0.163 HD
BRANCH  30  33
ATOM     33  CA  ARG d   1     -25.298 -20.516  33.398  0.00  0.00     0.089 C 
ATOM     34  H   ARG d   1     -24.977 -19.571  32.960  0.00  0.00     0.087 H 
BRANCH  33  35
ATOM     35  N   ARG d   1     -26.054 -20.179  34.598  0.00  0.00    -0.346 N 
ATOM     36  C   GLN d   1     -26.744 -19.047  34.701  0.00  0.00     0.249 C 
ATOM     37  O   GLN d   1     -26.952 -18.298  33.741  0.00  0.00    -0.271 OA
ATOM     38  H   ARG d   1     -26.054 -20.831  35.382  0.00  0.00     0.163 HD
BRANCH  36  39
ATOM     39  CA  GLN d   1     -27.292 -18.734  36.103  0.00  0.00     0.176 C 
ATOM     40  H   GLN d   1     -26.532 -19.053  36.816  0.00  0.00     0.099 H 
BRANCH  39  41
ATOM     41  N   GLN d   1     -27.494 -17.309  36.366  0.00  0.00    -0.066 N 
ATOM     42  H   GLN d   1     -26.616 -16.810  36.221  0.00  0.00     0.275 HD
ATOM     43  H   GLN d   1     -28.203 -16.944  35.730  0.00  0.00     0.275 HD
ATOM     44  H   GLN d   1     -27.803 -17.183  37.330  0.00  0.00     0.275 HD
ENDBRANCH  39  41
BRANCH  39  45
ATOM     45  CB  GLN d   1     -28.589 -19.502  36.313  0.00  0.00    -0.022 C 
ATOM     46  H   GLN d   1     -29.103 -19.056  37.164  0.00  0.00     0.037 H 
ATOM     47  H   GLN d   1     -28.331 -20.550  36.468  0.00  0.00     0.037 H 
BRANCH  45  48
ATOM     48  CG  GLN d   1     -29.526 -19.430  35.120  0.00  0.00     0.011 C 
ATOM     49  H   GLN d   1     -28.976 -18.991  34.288  0.00  0.00     0.047 H 
ATOM     50  H   GLN d   1     -30.393 -18.837  35.411  0.00  0.00     0.047 H 
BRANCH  48  51
ATOM     51  CD  GLN d   1     -30.021 -20.794  34.682  0.00  0.00     0.215 C 
ATOM     52  OE1 GLN d   1     -29.509 -21.827  35.120  0.00  0.00    -0.274 OA
ATOM     53  NE2 GLN d   1     -31.024 -20.805  33.813  0.00  0.00    -0.370 N 
ATOM     54  H   GLN d   1     -31.401 -21.692  33.481  0.00  0.00     0.159 HD
ATOM     55  H   GLN d   1     -31.417 -19.926  33.477  0.00  0.00     0.159 HD
ENDBRANCH  48  51
ENDBRANCH  45  48
ENDBRANCH  39  45
ENDBRANCH  36  39
ENDBRANCH  33  35
BRANCH  33  56
ATOM     56  CB  ARG d   1     -24.084 -21.371  33.768  0.00  0.00    -0.036 C 
ATOM     57  H   ARG d   1     -24.449 -22.373  33.992  0.00  0.00     0.036 H 
ATOM     58  H   ARG d   1     -23.588 -20.885  34.608  0.00  0.00     0.036 H 
BRANCH  56  59
ATOM     59  CG  ARG d   1     -23.065 -21.500  32.656  0.00  0.00    -0.048 C 
ATOM     60  H   ARG d   1     -22.787 -20.500  32.323  0.00  0.00     0.035 H 
ATOM     61  H   ARG d   1     -23.508 -22.079  31.846  0.00  0.00     0.035 H 
BRANCH  59  62
ATOM     62  CD  ARG d   1     -21.810 -22.217  33.135  0.00  0.00     0.009 C 
ATOM     63  H   ARG d   1     -22.069 -23.232  33.436  0.00  0.00     0.064 H 
ATOM     64  H   ARG d   1     -21.387 -21.675  33.981  0.00  0.00     0.064 H 
BRANCH  62  65
ATOM     65  NE  ARG d   1     -20.829 -22.271  32.062  0.00  0.00    -0.227 N 
ATOM     66  CZ  ARG d   1     -20.605 -23.329  31.285  0.00  0.00     0.665 C 
ATOM     67  NH1 ARG d   1     -19.692 -23.252  30.329  0.00  0.00    -0.235 N 
ATOM     68  NH2 ARG d   1     -21.264 -24.463  31.469  0.00  0.00    -0.235 N 
ATOM     69  H   ARG d   1     -19.168 -22.388  30.193  0.00  0.00     0.174 HD
ATOM     70  H   ARG d   1     -19.513 -24.057  29.729  0.00  0.00     0.174 HD
ATOM     71  H   ARG d   1     -21.956 -24.536  32.215  0.00  0.00     0.174 HD
ATOM     72  H   ARG d   1     -21.080 -25.264  30.864  0.00  0.00     0.174 HD
ATOM     73  H   ARG d   1     -20.270 -21.435  31.892  0.00  0.00     0.177 HD
ENDBRANCH  62  65
ENDBRANCH  59  62
ENDBRANCH  56  59
ENDBRANCH  33  56
ENDBRANCH  30  33
ENDBRANCH  27  29
BRANCH  27  74
ATOM     74  CB  THR d   1     -27.902 -20.355  29.463  0.00  0.00     0.060 C 
ATOM     75  H   THR d   1     -28.517 -20.892  28.741  0.00  0.00     0.086 H 
BRANCH  74  76
ATOM     76  OG1 THR d   1     -27.247 -19.251  28.833  0.00  0.00    -0.393 OA
ATOM     77  H   THR d   1     -27.906 -18.650  28.478  0.00  0.00     0.210 HD
ENDBRANCH  74  76
BRANCH  74  78
ATOM     78  CG2 THR d   1     -28.784 -19.824  30.587  0.00  0.00    -0.050 C 
ATOM     79  H   THR d   1     -29.285 -20.658  31.079  0.00  0.00     0.031 H 
ATOM     80  H   THR d   1     -28.167 -19.291  31.311  0.00  0.00     0.031 H 
ATOM     81  H   THR d   1     -29.529 -19.144  30.173  0.00  0.00     0.031 H 
ENDBRANCH  74  78
ENDBRANCH  27  74
ENDBRANCH  24  27
ENDBRANCH  21  23
BRANCH  21  82
ATOM     82  CB  GLN d   1     -26.545 -24.116  26.140  0.00  0.00    -0.030 C 
ATOM     83  H   GLN d   1     -26.247 -24.091  25.092  0.00  0.00     0.037 H 
ATOM     84  H   GLN d   1     -27.586 -23.847  26.322  0.00  0.00     0.037 H 
BRANCH  82  85
ATOM     85  CG  GLN d   1     -26.364 -25.561  26.623  0.00  0.00     0.011 C 
ATOM     86  H   GLN d   1     -26.418 -25.560  27.712  0.00  0.00     0.047 H 
ATOM     87  H   GLN d   1     -25.405 -25.921  26.251  0.00  0.00     0.047 H 
BRANCH  85  88
ATOM     88  CD  GLN d   1     -27.453 -26.496  26.099  0.00  0.00     0.215 C 
ATOM     89  OE1 GLN d   1     -28.555 -26.056  25.771  0.00  0.00    -0.274 OA
ATOM     90  NE2 GLN d   1     -27.150 -27.791  26.025  0.00  0.00    -0.370 N 
ATOM     91  H   GLN d   1     -27.843 -28.458  25.687  0.00  0.00     0.159 HD
ATOM     92  H   GLN d   1     -26.225 -28.115  26.307  0.00  0.00     0.159 HD
ENDBRANCH  85  88
ENDBRANCH  82  85
ENDBRANCH  21  82
ENDBRANCH   9  21
ENDBRANCH   4   7
ENDBRANCH   1   3
BRANCH   1  93
ATOM     93  C   ASP d   1     -24.500 -21.683  20.099  0.00  0.00     0.241 C 
ATOM     94  O   ASP d   1     -23.281 -21.858  19.997  0.00  0.00    -0.271 OA
ATOM     95  N   GLY d   1     -25.396 -22.470  19.505  0.00  0.00    -0.351 N 
ATOM     96  H   GLY d   1     -26.387 -22.251  19.604  0.00  0.00     0.163 HD
BRANCH  95  97
ATOM     97  CA  GLY d   1     -25.007 -23.631  18.720  0.00  0.00     0.069 C 
ATOM     98  H   GLY d   1     -24.008 -23.921  19.047  0.00  0.00     0.078 H 
ATOM     99  H   GLY d   1     -25.066 -23.345  17.670  0.00  0.00     0.078 H 
BRANCH  97 100
ATOM    100  C   GLY d   1     -25.908 -24.835  18.908  0.00  0.00     0.236 C 
ATOM    101  O   GLY d   1     -26.926 -24.757  19.595  0.00  0.00    -0.272 OA
ATOM    102  N   GLN d   1     -25.536 -25.944  18.271  0.00  0.00    -0.346 N 
ATOM    103  H   GLN d   1     -24.768 -25.879  17.603  0.00  0.00     0.163 HD
BRANCH 102 104
ATOM    104  CA  GLN d   1     -26.165 -27.251  18.474  0.00  0.00     0.090 C 
ATOM    105  H   GLN d   1     -26.314 -27.400  19.543  0.00  0.00     0.087 H 
BRANCH 104 106
ATOM    106  C   GLN d   1     -25.244 -28.320  17.912  0.00  0.00     0.241 C 
ATOM    107  O   GLN d   1     -24.388 -28.035  17.070  0.00  0.00    -0.271 OA
ATOM    108  N   SER d   1     -25.412 -29.545  18.394  0.00  0.00    -0.344 N 
ATOM    109  H   SER d   1     -26.198 -29.732  19.017  0.00  0.00     0.163 HD
BRANCH 108 110
ATOM    110  CA  SER d   1     -24.499 -30.630  18.053  0.00  0.00     0.109 C 
ATOM    111  H   SER d   1     -23.489 -30.228  18.131  0.00  0.00     0.090 H 
BRANCH 110 112
ATOM    112  C   SER d   1     -24.704 -31.132  16.628  0.00  0.00     0.243 C 
ATOM    113  O   SER d   1     -23.745 -31.483  15.937  0.00  0.00    -0.271 OA
ATOM    114  N   PHE d   1     -25.961 -31.157  16.204  0.00  0.00    -0.346 N 
ATOM    115  H   PHE d   1     -26.682 -30.715  16.774  0.00  0.00     0.163 HD
BRANCH 114 116
ATOM    116  CA  PHE d   1     -26.345 -31.791  14.958  0.00  0.00     0.093 C 
ATOM    117  H   PHE d   1     -25.443 -32.221  14.523  0.00  0.00     0.088 H 
BRANCH 116 118
ATOM    118  C   PHE d   1     -26.908 -30.797  13.963  0.00  0.00     0.241 C 
ATOM    119  O   PHE d   1     -27.839 -30.064  14.268  0.00  0.00    -0.271 OA
ATOM    120  N   ARG d   1     -26.335 -30.807  12.767  0.00  0.00    -0.346 N 
ATOM    121  H   ARG d   1     -25.525 -31.410  12.621  0.00  0.00     0.163 HD
BRANCH 120 122
ATOM    122  CA  ARG d   1     -26.810 -29.995  11.650  0.00  0.00     0.089 C 
ATOM    123  H   ARG d   1     -26.899 -28.978  12.032  0.00  0.00     0.087 H 
BRANCH 122 124
ATOM    124  C   ARG d   1     -28.169 -30.447  11.140  0.00  0.00     0.241 C 
ATOM    125  O   ARG d   1     -28.860 -29.676  10.495  0.00  0.00    -0.271 OA
ATOM    126  N   SET d   1     -28.548 -31.698  11.391  0.00  0.00    -0.344 N 
ATOM    127  H   SET d   1     -27.913 -32.343  11.861  0.00  0.00     0.163 HD
BRANCH 126 128
ATOM    128  CA  SET d   1     -29.895 -32.143  10.984  0.00  0.00     0.109 C 
ATOM    129  H   SET d   1     -30.167 -31.548  10.112  0.00  0.00     0.090 H 
BRANCH 128 130
ATOM    130  CB  SET d   1     -29.953 -33.616  10.537  0.00  0.00     0.044 C 
ATOM    131  H   SET d   1     -29.219 -33.775   9.747  0.00  0.00     0.077 H 
ATOM    132  H   SET d   1     -30.958 -33.836  10.176  0.00  0.00     0.077 H 
BRANCH 130 133
ATOM    133  OG  SET d   1     -29.653 -34.484  11.629  0.00  0.00    -0.398 OA
ATOM    134  H   SET d   1     -29.694 -35.396  11.332  0.00  0.00     0.209 HD
ENDBRANCH 130 133
ENDBRANCH 128 130
BRANCH 128 135
ATOM    135  C   SET d   1     -30.887 -31.906  12.131  0.00  0.00     0.240 C 
ATOM    136  NT  SET d   1     -30.339 -31.482  13.267  0.00  0.00    -0.368 N 
ATOM    137  H   SET d   1     -30.926 -31.312  14.084  0.00  0.00     0.159 HD
ATOM    138  H   SET d   1     -29.332 -31.327  13.321  0.00  0.00     0.159 HD
ATOM    139  O   SET d   1     -32.092 -32.117  11.985  0.00  0.00    -0.271 OA
ENDBRANCH 128 135
ENDBRANCH 126 128
ENDBRANCH 122 124
BRANCH 122 140
ATOM    140  CB  ARG d   1     -25.820 -30.046  10.483  0.00  0.00    -0.036 C 
ATOM    141  H   ARG d   1     -26.354 -29.709   9.595  0.00  0.00     0.036 H 
ATOM    142  H   ARG d   1     -25.449 -31.069  10.422  0.00  0.00     0.036 H 
BRANCH 140 143
ATOM    143  CG  ARG d   1     -24.623 -29.150  10.646  0.00  0.00    -0.048 C 
ATOM    144  H   ARG d   1     -24.105 -29.423  11.565  0.00  0.00     0.035 H 
ATOM    145  H   ARG d   1     -24.963 -28.115  10.681  0.00  0.00     0.035 H 
BRANCH 143 146
ATOM    146  CD  ARG d   1     -23.659 -29.308   9.476  0.00  0.00     0.009 C 
ATOM    147  H   ARG d   1     -23.004 -28.437   9.447  0.00  0.00     0.064 H 
ATOM    148  H   ARG d   1     -24.240 -29.399   8.559  0.00  0.00     0.064 H 
BRANCH 146 149
ATOM    149  NE  ARG d   1     -22.839 -30.497   9.622  0.00  0.00    -0.227 N 
ATOM    150  CZ  ARG d   1     -22.241 -31.122   8.612  0.00  0.00     0.665 C 
ATOM    151  NH1 ARG d   1     -21.517 -32.203   8.855  0.00  0.00    -0.235 N 
ATOM    152  NH2 ARG d   1     -22.374 -30.681   7.364  0.00  0.00    -0.235 N 
ATOM    153  H   ARG d   1     -21.422 -32.549   9.810  0.00  0.00     0.174 HD
ATOM    154  H   ARG d   1     -21.054 -32.690   8.088  0.00  0.00     0.174 HD
ATOM    155  H   ARG d   1     -22.940 -29.854   7.173  0.00  0.00     0.174 HD
ATOM    156  H   ARG d   1     -21.910 -31.170   6.598  0.00  0.00     0.174 HD
ATOM    157  H   ARG d   1     -22.713 -30.878  10.560  0.00  0.00     0.177 HD
ENDBRANCH 146 149
ENDBRANCH 143 146
ENDBRANCH 140 143
ENDBRANCH 122 140
ENDBRANCH 120 122
ENDBRANCH 116 118
BRANCH 116 158
ATOM    158  CB  PHE d   1     -27.372 -32.903  15.221  0.00  0.00    -0.014 C 
ATOM    159  H   PHE d   1     -27.851 -33.139  14.271  0.00  0.00     0.043 H 
ATOM    160  H   PHE d   1     -28.066 -32.536  15.977  0.00  0.00     0.043 H 
BRANCH 158 161
ATOM    161  CG  PHE d   1     -26.761 -34.167  15.744  0.00  0.00    -0.056 A 
ATOM    162  CD1 PHE d   1     -25.429 -34.462  15.485  0.00  0.00    -0.077 A 
ATOM    163  CE1 PHE d   1     -24.850 -35.617  15.966  0.00  0.00    -0.082 A 
ATOM    164  H   PHE d   1     -24.832 -33.769  14.892  0.00  0.00     0.084 H 
ATOM    165  CZ  PHE d   1     -25.598 -36.498  16.716  0.00  0.00    -0.083 A 
ATOM    166  H   PHE d   1     -23.803 -35.833  15.753  0.00  0.00     0.083 H 
ATOM    167  CE2 PHE d   1     -26.925 -36.218  16.983  0.00  0.00    -0.082 A 
ATOM    168  H   PHE d   1     -25.145 -37.413  17.098  0.00  0.00     0.083 H 
ATOM    169  CD2 PHE d   1     -27.500 -35.053  16.501  0.00  0.00    -0.077 A 
ATOM    170  H   PHE d   1     -27.520 -36.915  17.574  0.00  0.00     0.083 H 
ATOM    171  H   PHE d   1     -28.545 -34.835  16.722  0.00  0.00     0.084 H 
ENDBRANCH 158 161
ENDBRANCH 116 158
ENDBRANCH 114 116
ENDBRANCH 110 112
BRANCH 110 172
ATOM    172  CB  SER d   1     -24.681 -31.797  19.019  0.00  0.00     0.044 C 
ATOM    173  H   SER d   1     -24.011 -32.605  18.725  0.00  0.00     0.077 H 
ATOM    174  H   SER d   1     -25.720 -32.125  18.983  0.00  0.00     0.077 H 
BRANCH 172 175
ATOM    175  OG  SER d   1     -24.371 -31.405  20.341  0.00  0.00    -0.398 OA
ATOM    176  H   SER d   1     -24.492 -32.152  20.932  0.00  0.00     0.209 HD
ENDBRANCH 172 175
ENDBRANCH 110 172
ENDBRANCH 108 110
ENDBRANCH 104 106
BRANCH 104 177
ATOM    177  CB  GLN d   1     -27.554 -27.342  17.836  0.00  0.00    -0.030 C 
ATOM    178  H   GLN d   1     -28.102 -26.455  18.155  0.00  0.00     0.037 H 
ATOM    179  H   GLN d   1     -27.981 -28.293  18.153  0.00  0.00     0.037 H 
BRANCH 177 180
ATOM    180  CG  GLN d   1     -27.573 -27.342  16.315  0.00  0.00     0.011 C 
ATOM    181  H   GLN d   1     -27.211 -28.310  15.969  0.00  0.00     0.047 H 
ATOM    182  H   GLN d   1     -26.944 -26.523  15.965  0.00  0.00     0.047 H 
BRANCH 180 183
ATOM    183  CD  GLN d   1     -28.986 -27.132  15.761  0.00  0.00     0.215 C 
ATOM    184  OE1 GLN d   1     -29.725 -26.265  16.227  0.00  0.00    -0.274 OA
ATOM    185  NE2 GLN d   1     -29.366 -27.936  14.777  0.00  0.00    -0.370 N 
ATOM    186  H   GLN d   1     -30.301 -27.848  14.379  0.00  0.00     0.159 HD
ATOM    187  H   GLN d   1     -28.723 -28.642  14.418  0.00  0.00     0.159 HD
ENDBRANCH 180 183
ENDBRANCH 177 180
ENDBRANCH 104 177
ENDBRANCH 102 104
ENDBRANCH  97 100
ENDBRANCH  95  97
ENDBRANCH   1  93
BRANCH   1 188
ATOM    188  CB  ASP d   1     -25.039 -19.205  20.320  0.00  0.00     0.043 C 
ATOM    189  H   ASP d   1     -25.244 -19.352  19.260  0.00  0.00     0.052 H 
ATOM    190  H   ASP d   1     -24.063 -18.755  20.499  0.00  0.00     0.052 H 
BRANCH 188 191
ATOM    191  CG  ASP d   1     -26.102 -18.261  20.877  0.00  0.00     0.175 C 
ATOM    192  OD1 ASP d   1     -27.245 -18.719  21.115  0.00  0.00    -0.648 OA
ATOM    193  OD2 ASP d   1     -25.796 -17.063  21.082  0.00  0.00    -0.648 OA
ENDBRANCH 188 191
ENDBRANCH   1 188
TORSDOF 51
