REMARK WARNING: 32 MAX_TORS EXCEEDED!!!
REMARK  50 active torsions:
REMARK  status: ('A' for Active; 'I' for Inactive)
REMARK    1  A    between atoms: N_1  and  CA_2 
REMARK    2  A    between atoms: CA_2  and  C_3 
REMARK    3  A    between atoms: CA_2  and  CB_5 
REMARK       I    between atoms: C_3  and  N_10 
REMARK    4  A    between atoms: CB_5  and  CG_6 
REMARK    5  A    between atoms: CG_6  and  CD_7 
REMARK       I    between atoms: CD_7  and  NE2_9 
REMARK    6  A    between atoms: N_10  and  CA_11 
REMARK    7  A    between atoms: CA_11  and  C_12 
REMARK    8  A    between atoms: CA_11  and  CB_14 
REMARK       I    between atoms: C_12  and  N_21 
REMARK    9  A    between atoms: CB_14  and  CG_15 
REMARK   10  A    between atoms: CG_15  and  CD_16 
REMARK   11  A    between atoms: CD_16  and  NE_17 
REMARK       I    between atoms: NE_17  and  CZ_18 
REMARK       I    between atoms: CZ_18  and  NH1_19 
REMARK       I    between atoms: CZ_18  and  NH2_20 
REMARK   12  A    between atoms: N_21  and  CA_22 
REMARK   13  A    between atoms: CA_22  and  C_23 
REMARK   14  A    between atoms: CA_22  and  CB_25 
REMARK       I    between atoms: C_23  and  N_30 
REMARK   15  A    between atoms: CB_25  and  CG_26 
REMARK   16  A    between atoms: CG_26  and  CD_27 
REMARK       I    between atoms: CD_27  and  NE2_29 
REMARK   17  A    between atoms: N_30  and  CA_31 
REMARK   18  A    between atoms: CA_31  and  C_32 
REMARK   19  A    between atoms: CA_31  and  CB_34 
REMARK       I    between atoms: C_32  and  N_36 
REMARK   20  A    between atoms: CB_34  and  OG_35 
REMARK   21  A    between atoms: CA_37  and  C_38 
REMARK       I    between atoms: C_38  and  N_43 
REMARK   22  A    between atoms: N_43  and  CA_44 
REMARK   23  A    between atoms: CA_44  and  C_45 
REMARK   24  A    between atoms: CA_44  and  CB_47 
REMARK       I    between atoms: C_45  and  N_51 
REMARK   25  A    between atoms: CB_47  and  CG_48 
REMARK   26  A    between atoms: N_51  and  CA_52 
REMARK   27  A    between atoms: CA_52  and  C_53 
REMARK       I    between atoms: C_53  and  N_55 
REMARK   28  A    between atoms: N_55  and  CA_56 
REMARK   29  A    between atoms: CA_56  and  C_57 
REMARK   30  A    between atoms: CA_56  and  CB_59 
REMARK       I    between atoms: C_57  and  N_64 
REMARK   31  A    between atoms: CB_59  and  CG_60 
REMARK   32  A    between atoms: CG_60  and  CD_61 
REMARK       I    between atoms: CD_61  and  NE2_63 
REMARK   33  A    between atoms: N_64  and  CA_65 
REMARK   34  A    between atoms: CA_65  and  C_66 
REMARK   35  A    between atoms: CA_65  and  CB_68 
REMARK       I    between atoms: C_66  and  N_70 
REMARK   36  A    between atoms: CB_68  and  OG_69 
REMARK   37  A    between atoms: N_70  and  CA_71 
REMARK   38  A    between atoms: CA_71  and  C_72 
REMARK   39  A    between atoms: CA_71  and  CB_74 
REMARK       I    between atoms: C_72  and  N_81 
REMARK   40  A    between atoms: CB_74  and  CG_75 
REMARK   41  A    between atoms: N_81  and  CA_82 
REMARK   42  A    between atoms: CA_82  and  C_83 
REMARK   43  A    between atoms: CA_82  and  CB_85 
REMARK       I    between atoms: C_83  and  N_92 
REMARK   44  A    between atoms: CB_85  and  CG_86 
REMARK   45  A    between atoms: CG_86  and  CD_87 
REMARK   46  A    between atoms: CD_87  and  NE_88 
REMARK       I    between atoms: NE_88  and  CZ_89 
REMARK       I    between atoms: CZ_89  and  NH1_90 
REMARK   47  A    between atoms: N_92  and  CA_93 
REMARK   48  A    between atoms: CA_93  and  CB_94 
REMARK   49  A    between atoms: CA_93  and  C_97 
REMARK   50  A    between atoms: CB_94  and  OG_95 
REMARK       I    between atoms: C_97  and  NT_96 
ROOT
ATOM      1  CA  ASP d   1      -2.258  -7.754  -3.672  0.00  0.00     0.098 C 
ATOM      2  H   ASP d   1      -1.901  -8.651  -4.178  0.00  0.00     0.088 H 
ENDROOT
BRANCH   1   3
ATOM      3  N   ASP d   1      -1.253  -7.294  -2.732  0.00  0.00    -0.346 N 
ATOM      4  C   PRO d   1      -0.020  -7.037  -3.138  0.00  0.00     0.241 C 
ATOM      5  O   PRO d   1       0.375  -7.303  -4.266  0.00  0.00    -0.271 OA
ATOM      6  H   ASP d   1      -1.499  -7.168  -1.750  0.00  0.00     0.163 HD
BRANCH   4   7
ATOM      7  CA  PRO d   1       0.927  -6.407  -2.121  0.00  0.00     0.091 C 
ATOM      8  N   PRO d   1       2.309  -6.624  -2.539  0.00  0.00    -0.337 N 
ATOM      9  C   SER d   1       2.836  -7.851  -2.472  0.00  0.00     0.245 C 
ATOM     10  CD  PRO d   1       2.965  -5.396  -3.016  0.00  0.00    -0.001 C 
ATOM     11  O   SER d   1       2.245  -8.804  -1.958  0.00  0.00    -0.271 OA
ATOM     12  CG  PRO d   1       1.891  -4.375  -2.949  0.00  0.00    -0.048 C 
ATOM     13  H   PRO d   1       3.372  -5.506  -4.021  0.00  0.00     0.064 H 
ATOM     14  H   PRO d   1       3.833  -5.127  -2.413  0.00  0.00     0.064 H 
ATOM     15  CB  PRO d   1       0.788  -4.878  -2.123  0.00  0.00    -0.036 C 
ATOM     16  H   PRO d   1       2.287  -3.460  -2.508  0.00  0.00     0.035 H 
ATOM     17  H   PRO d   1       1.526  -4.166  -3.954  0.00  0.00     0.035 H 
ATOM     18  H   PRO d   1       0.836  -4.475  -1.111  0.00  0.00     0.036 H 
ATOM     19  H   PRO d   1      -0.178  -4.569  -2.522  0.00  0.00     0.036 H 
ATOM     20  H   PRO d   1       0.688  -6.848  -1.153  0.00  0.00     0.087 H 
BRANCH   9  21
ATOM     21  CA  SER d   1       4.222  -8.024  -3.078  0.00  0.00     0.109 C 
ATOM     22  H   SER d   1       4.743  -7.068  -3.028  0.00  0.00     0.090 H 
BRANCH  21  23
ATOM     23  N   SER d   1       5.028  -8.983  -2.333  0.00  0.00    -0.344 N 
ATOM     24  C   GLN d   1       5.388  -8.762  -1.070  0.00  0.00     0.241 C 
ATOM     25  O   GLN d   1       5.059  -7.760  -0.444  0.00  0.00    -0.271 OA
ATOM     26  H   SER d   1       5.324  -9.845  -2.791  0.00  0.00     0.163 HD
BRANCH  24  27
ATOM     27  CA  GLN d   1       6.246  -9.841  -0.420  0.00  0.00     0.090 C 
ATOM     28  H   GLN d   1       6.995 -10.142  -1.152  0.00  0.00     0.087 H 
BRANCH  27  29
ATOM     29  N   GLN d   1       6.976  -9.362   0.747  0.00  0.00    -0.346 N 
ATOM     30  C   ARG d   1       8.304  -9.394   0.766  0.00  0.00     0.241 C 
ATOM     31  O   ARG d   1       8.967  -9.770  -0.194  0.00  0.00    -0.271 OA
ATOM     32  H   GLN d   1       6.465  -9.001   1.552  0.00  0.00     0.163 HD
BRANCH  30  33
ATOM     33  CA  ARG d   1       8.996  -8.949   2.049  0.00  0.00     0.089 C 
ATOM     34  H   ARG d   1       8.265  -8.939   2.857  0.00  0.00     0.087 H 
BRANCH  33  35
ATOM     35  N   ARG d   1      10.068  -9.879   2.366  0.00  0.00    -0.346 N 
ATOM     36  C   GLN d   1       9.827 -11.082   2.870  0.00  0.00     0.249 C 
ATOM     37  O   GLN d   1       8.691 -11.509   3.070  0.00  0.00    -0.271 OA
ATOM     38  H   ARG d   1      11.034  -9.598   2.196  0.00  0.00     0.163 HD
BRANCH  36  39
ATOM     39  CA  GLN d   1      11.058 -11.926   3.193  0.00  0.00     0.176 C 
ATOM     40  H   GLN d   1      11.806 -11.279   3.652  0.00  0.00     0.099 H 
BRANCH  39  41
ATOM     41  N   GLN d   1      10.735 -12.978   4.148  0.00  0.00    -0.066 N 
ATOM     42  H   GLN d   1      10.345 -12.560   4.993  0.00  0.00     0.275 HD
ATOM     43  H   GLN d   1      10.052 -13.613   3.735  0.00  0.00     0.275 HD
ATOM     44  H   GLN d   1      11.583 -13.494   4.383  0.00  0.00     0.275 HD
ENDBRANCH  39  41
BRANCH  39  45
ATOM     45  CB  GLN d   1      11.648 -12.518   1.909  0.00  0.00    -0.022 C 
ATOM     46  H   GLN d   1      10.857 -13.094   1.430  0.00  0.00     0.037 H 
ATOM     47  H   GLN d   1      12.520 -13.104   2.199  0.00  0.00     0.037 H 
BRANCH  45  48
ATOM     48  CG  GLN d   1      12.120 -11.486   0.900  0.00  0.00     0.011 C 
ATOM     49  H   GLN d   1      11.278 -10.835   0.667  0.00  0.00     0.047 H 
ATOM     50  H   GLN d   1      12.492 -12.018   0.024  0.00  0.00     0.047 H 
BRANCH  48  51
ATOM     51  CD  GLN d   1      13.245 -10.622   1.435  0.00  0.00     0.215 C 
ATOM     52  OE1 GLN d   1      13.028  -9.481   1.840  0.00  0.00    -0.274 OA
ATOM     53  NE2 GLN d   1      14.457 -11.165   1.437  0.00  0.00    -0.370 N 
ATOM     54  H   GLN d   1      15.254 -10.632   1.784  0.00  0.00     0.159 HD
ATOM     55  H   GLN d   1      14.591 -12.115   1.091  0.00  0.00     0.159 HD
ENDBRANCH  48  51
ENDBRANCH  45  48
ENDBRANCH  39  45
ENDBRANCH  36  39
ENDBRANCH  33  35
BRANCH  33  56
ATOM     56  CB  ARG d   1       9.567  -7.536   1.894  0.00  0.00    -0.036 C 
ATOM     57  H   ARG d   1      10.126  -7.514   0.958  0.00  0.00     0.036 H 
ATOM     58  H   ARG d   1      10.173  -7.334   2.777  0.00  0.00     0.036 H 
BRANCH  56  59
ATOM     59  CG  ARG d   1       8.520  -6.457   1.814  0.00  0.00    -0.048 C 
ATOM     60  H   ARG d   1       7.859  -6.565   2.674  0.00  0.00     0.035 H 
ATOM     61  H   ARG d   1       7.993  -6.569   0.866  0.00  0.00     0.035 H 
BRANCH  59  62
ATOM     62  CD  ARG d   1       9.121  -5.059   1.856  0.00  0.00     0.009 C 
ATOM     63  H   ARG d   1       9.860  -4.952   1.062  0.00  0.00     0.064 H 
ATOM     64  H   ARG d   1       9.609  -4.897   2.817  0.00  0.00     0.064 H 
BRANCH  62  65
ATOM     65  NE  ARG d   1       8.057  -4.082   1.673  0.00  0.00    -0.227 N 
ATOM     66  CZ  ARG d   1       7.718  -3.550   0.504  0.00  0.00     0.665 C 
ATOM     67  NH1 ARG d   1       8.390  -3.874  -0.588  0.00  0.00    -0.235 N 
ATOM     68  NH2 ARG d   1       6.713  -2.685   0.430  0.00  0.00    -0.235 N 
ATOM     69  H   ARG d   1       9.168  -4.532  -0.532  0.00  0.00     0.174 HD
ATOM     70  H   ARG d   1       8.131  -3.466  -1.486  0.00  0.00     0.174 HD
ATOM     71  H   ARG d   1       6.199  -2.427   1.272  0.00  0.00     0.174 HD
ATOM     72  H   ARG d   1       6.455  -2.278  -0.469  0.00  0.00     0.174 HD
ATOM     73  H   ARG d   1       7.537  -3.786   2.499  0.00  0.00     0.177 HD
ENDBRANCH  62  65
ENDBRANCH  59  62
ENDBRANCH  56  59
ENDBRANCH  33  56
ENDBRANCH  30  33
ENDBRANCH  27  29
BRANCH  27  74
ATOM     74  CB  GLN d   1       5.372 -11.030  -0.044  0.00  0.00    -0.030 C 
ATOM     75  H   GLN d   1       4.809 -11.312  -0.933  0.00  0.00     0.037 H 
ATOM     76  H   GLN d   1       4.748 -10.721   0.795  0.00  0.00     0.037 H 
BRANCH  74  77
ATOM     77  CG  GLN d   1       6.147 -12.240   0.397  0.00  0.00     0.011 C 
ATOM     78  H   GLN d   1       6.226 -12.221   1.484  0.00  0.00     0.047 H 
ATOM     79  H   GLN d   1       7.128 -12.212  -0.077  0.00  0.00     0.047 H 
BRANCH  77  80
ATOM     80  CD  GLN d   1       5.459 -13.518  -0.008  0.00  0.00     0.215 C 
ATOM     81  OE1 GLN d   1       4.570 -14.007   0.693  0.00  0.00    -0.274 OA
ATOM     82  NE2 GLN d   1       5.855 -14.066  -1.156  0.00  0.00    -0.370 N 
ATOM     83  H   GLN d   1       5.418 -14.926  -1.488  0.00  0.00     0.159 HD
ATOM     84  H   GLN d   1       6.595 -13.626  -1.703  0.00  0.00     0.159 HD
ENDBRANCH  77  80
ENDBRANCH  74  77
ENDBRANCH  27  74
ENDBRANCH  24  27
ENDBRANCH  21  23
BRANCH  21  85
ATOM     85  CB  SER d   1       4.074  -8.466  -4.540  0.00  0.00     0.044 C 
ATOM     86  H   SER d   1       3.457  -7.737  -5.066  0.00  0.00     0.077 H 
ATOM     87  H   SER d   1       3.614  -9.454  -4.563  0.00  0.00     0.077 H 
BRANCH  85  88
ATOM     88  OG  SER d   1       5.334  -8.537  -5.175  0.00  0.00    -0.398 OA
ATOM     89  H   SER d   1       5.217  -8.815  -6.086  0.00  0.00     0.209 HD
ENDBRANCH  85  88
ENDBRANCH  21  85
ENDBRANCH   9  21
ENDBRANCH   4   7
ENDBRANCH   1   3
BRANCH   1  90
ATOM     90  C   ASP d   1      -2.517  -6.674  -4.701  0.00  0.00     0.241 C 
ATOM     91  O   ASP d   1      -2.727  -5.521  -4.354  0.00  0.00    -0.271 OA
ATOM     92  N   GLY d   1      -2.509  -7.046  -5.972  0.00  0.00    -0.351 N 
ATOM     93  H   GLY d   1      -2.292  -8.012  -6.216  0.00  0.00     0.163 HD
BRANCH  92  94
ATOM     94  CA  GLY d   1      -2.807  -6.087  -7.019  0.00  0.00     0.069 C 
ATOM     95  H   GLY d   1      -2.448  -5.107  -6.706  0.00  0.00     0.078 H 
ATOM     96  H   GLY d   1      -3.884  -6.077  -7.185  0.00  0.00     0.078 H 
BRANCH  94  97
ATOM     97  C   GLY d   1      -2.125  -6.460  -8.308  0.00  0.00     0.236 C 
ATOM     98  O   GLY d   1      -1.563  -7.553  -8.440  0.00  0.00    -0.272 OA
ATOM     99  N   GLN d   1      -2.196  -5.559  -9.275  0.00  0.00    -0.346 N 
ATOM    100  H   GLN d   1      -2.780  -4.733  -9.143  0.00  0.00     0.163 HD
BRANCH  99 101
ATOM    101  CA  GLN d   1      -1.462  -5.717 -10.522  0.00  0.00     0.090 C 
ATOM    102  H   GLN d   1      -0.439  -5.994 -10.266  0.00  0.00     0.087 H 
BRANCH 101 103
ATOM    103  C   GLN d   1      -1.455  -4.408 -11.270  0.00  0.00     0.241 C 
ATOM    104  O   GLN d   1      -2.349  -3.576 -11.091  0.00  0.00    -0.271 OA
ATOM    105  N   SER d   1      -0.431  -4.238 -12.097  0.00  0.00    -0.344 N 
ATOM    106  H   SER d   1       0.190  -5.026 -12.282  0.00  0.00     0.163 HD
BRANCH 105 107
ATOM    107  CA  SER d   1      -0.164  -2.958 -12.752  0.00  0.00     0.109 C 
ATOM    108  H   SER d   1      -0.227  -2.177 -11.995  0.00  0.00     0.090 H 
BRANCH 107 109
ATOM    109  C   SER d   1      -1.198  -2.656 -13.832  0.00  0.00     0.243 C 
ATOM    110  O   SER d   1      -1.665  -1.526 -13.946  0.00  0.00    -0.271 OA
ATOM    111  N   PHE d   1      -1.526  -3.671 -14.637  0.00  0.00    -0.346 N 
ATOM    112  H   PHE d   1      -1.114  -4.589 -14.471  0.00  0.00     0.163 HD
BRANCH 111 113
ATOM    113  CA  PHE d   1      -2.460  -3.500 -15.749  0.00  0.00     0.093 C 
ATOM    114  H   PHE d   1      -2.759  -2.452 -15.747  0.00  0.00     0.088 H 
BRANCH 113 115
ATOM    115  C   PHE d   1      -3.731  -4.318 -15.583  0.00  0.00     0.241 C 
ATOM    116  O   PHE d   1      -3.701  -5.501 -15.218  0.00  0.00    -0.271 OA
ATOM    117  N   ARG d   1      -4.855  -3.679 -15.863  0.00  0.00    -0.346 N 
ATOM    118  H   ARG d   1      -4.819  -2.696 -16.132  0.00  0.00     0.163 HD
BRANCH 117 119
ATOM    119  CA  ARG d   1      -6.140  -4.355 -15.793  0.00  0.00     0.089 C 
ATOM    120  H   ARG d   1      -6.224  -4.800 -14.801  0.00  0.00     0.087 H 
BRANCH 119 121
ATOM    121  C   ARG d   1      -6.231  -5.486 -16.815  0.00  0.00     0.241 C 
ATOM    122  O   ARG d   1      -6.848  -6.509 -16.539  0.00  0.00    -0.271 OA
ATOM    123  N   SET d   1      -5.596  -5.300 -17.972  0.00  0.00    -0.344 N 
ATOM    124  H   SET d   1      -5.056  -4.445 -18.102  0.00  0.00     0.163 HD
BRANCH 123 125
ATOM    125  CA  SET d   1      -5.643  -6.282 -19.074  0.00  0.00     0.109 C 
ATOM    126  H   SET d   1      -6.657  -6.679 -19.109  0.00  0.00     0.090 H 
BRANCH 125 127
ATOM    127  CB  SET d   1      -5.281  -5.606 -20.399  0.00  0.00     0.044 C 
ATOM    128  H   SET d   1      -5.968  -4.782 -20.589  0.00  0.00     0.077 H 
ATOM    129  H   SET d   1      -5.356  -6.329 -21.211  0.00  0.00     0.077 H 
BRANCH 127 130
ATOM    130  OG  SET d   1      -3.949  -5.110 -20.322  0.00  0.00    -0.398 OA
ATOM    131  H   SET d   1      -3.887  -4.473 -19.607  0.00  0.00     0.209 HD
ENDBRANCH 127 130
ENDBRANCH 125 127
BRANCH 125 132
ATOM    132  C   SET d   1      -4.653  -7.432 -18.842  0.00  0.00     0.240 C 
ATOM    133  NT  SET d   1      -4.905  -8.535 -19.541  0.00  0.00    -0.368 N 
ATOM    134  H   SET d   1      -4.291  -9.345 -19.454  0.00  0.00     0.159 HD
ATOM    135  H   SET d   1      -5.712  -8.571 -20.164  0.00  0.00     0.159 HD
ATOM    136  O   SET d   1      -3.704  -7.307 -18.071  0.00  0.00    -0.271 OA
ENDBRANCH 125 132
ENDBRANCH 123 125
ENDBRANCH 119 121
BRANCH 119 137
ATOM    137  CB  ARG d   1      -7.296  -3.364 -15.962  0.00  0.00    -0.036 C 
ATOM    138  H   ARG d   1      -8.191  -3.941 -16.194  0.00  0.00     0.036 H 
ATOM    139  H   ARG d   1      -7.015  -2.664 -16.749  0.00  0.00     0.036 H 
BRANCH 137 140
ATOM    140  CG  ARG d   1      -7.588  -2.547 -14.700  0.00  0.00    -0.048 C 
ATOM    141  H   ARG d   1      -6.887  -2.834 -13.916  0.00  0.00     0.035 H 
ATOM    142  H   ARG d   1      -8.610  -2.742 -14.373  0.00  0.00     0.035 H 
BRANCH 140 143
ATOM    143  CD  ARG d   1      -7.429  -1.051 -14.999  0.00  0.00     0.009 C 
ATOM    144  H   ARG d   1      -6.565  -0.917 -15.650  0.00  0.00     0.064 H 
ATOM    145  H   ARG d   1      -7.301  -0.521 -14.055  0.00  0.00     0.064 H 
BRANCH 143 146
ATOM    146  NE  ARG d   1      -8.601  -0.519 -15.672  0.00  0.00    -0.227 N 
ATOM    147  CZ  ARG d   1      -8.613   0.572 -16.437  0.00  0.00     0.665 C 
ATOM    148  NH1 ARG d   1      -9.749   0.959 -16.992  0.00  0.00    -0.235 N 
ATOM    149  NH2 ARG d   1      -7.502   1.273 -16.653  0.00  0.00    -0.235 N 
ATOM    150  H   ARG d   1     -10.603   0.424 -16.832  0.00  0.00     0.174 HD
ATOM    151  H   ARG d   1      -9.772   1.792 -17.580  0.00  0.00     0.174 HD
ATOM    152  H   ARG d   1      -6.622   0.978 -16.230  0.00  0.00     0.174 HD
ATOM    153  H   ARG d   1      -7.531   2.106 -17.242  0.00  0.00     0.174 HD
ATOM    154  H   ARG d   1      -9.482  -1.018 -15.550  0.00  0.00     0.177 HD
ENDBRANCH 143 146
ENDBRANCH 140 143
ENDBRANCH 137 140
ENDBRANCH 119 137
ENDBRANCH 117 119
ENDBRANCH 113 115
BRANCH 113 155
ATOM    155  CB  PHE d   1      -1.784  -3.821 -17.076  0.00  0.00    -0.014 C 
ATOM    156  H   PHE d   1      -2.517  -3.664 -17.867  0.00  0.00     0.043 H 
ATOM    157  H   PHE d   1      -1.423  -4.848 -17.024  0.00  0.00     0.043 H 
BRANCH 155 158
ATOM    158  CG  PHE d   1      -0.621  -2.950 -17.362  0.00  0.00    -0.056 A 
ATOM    159  CD1 PHE d   1      -0.792  -1.581 -17.504  0.00  0.00    -0.077 A 
ATOM    160  CE1 PHE d   1       0.274  -0.760 -17.756  0.00  0.00    -0.082 A 
ATOM    161  H   PHE d   1      -1.790  -1.152 -17.414  0.00  0.00     0.084 H 
ATOM    162  CZ  PHE d   1       1.539  -1.295 -17.868  0.00  0.00    -0.083 A 
ATOM    163  H   PHE d   1       0.123   0.314 -17.868  0.00  0.00     0.083 H 
ATOM    164  CE2 PHE d   1       1.726  -2.661 -17.727  0.00  0.00    -0.082 A 
ATOM    165  H   PHE d   1       2.391  -0.645 -18.067  0.00  0.00     0.083 H 
ATOM    166  CD2 PHE d   1       0.647  -3.481 -17.471  0.00  0.00    -0.077 A 
ATOM    167  H   PHE d   1       2.725  -3.087 -17.818  0.00  0.00     0.083 H 
ATOM    168  H   PHE d   1       0.797  -4.554 -17.354  0.00  0.00     0.084 H 
ENDBRANCH 155 158
ENDBRANCH 113 155
ENDBRANCH 111 113
ENDBRANCH 107 109
BRANCH 107 169
ATOM    169  CB  SER d   1       1.238  -2.966 -13.367  0.00  0.00     0.044 C 
ATOM    170  H   SER d   1       1.338  -2.121 -14.048  0.00  0.00     0.077 H 
ATOM    171  H   SER d   1       1.388  -3.898 -13.912  0.00  0.00     0.077 H 
BRANCH 169 172
ATOM    172  OG  SER d   1       2.206  -2.861 -12.347  0.00  0.00    -0.398 OA
ATOM    173  H   SER d   1       3.083  -2.866 -12.738  0.00  0.00     0.209 HD
ENDBRANCH 169 172
ENDBRANCH 107 169
ENDBRANCH 105 107
ENDBRANCH 101 103
BRANCH 101 174
ATOM    174  CB  GLN d   1      -1.980  -6.872 -11.399  0.00  0.00    -0.030 C 
ATOM    175  H   GLN d   1      -1.994  -7.752 -10.756  0.00  0.00     0.037 H 
ATOM    176  H   GLN d   1      -1.321  -6.907 -12.267  0.00  0.00     0.037 H 
BRANCH 174 177
ATOM    177  CG  GLN d   1      -3.372  -6.737 -11.944  0.00  0.00     0.011 C 
ATOM    178  H   GLN d   1      -3.417  -5.833 -12.552  0.00  0.00     0.047 H 
ATOM    179  H   GLN d   1      -4.067  -6.693 -11.105  0.00  0.00     0.047 H 
BRANCH 177 180
ATOM    180  CD  GLN d   1      -3.752  -7.930 -12.824  0.00  0.00     0.215 C 
ATOM    181  OE1 GLN d   1      -3.527  -9.086 -12.459  0.00  0.00    -0.274 OA
ATOM    182  NE2 GLN d   1      -4.319  -7.650 -13.990  0.00  0.00    -0.370 N 
ATOM    183  H   GLN d   1      -4.586  -8.405 -14.622  0.00  0.00     0.159 HD
ATOM    184  H   GLN d   1      -4.488  -6.680 -14.255  0.00  0.00     0.159 HD
ENDBRANCH 177 180
ENDBRANCH 174 177
ENDBRANCH 101 174
ENDBRANCH  99 101
ENDBRANCH  94  97
ENDBRANCH  92  94
ENDBRANCH   1  90
BRANCH   1 185
ATOM    185  CB  ASP d   1      -3.552  -8.091  -2.923  0.00  0.00     0.043 C 
ATOM    186  H   ASP d   1      -4.359  -8.156  -3.652  0.00  0.00     0.052 H 
ATOM    187  H   ASP d   1      -3.729  -7.311  -2.183  0.00  0.00     0.052 H 
BRANCH 185 188
ATOM    188  CG  ASP d   1      -3.463  -9.417  -2.198  0.00  0.00     0.175 C 
ATOM    189  OD1 ASP d   1      -2.986 -10.376  -2.829  0.00  0.00    -0.648 OA
ATOM    190  OD2 ASP d   1      -3.833  -9.500  -1.009  0.00  0.00    -0.648 OA
ENDBRANCH 185 188
ENDBRANCH   1 185
TORSDOF 50
