REMARK WARNING: 32 MAX_TORS EXCEEDED!!!
REMARK  50 active torsions:
REMARK  status: ('A' for Active; 'I' for Inactive)
REMARK    1  A    between atoms: N_1  and  CA_2 
REMARK    2  A    between atoms: CA_2  and  C_3 
REMARK    3  A    between atoms: CA_2  and  CB_5 
REMARK       I    between atoms: C_3  and  N_10 
REMARK    4  A    between atoms: CB_5  and  CG_6 
REMARK    5  A    between atoms: CG_6  and  CD_7 
REMARK       I    between atoms: CD_7  and  NE2_9 
REMARK    6  A    between atoms: N_10  and  CA_11 
REMARK    7  A    between atoms: CA_11  and  C_12 
REMARK    8  A    between atoms: CA_11  and  CB_14 
REMARK       I    between atoms: C_12  and  N_21 
REMARK    9  A    between atoms: CB_14  and  CG_15 
REMARK   10  A    between atoms: CG_15  and  CD_16 
REMARK   11  A    between atoms: CD_16  and  NE_17 
REMARK       I    between atoms: NE_17  and  CZ_18 
REMARK       I    between atoms: CZ_18  and  NH1_19 
REMARK       I    between atoms: CZ_18  and  NH2_20 
REMARK   12  A    between atoms: N_21  and  CA_22 
REMARK   13  A    between atoms: CA_22  and  C_23 
REMARK   14  A    between atoms: CA_22  and  CB_25 
REMARK       I    between atoms: C_23  and  N_30 
REMARK   15  A    between atoms: CB_25  and  CG_26 
REMARK   16  A    between atoms: CG_26  and  CD_27 
REMARK   17  A    between atoms: N_30  and  CA_31 
REMARK   18  A    between atoms: CA_31  and  C_32 
REMARK   19  A    between atoms: CA_31  and  CB_34 
REMARK       I    between atoms: C_32  and  N_36 
REMARK   20  A    between atoms: CB_34  and  OG_35 
REMARK   21  A    between atoms: CA_37  and  C_38 
REMARK       I    between atoms: C_38  and  N_43 
REMARK   22  A    between atoms: N_43  and  CA_44 
REMARK   23  A    between atoms: CA_44  and  C_45 
REMARK   24  A    between atoms: CA_44  and  CB_47 
REMARK       I    between atoms: C_45  and  N_51 
REMARK   25  A    between atoms: CB_47  and  CG_48 
REMARK   26  A    between atoms: N_51  and  CA_52 
REMARK   27  A    between atoms: CA_52  and  C_53 
REMARK       I    between atoms: C_53  and  N_55 
REMARK   28  A    between atoms: N_55  and  CA_56 
REMARK   29  A    between atoms: CA_56  and  C_57 
REMARK   30  A    between atoms: CA_56  and  CB_59 
REMARK       I    between atoms: C_57  and  N_64 
REMARK   31  A    between atoms: CB_59  and  CG_60 
REMARK   32  A    between atoms: CG_60  and  CD_61 
REMARK       I    between atoms: CD_61  and  NE2_63 
REMARK   33  A    between atoms: N_64  and  CA_65 
REMARK   34  A    between atoms: CA_65  and  C_66 
REMARK   35  A    between atoms: CA_65  and  CB_68 
REMARK       I    between atoms: C_66  and  N_70 
REMARK   36  A    between atoms: CB_68  and  OG_69 
REMARK   37  A    between atoms: N_70  and  CA_71 
REMARK   38  A    between atoms: CA_71  and  C_72 
REMARK   39  A    between atoms: CA_71  and  CB_74 
REMARK       I    between atoms: C_72  and  N_81 
REMARK   40  A    between atoms: CB_74  and  CG_75 
REMARK   41  A    between atoms: N_81  and  CA_82 
REMARK   42  A    between atoms: CA_82  and  C_83 
REMARK   43  A    between atoms: CA_82  and  CB_85 
REMARK       I    between atoms: C_83  and  N_92 
REMARK   44  A    between atoms: CB_85  and  CG_86 
REMARK   45  A    between atoms: CG_86  and  CD_87 
REMARK   46  A    between atoms: CD_87  and  NE_88 
REMARK       I    between atoms: NE_88  and  CZ_89 
REMARK       I    between atoms: CZ_89  and  NH1_90 
REMARK   47  A    between atoms: N_92  and  CA_93 
REMARK   48  A    between atoms: CA_93  and  CB_94 
REMARK   49  A    between atoms: CA_93  and  C_97 
REMARK   50  A    between atoms: CB_94  and  OG_95 
REMARK       I    between atoms: C_97  and  NT_96 
ROOT
ATOM      1  C   ASP d   1     -19.595  -6.741 -47.130  0.00  0.00     0.241 C 
ATOM      2  O   ASP d   1     -19.345  -5.577 -47.446  0.00  0.00    -0.271 OA
ATOM      3  N   GLY d   1     -19.623  -7.145 -45.863  0.00  0.00    -0.351 N 
ATOM      4  H   GLY d   1     -19.869  -8.111 -45.648  0.00  0.00     0.163 HD
ENDROOT
BRANCH   1   5
ATOM      5  CA  ASP d   1     -19.903  -7.795 -48.193  0.00  0.00     0.098 C 
ATOM      6  H   ASP d   1     -20.274  -8.694 -47.701  0.00  0.00     0.088 H 
BRANCH   5   7
ATOM      7  N   ASP d   1     -20.944  -7.306 -49.103  0.00  0.00    -0.346 N 
ATOM      8  C   PRO d   1     -22.161  -7.037 -48.640  0.00  0.00     0.241 C 
ATOM      9  O   PRO d   1     -22.536  -7.367 -47.504  0.00  0.00    -0.271 OA
ATOM     10  H   ASP d   1     -20.734  -7.172 -50.092  0.00  0.00     0.163 HD
BRANCH   8  11
ATOM     11  CA  PRO d   1     -23.122  -6.276 -49.563  0.00  0.00     0.091 C 
ATOM     12  N   PRO d   1     -24.508  -6.494 -49.139  0.00  0.00    -0.337 N 
ATOM     13  C   SER d   1     -25.030  -7.726 -49.218  0.00  0.00     0.245 C 
ATOM     14  CD  PRO d   1     -25.104  -5.300 -48.520  0.00  0.00    -0.001 C 
ATOM     15  O   SER d   1     -24.384  -8.676 -49.636  0.00  0.00    -0.271 OA
ATOM     16  CG  PRO d   1     -24.287  -4.195 -49.085  0.00  0.00    -0.048 C 
ATOM     17  H   PRO d   1     -25.082  -5.330 -47.431  0.00  0.00     0.064 H 
ATOM     18  H   PRO d   1     -26.167  -5.195 -48.736  0.00  0.00     0.064 H 
ATOM     19  CB  PRO d   1     -22.926  -4.758 -49.372  0.00  0.00    -0.036 C 
ATOM     20  H   PRO d   1     -24.743  -3.805 -49.995  0.00  0.00     0.035 H 
ATOM     21  H   PRO d   1     -24.221  -3.366 -48.381  0.00  0.00     0.035 H 
ATOM     22  H   PRO d   1     -22.491  -4.302 -50.261  0.00  0.00     0.036 H 
ATOM     23  H   PRO d   1     -22.234  -4.550 -48.556  0.00  0.00     0.036 H 
ATOM     24  H   PRO d   1     -22.929  -6.616 -50.580  0.00  0.00     0.087 H 
BRANCH  13  25
ATOM     25  CA  SER d   1     -26.471  -7.905 -48.739  0.00  0.00     0.109 C 
ATOM     26  H   SER d   1     -27.010  -6.996 -49.005  0.00  0.00     0.090 H 
BRANCH  25  27
ATOM     27  N   SER d   1     -27.168  -9.014 -49.406  0.00  0.00    -0.344 N 
ATOM     28  C   GLU d   1     -27.478  -8.961 -50.695  0.00  0.00     0.241 C 
ATOM     29  O   GLU d   1     -27.157  -8.024 -51.415  0.00  0.00    -0.271 OA
ATOM     30  H   SER d   1     -27.419  -9.842 -48.866  0.00  0.00     0.163 HD
BRANCH  28  31
ATOM     31  CA  GLU d   1     -28.269 -10.135 -51.260  0.00  0.00     0.090 C 
ATOM     32  H   GLU d   1     -29.045 -10.390 -50.538  0.00  0.00     0.087 H 
BRANCH  31  33
ATOM     33  N   GLU d   1     -28.912  -9.776 -52.514  0.00  0.00    -0.346 N 
ATOM     34  C   ARG d   1     -30.219  -9.553 -52.553  0.00  0.00     0.241 C 
ATOM     35  O   ARG d   1     -30.920  -9.612 -51.547  0.00  0.00    -0.271 OA
ATOM     36  H   GLU d   1     -28.357  -9.695 -53.366  0.00  0.00     0.163 HD
BRANCH  34  37
ATOM     37  CA  ARG d   1     -30.831  -9.218 -53.910  0.00  0.00     0.089 C 
ATOM     38  H   ARG d   1     -30.039  -9.248 -54.658  0.00  0.00     0.087 H 
BRANCH  37  39
ATOM     39  N   ARG d   1     -31.863 -10.187 -54.247  0.00  0.00    -0.346 N 
ATOM     40  C   GLN d   1     -31.589 -11.374 -54.772  0.00  0.00     0.249 C 
ATOM     41  O   GLN d   1     -30.441 -11.757 -55.006  0.00  0.00    -0.271 OA
ATOM     42  H   ARG d   1     -32.838  -9.943 -54.072  0.00  0.00     0.163 HD
BRANCH  40  43
ATOM     43  CA  GLN d   1     -32.809 -12.256 -55.061  0.00  0.00     0.176 C 
ATOM     44  H   GLN d   1     -33.413 -11.749 -55.814  0.00  0.00     0.099 H 
BRANCH  43  45
ATOM     45  N   GLN d   1     -32.446 -13.552 -55.626  0.00  0.00    -0.066 N 
ATOM     46  H   GLN d   1     -31.907 -13.410 -56.480  0.00  0.00     0.275 HD
ATOM     47  H   GLN d   1     -31.885 -14.071 -54.950  0.00  0.00     0.275 HD
ATOM     48  H   GLN d   1     -33.294 -14.077 -55.841  0.00  0.00     0.275 HD
ENDBRANCH  43  45
BRANCH  43  49
ATOM     49  CB  GLN d   1     -33.622 -12.438 -53.774  0.00  0.00    -0.022 C 
ATOM     50  H   GLN d   1     -33.867 -11.440 -53.412  0.00  0.00     0.037 H 
ATOM     51  H   GLN d   1     -33.011 -13.035 -53.097  0.00  0.00     0.037 H 
BRANCH  49  52
ATOM     52  CG  GLN d   1     -34.938 -13.179 -53.947  0.00  0.00     0.011 C 
ATOM     53  H   GLN d   1     -35.288 -13.473 -52.958  0.00  0.00     0.047 H 
ATOM     54  H   GLN d   1     -34.758 -14.032 -54.601  0.00  0.00     0.047 H 
BRANCH  52  55
ATOM     55  CD  GLN d   1     -36.013 -12.323 -54.585  0.00  0.00     0.215 C 
ATOM     56  OE1 GLN d   1     -35.730 -11.270 -55.157  0.00  0.00    -0.274 OA
ATOM     57  NE2 GLN d   1     -37.260 -12.768 -54.483  0.00  0.00    -0.370 N 
ATOM     58  H   GLN d   1     -38.028 -12.232 -54.887  0.00  0.00     0.159 HD
ATOM     59  H   GLN d   1     -37.450 -13.646 -54.000  0.00  0.00     0.159 HD
ENDBRANCH  52  55
ENDBRANCH  49  52
ENDBRANCH  43  49
ENDBRANCH  40  43
ENDBRANCH  37  39
BRANCH  37  60
ATOM     60  CB  ARG d   1     -31.456  -7.823 -53.881  0.00  0.00    -0.036 C 
ATOM     61  H   ARG d   1     -32.205  -7.830 -53.089  0.00  0.00     0.036 H 
ATOM     62  H   ARG d   1     -31.845  -7.632 -54.881  0.00  0.00     0.036 H 
BRANCH  60  63
ATOM     63  CG  ARG d   1     -30.503  -6.706 -53.566  0.00  0.00    -0.048 C 
ATOM     64  H   ARG d   1     -29.673  -6.747 -54.272  0.00  0.00     0.035 H 
ATOM     65  H   ARG d   1     -30.153  -6.825 -52.541  0.00  0.00     0.035 H 
BRANCH  63  66
ATOM     66  CD  ARG d   1     -31.183  -5.352 -53.693  0.00  0.00     0.009 C 
ATOM     67  H   ARG d   1     -31.941  -5.256 -52.916  0.00  0.00     0.064 H 
ATOM     68  H   ARG d   1     -31.648  -5.274 -54.676  0.00  0.00     0.064 H 
BRANCH  66  69
ATOM     69  NE  ARG d   1     -30.201  -4.290 -53.540  0.00  0.00    -0.227 N 
ATOM     70  CZ  ARG d   1     -29.839  -3.767 -52.375  0.00  0.00     0.665 C 
ATOM     71  NH1 ARG d   1     -30.399  -4.188 -51.243  0.00  0.00    -0.235 N 
ATOM     72  NH2 ARG d   1     -28.916  -2.815 -52.345  0.00  0.00    -0.235 N 
ATOM     73  H   ARG d   1     -31.112  -4.917 -51.267  0.00  0.00     0.174 HD
ATOM     74  H   ARG d   1     -30.116  -3.781 -50.352  0.00  0.00     0.174 HD
ATOM     75  H   ARG d   1     -28.490  -2.490 -53.213  0.00  0.00     0.174 HD
ATOM     76  H   ARG d   1     -28.632  -2.408 -51.454  0.00  0.00     0.174 HD
ATOM     77  H   ARG d   1     -29.761  -3.923 -54.384  0.00  0.00     0.177 HD
ENDBRANCH  66  69
ENDBRANCH  63  66
ENDBRANCH  60  63
ENDBRANCH  37  60
ENDBRANCH  34  37
ENDBRANCH  31  33
BRANCH  31  78
ATOM     78  CB  GLU d   1     -27.368 -11.355 -51.455  0.00  0.00    -0.029 C 
ATOM     79  H   GLU d   1     -26.953 -11.612 -50.481  0.00  0.00     0.037 H 
ATOM     80  H   GLU d   1     -26.615 -11.088 -52.197  0.00  0.00     0.037 H 
BRANCH  78  81
ATOM     81  CG  GLU d   1     -28.100 -12.578 -51.972  0.00  0.00     0.018 C 
ATOM     82  H   GLU d   1     -28.434 -12.369 -52.988  0.00  0.00     0.049 H 
ATOM     83  H   GLU d   1     -28.933 -12.785 -51.299  0.00  0.00     0.049 H 
BRANCH  81  84
ATOM     84  CD  GLU d   1     -27.209 -13.804 -52.011  0.00  0.00     0.172 C 
ATOM     85  OE1 GLU d   1     -25.971 -13.642 -51.938  0.00  0.00    -0.648 OA
ATOM     86  OE2 GLU d   1     -27.743 -14.928 -52.104  0.00  0.00    -0.648 OA
ENDBRANCH  81  84
ENDBRANCH  78  81
ENDBRANCH  31  78
ENDBRANCH  28  31
ENDBRANCH  25  27
BRANCH  25  87
ATOM     87  CB  SER d   1     -26.492  -8.102 -47.222  0.00  0.00     0.044 C 
ATOM     88  H   SER d   1     -27.527  -8.188 -46.890  0.00  0.00     0.077 H 
ATOM     89  H   SER d   1     -26.009  -7.248 -46.747  0.00  0.00     0.077 H 
BRANCH  87  90
ATOM     90  OG  SER d   1     -25.795  -9.281 -46.867  0.00  0.00    -0.398 OA
ATOM     91  H   SER d   1     -24.884  -9.213 -47.161  0.00  0.00     0.209 HD
ENDBRANCH  87  90
ENDBRANCH  25  87
ENDBRANCH  13  25
ENDBRANCH   8  11
ENDBRANCH   5   7
BRANCH   5  92
ATOM     92  CB  ASP d   1     -18.633  -8.167 -48.961  0.00  0.00     0.043 C 
ATOM     93  H   ASP d   1     -17.802  -8.176 -48.255  0.00  0.00     0.052 H 
ATOM     94  H   ASP d   1     -18.494  -7.436 -49.757  0.00  0.00     0.052 H 
BRANCH  92  95
ATOM     95  CG  ASP d   1     -18.724  -9.538 -49.595  0.00  0.00     0.175 C 
ATOM     96  OD1 ASP d   1     -19.272 -10.450 -48.940  0.00  0.00    -0.648 OA
ATOM     97  OD2 ASP d   1     -18.264  -9.699 -50.742  0.00  0.00    -0.648 OA
ENDBRANCH  92  95
ENDBRANCH   5  92
ENDBRANCH   1   5
BRANCH   3  98
ATOM     98  CA  GLY d   1     -19.308  -6.229 -44.781  0.00  0.00     0.069 C 
ATOM     99  H   GLY d   1     -19.583  -5.222 -45.094  0.00  0.00     0.078 H 
ATOM    100  H   GLY d   1     -18.243  -6.309 -44.563  0.00  0.00     0.078 H 
BRANCH  98 101
ATOM    101  C   GLY d   1     -20.079  -6.563 -43.518  0.00  0.00     0.236 C 
ATOM    102  O   GLY d   1     -20.777  -7.584 -43.459  0.00  0.00    -0.272 OA
ATOM    103  N   GLN d   1     -19.921  -5.727 -42.500  0.00  0.00    -0.346 N 
ATOM    104  H   GLN d   1     -19.231  -4.980 -42.575  0.00  0.00     0.163 HD
BRANCH 103 105
ATOM    105  CA  GLN d   1     -20.705  -5.846 -41.279  0.00  0.00     0.090 C 
ATOM    106  H   GLN d   1     -21.735  -6.069 -41.559  0.00  0.00     0.087 H 
BRANCH 105 107
ATOM    107  C   GLN d   1     -20.687  -4.529 -40.510  0.00  0.00     0.241 C 
ATOM    108  O   GLN d   1     -19.795  -3.699 -40.699  0.00  0.00    -0.271 OA
ATOM    109  N   SER d   1     -21.681  -4.341 -39.651  0.00  0.00    -0.344 N 
ATOM    110  H   SER d   1     -22.310  -5.113 -39.430  0.00  0.00     0.163 HD
BRANCH 109 111
ATOM    111  CA  SER d   1     -21.883  -3.048 -39.022  0.00  0.00     0.109 C 
ATOM    112  H   SER d   1     -21.774  -2.291 -39.799  0.00  0.00     0.090 H 
BRANCH 111 113
ATOM    113  C   SER d   1     -20.840  -2.750 -37.958  0.00  0.00     0.243 C 
ATOM    114  O   SER d   1     -20.418  -1.602 -37.799  0.00  0.00    -0.271 OA
ATOM    115  N   PHE d   1     -20.458  -3.771 -37.202  0.00  0.00    -0.346 N 
ATOM    116  H   PHE d   1     -20.798  -4.710 -37.409  0.00  0.00     0.163 HD
BRANCH 115 117
ATOM    117  CA  PHE d   1     -19.556  -3.558 -36.078  0.00  0.00     0.093 C 
ATOM    118  H   PHE d   1     -19.281  -2.503 -36.064  0.00  0.00     0.088 H 
BRANCH 117 119
ATOM    119  C   PHE d   1     -18.297  -4.377 -36.236  0.00  0.00     0.241 C 
ATOM    120  O   PHE d   1     -18.351  -5.556 -36.593  0.00  0.00    -0.271 OA
ATOM    121  N   ARG d   1     -17.167  -3.743 -35.964  0.00  0.00    -0.346 N 
ATOM    122  H   ARG d   1     -17.202  -2.762 -35.686  0.00  0.00     0.163 HD
BRANCH 121 123
ATOM    123  CA  ARG d   1     -15.883  -4.407 -36.051  0.00  0.00     0.089 C 
ATOM    124  H   ARG d   1     -15.783  -4.853 -37.041  0.00  0.00     0.087 H 
BRANCH 123 125
ATOM    125  C   ARG d   1     -15.806  -5.524 -35.012  0.00  0.00     0.241 C 
ATOM    126  O   ARG d   1     -15.212  -6.570 -35.266  0.00  0.00    -0.271 OA
ATOM    127  N   SET d   1     -16.436  -5.324 -33.856  0.00  0.00    -0.344 N 
ATOM    128  H   SET d   1     -16.958  -4.461 -33.703  0.00  0.00     0.163 HD
BRANCH 127 129
ATOM    129  CA  SET d   1     -16.380  -6.351 -32.794  0.00  0.00     0.109 C 
ATOM    130  H   SET d   1     -15.361  -6.736 -32.748  0.00  0.00     0.090 H 
BRANCH 129 131
ATOM    131  CB  SET d   1     -16.712  -5.767 -31.420  0.00  0.00     0.044 C 
ATOM    132  H   SET d   1     -16.009  -4.969 -31.181  0.00  0.00     0.077 H 
ATOM    133  H   SET d   1     -16.637  -6.546 -30.662  0.00  0.00     0.077 H 
BRANCH 131 134
ATOM    134  OG  SET d   1     -18.038  -5.247 -31.444  0.00  0.00    -0.398 OA
ATOM    135  H   SET d   1     -18.654  -5.953 -31.653  0.00  0.00     0.209 HD
ENDBRANCH 131 134
ENDBRANCH 129 131
BRANCH 129 136
ATOM    136  C   SET d   1     -17.364  -7.496 -33.135  0.00  0.00     0.240 C 
ATOM    137  NT  SET d   1     -17.224  -8.556 -32.361  0.00  0.00    -0.368 N 
ATOM    138  H   SET d   1     -17.828  -9.367 -32.493  0.00  0.00     0.159 HD
ATOM    139  H   SET d   1     -16.512  -8.564 -31.630  0.00  0.00     0.159 HD
ATOM    140  O   SET d   1     -18.202  -7.412 -34.040  0.00  0.00    -0.271 OA
ENDBRANCH 129 136
ENDBRANCH 127 129
ENDBRANCH 123 125
BRANCH 123 141
ATOM    141  CB  ARG d   1     -14.734  -3.410 -35.896  0.00  0.00    -0.036 C 
ATOM    142  H   ARG d   1     -13.818  -3.981 -35.741  0.00  0.00     0.036 H 
ATOM    143  H   ARG d   1     -14.975  -2.754 -35.059  0.00  0.00     0.036 H 
BRANCH 141 144
ATOM    144  CG  ARG d   1     -14.532  -2.533 -37.131  0.00  0.00    -0.048 C 
ATOM    145  H   ARG d   1     -15.356  -2.713 -37.821  0.00  0.00     0.035 H 
ATOM    146  H   ARG d   1     -13.572  -2.786 -37.581  0.00  0.00     0.035 H 
BRANCH 144 147
ATOM    147  CD  ARG d   1     -14.520  -1.027 -36.762  0.00  0.00     0.009 C 
ATOM    148  H   ARG d   1     -15.259  -0.854 -35.980  0.00  0.00     0.064 H 
ATOM    149  H   ARG d   1     -14.750  -0.448 -37.656  0.00  0.00     0.064 H 
BRANCH 147 150
ATOM    150  NE  ARG d   1     -13.223  -0.620 -36.269  0.00  0.00    -0.227 N 
ATOM    151  CZ  ARG d   1     -12.979   0.488 -35.571  0.00  0.00     0.665 C 
ATOM    152  NH1 ARG d   1     -11.748   0.749 -35.173  0.00  0.00    -0.235 N 
ATOM    153  NH2 ARG d   1     -13.956   1.335 -35.274  0.00  0.00    -0.235 N 
ATOM    154  H   ARG d   1     -10.991   0.104 -35.400  0.00  0.00     0.174 HD
ATOM    155  H   ARG d   1     -11.554   1.595 -34.638  0.00  0.00     0.174 HD
ATOM    156  H   ARG d   1     -14.909   1.142 -35.581  0.00  0.00     0.174 HD
ATOM    157  H   ARG d   1     -13.754   2.179 -34.739  0.00  0.00     0.174 HD
ATOM    158  H   ARG d   1     -12.431  -1.230 -36.472  0.00  0.00     0.177 HD
ENDBRANCH 147 150
ENDBRANCH 144 147
ENDBRANCH 141 144
ENDBRANCH 123 141
ENDBRANCH 121 123
ENDBRANCH 117 119
BRANCH 117 159
ATOM    159  CB  PHE d   1     -20.247  -3.898 -34.758  0.00  0.00    -0.014 C 
ATOM    160  H   PHE d   1     -19.521  -3.750 -33.959  0.00  0.00     0.043 H 
ATOM    161  H   PHE d   1     -20.607  -4.924 -34.830  0.00  0.00     0.043 H 
BRANCH 159 162
ATOM    162  CG  PHE d   1     -21.433  -3.021 -34.462  0.00  0.00    -0.056 A 
ATOM    163  CD1 PHE d   1     -21.250  -1.709 -34.076  0.00  0.00    -0.077 A 
ATOM    164  CE1 PHE d   1     -22.325  -0.885 -33.801  0.00  0.00    -0.082 A 
ATOM    165  H   PHE d   1     -20.238  -1.315 -33.986  0.00  0.00     0.084 H 
ATOM    166  CZ  PHE d   1     -23.604  -1.362 -33.938  0.00  0.00    -0.083 A 
ATOM    167  H   PHE d   1     -22.157   0.142 -33.476  0.00  0.00     0.083 H 
ATOM    168  CE2 PHE d   1     -23.811  -2.671 -34.346  0.00  0.00    -0.082 A 
ATOM    169  H   PHE d   1     -24.455  -0.714 -33.727  0.00  0.00     0.083 H 
ATOM    170  CD2 PHE d   1     -22.726  -3.494 -34.614  0.00  0.00    -0.077 A 
ATOM    171  H   PHE d   1     -24.826  -3.054 -34.456  0.00  0.00     0.083 H 
ATOM    172  H   PHE d   1     -22.892  -4.519 -34.946  0.00  0.00     0.084 H 
ENDBRANCH 159 162
ENDBRANCH 117 159
ENDBRANCH 115 117
ENDBRANCH 111 113
BRANCH 111 173
ATOM    173  CB  SER d   1     -23.284  -2.971 -38.421  0.00  0.00     0.044 C 
ATOM    174  H   SER d   1     -23.405  -2.013 -37.915  0.00  0.00     0.077 H 
ATOM    175  H   SER d   1     -23.414  -3.788 -37.711  0.00  0.00     0.077 H 
BRANCH 173 176
ATOM    176  OG  SER d   1     -24.254  -3.083 -39.439  0.00  0.00    -0.398 OA
ATOM    177  H   SER d   1     -25.131  -3.033 -39.051  0.00  0.00     0.209 HD
ENDBRANCH 173 176
ENDBRANCH 111 173
ENDBRANCH 109 111
ENDBRANCH 105 107
BRANCH 105 178
ATOM    178  CB  GLN d   1     -20.219  -7.010 -40.403  0.00  0.00    -0.030 C 
ATOM    179  H   GLN d   1     -20.150  -7.884 -41.050  0.00  0.00     0.037 H 
ATOM    180  H   GLN d   1     -20.928  -7.103 -39.580  0.00  0.00     0.037 H 
BRANCH 178 181
ATOM    181  CG  GLN d   1     -18.844  -6.813 -39.780  0.00  0.00     0.011 C 
ATOM    182  H   GLN d   1     -18.927  -6.046 -39.010  0.00  0.00     0.047 H 
ATOM    183  H   GLN d   1     -18.151  -6.529 -40.572  0.00  0.00     0.047 H 
BRANCH 181 184
ATOM    184  CD  GLN d   1     -18.318  -8.092 -39.123  0.00  0.00     0.215 C 
ATOM    185  OE1 GLN d   1     -18.530  -9.191 -39.630  0.00  0.00    -0.274 OA
ATOM    186  NE2 GLN d   1     -17.633  -7.948 -37.992  0.00  0.00    -0.370 N 
ATOM    187  H   GLN d   1     -17.262  -8.768 -37.513  0.00  0.00     0.159 HD
ATOM    188  H   GLN d   1     -17.479  -7.017 -37.604  0.00  0.00     0.159 HD
ENDBRANCH 181 184
ENDBRANCH 178 181
ENDBRANCH 105 178
ENDBRANCH 103 105
ENDBRANCH  98 101
ENDBRANCH   3  98
TORSDOF 50
