REMARK  7 active torsions:
REMARK  status: ('A' for Active; 'I' for Inactive)
REMARK    1  A    between atoms: C19_13  and  C23_23 
REMARK    2  A    between atoms: C16_26  and  C17_14 
REMARK    3  A    between atoms: C4_18  and  O3_36 
REMARK    4  A    between atoms: N1_29  and  C14_19 
REMARK    5  A    between atoms: C23_23  and  C26_24 
REMARK    6  A    between atoms: O3_36  and  C15_25 
REMARK    7  A    between atoms: C16_26  and  N2_30 
ROOT
ATOM      1  C11 082 d   1      18.258   5.089  15.217  0.00  0.00    -0.081 A 
ATOM      2  C10 082 d   1      19.046   5.201  14.088  0.00  0.00    -0.081 A 
ATOM      3  C12 082 d   1      16.880   5.065  15.118  0.00  0.00    -0.054 A 
ATOM      4  C13 082 d   1      18.494   5.295  12.824  0.00  0.00    -0.055 A 
ATOM      5  C8  082 d   1      16.346   5.165  13.852  0.00  0.00     0.072 A 
ATOM      6  C7  082 d   1      17.125   5.275  12.739  0.00  0.00     0.066 A 
ATOM      7  C9  082 d   1      14.959   5.296  12.034  0.00  0.00     0.336 A 
ATOM      8  N1  082 d   1      15.022   5.157  13.412  0.00  0.00    -0.243 N 
ATOM      9  N2  082 d   1      16.281   5.356  11.626  0.00  0.00    -0.293 N 
ATOM     10  O1  082 d   1      13.964   5.370  11.328  0.00  0.00    -0.246 OA
ATOM     11  H1  082 d   1      18.726   5.019  16.192  0.00  0.00     0.083 H 
ATOM     12  H2  082 d   1      20.125   5.216  14.196  0.00  0.00     0.083 H 
ATOM     13  H7  082 d   1      16.249   4.972  15.995  0.00  0.00     0.087 H 
ATOM     14  H8  082 d   1      19.115   5.381  11.940  0.00  0.00     0.087 H 
ENDROOT
BRANCH   9  15
ATOM     15  C16 082 d   1      16.740   5.324  10.257  0.00  0.00     0.028 C 
ATOM     16  H18 082 d   1      17.632   4.683  10.200  0.00  0.00     0.072 H 
ATOM     17  H19 082 d   1      15.943   4.901   9.628  0.00  0.00     0.072 H 
BRANCH  15  18
ATOM     18  C17 082 d   1      17.091   6.677   9.736  0.00  0.00    -0.039 A 
ATOM     19  C22 082 d   1      18.261   6.855   9.027  0.00  0.00    -0.075 A 
ATOM     20  C21 082 d   1      18.586   8.105   8.542  0.00  0.00    -0.082 A 
ATOM     21  H6  082 d   1      18.923   6.015   8.851  0.00  0.00     0.084 H 
ATOM     22  C20 082 d   1      17.750   9.182   8.761  0.00  0.00    -0.073 A 
ATOM     23  H3  082 d   1      19.505   8.243   7.984  0.00  0.00     0.083 H 
ATOM     24  C19 082 d   1      16.565   9.021   9.459  0.00  0.00    -0.014 A 
ATOM     25  H5  082 d   1      18.023  10.161   8.384  0.00  0.00     0.084 H 
ATOM     26  C18 082 d   1      16.258   7.761   9.941  0.00  0.00    -0.066 A 
ATOM     27  H10 082 d   1      15.337   7.620  10.496  0.00  0.00     0.085 H 
BRANCH  24  28
ATOM     28  C23 082 d   1      15.592  10.137   9.771  0.00  0.00     0.176 C 
ATOM     29  C24 082 d   1      14.564  10.029   8.689  0.00  0.00     0.266 C 
ATOM     30  N4  082 d   1      14.931  10.761   7.649  0.00  0.00    -0.270 N 
ATOM     31  O6  082 d   1      13.635   9.236   8.720  0.00  0.00    -0.269 OA
ATOM     32  C25 082 d   1      15.994  11.475   7.996  0.00  0.00     0.368 C 
ATOM     33  H20 082 d   1      14.484  10.774   6.755  0.00  0.00     0.174 HD
ATOM     34  O5  082 d   1      16.539  12.333   7.321  0.00  0.00    -0.238 OA
ATOM     35  O4  082 d   1      16.297  11.273   9.309  0.00  0.00    -0.278 OA
BRANCH  28  36
ATOM     36  C26 082 d   1      15.061  10.208  11.176  0.00  0.00    -0.035 C 
ATOM     37  H12 082 d   1      15.901  10.285  11.882  0.00  0.00     0.032 H 
ATOM     38  H13 082 d   1      14.480   9.300  11.395  0.00  0.00     0.032 H 
ATOM     39  H14 082 d   1      14.414  11.091  11.279  0.00  0.00     0.032 H 
ENDBRANCH  28  36
ENDBRANCH  24  28
ENDBRANCH  15  18
ENDBRANCH   9  15
BRANCH   8  40
ATOM     40  C14 082 d   1      13.958   4.948  14.279  0.00  0.00     0.179 A 
ATOM     41  C1  082 d   1      12.841   4.093  14.054  0.00  0.00     0.049 A 
ATOM     42  C2  082 d   1      12.409   3.226  13.060  0.00  0.00    -0.064 A 
ATOM     43  C6  082 d   1      12.058   4.257  15.176  0.00  0.00     0.118 A 
ATOM     44  C3  082 d   1      11.201   2.587  13.261  0.00  0.00    -0.050 A 
ATOM     45  H4  082 d   1      12.995   3.057  12.164  0.00  0.00     0.085 H 
ATOM     46  C4  082 d   1      10.447   2.789  14.397  0.00  0.00     0.070 A 
ATOM     47  H9  082 d   1      10.835   1.905  12.502  0.00  0.00     0.087 H 
ATOM     48  C5  082 d   1      10.854   3.636  15.407  0.00  0.00    -0.015 A 
ATOM     49  H11 082 d   1      10.273   3.798  16.308  0.00  0.00     0.092 H 
ATOM     50  O2  082 d   1      12.670   5.129  16.023  0.00  0.00    -0.211 OA
ATOM     51  N3  082 d   1      13.861   5.571  15.460  0.00  0.00    -0.108 NA
BRANCH  46  52
ATOM     52  O3  082 d   1       9.243   2.108  14.501  0.00  0.00    -0.356 OA
BRANCH  52  53
ATOM     53  C15 082 d   1       8.854   2.121  15.873  0.00  0.00     0.010 C 
ATOM     54  H15 082 d   1       7.899   1.587  15.989  0.00  0.00     0.066 H 
ATOM     55  H16 082 d   1       8.735   3.161  16.211  0.00  0.00     0.066 H 
ATOM     56  H17 082 d   1       9.627   1.625  16.478  0.00  0.00     0.066 H 
ENDBRANCH  52  53
ENDBRANCH  46  52
ENDBRANCH   8  40
TORSDOF 7
