REMARK  7 active torsions:
REMARK  status: ('A' for Active; 'I' for Inactive)
REMARK    1  A    between atoms: C17_25  and  C1_1 
REMARK    2  A    between atoms: N1_2  and  C17_25 
REMARK    3  A    between atoms: C3_7  and  N3_8 
REMARK    4  A    between atoms: C13_21  and  C7_15 
REMARK    5  A    between atoms: C9_17  and  C22_30 
REMARK    6  A    between atoms: C12_20  and  C16_24 
REMARK    7  A    between atoms: C22_30  and  C23_31 
ROOT
ATOM      1  N1  HI4 d   1      25.115  43.170  44.614  0.00  0.00    -0.336 N 
ATOM      2  C8  HI4 d   1      24.437  43.855  48.052  0.00  0.00    -0.064 A 
ATOM      3  C9  HI4 d   1      25.065  42.814  48.758  0.00  0.00    -0.058 A 
ATOM      4  C10 HI4 d   1      24.498  43.898  46.641  0.00  0.00     0.005 A 
ATOM      5  C11 HI4 d   1      25.202  42.892  45.961  0.00  0.00     0.046 A 
ATOM      6  C12 HI4 d   1      24.380  44.328  44.399  0.00  0.00     0.125 A 
ATOM      7  C13 HI4 d   1      23.973  44.782  45.658  0.00  0.00     0.026 A 
ATOM      8  C14 HI4 d   1      25.754  41.820  48.055  0.00  0.00    -0.075 A 
ATOM      9  C15 HI4 d   1      25.836  41.845  46.651  0.00  0.00    -0.056 A 
ATOM     10  H   HI4 d   1      23.904  44.628  48.593  0.00  0.00     0.085 H 
ATOM     11  H   HI4 d   1      26.233  41.016  48.602  0.00  0.00     0.084 H 
ATOM     12  H   HI4 d   1      26.376  41.074  46.114  0.00  0.00     0.087 H 
ENDROOT
BRANCH   1  13
ATOM     13  C17 HI4 d   1      25.746  42.326  43.573  0.00  0.00     0.024 C 
ATOM     14  H   HI4 d   1      26.094  41.392  44.038  0.00  0.00     0.072 H 
ATOM     15  H   HI4 d   1      24.996  42.094  42.803  0.00  0.00     0.072 H 
BRANCH  13  16
ATOM     16  C1  HI4 d   1      26.925  43.011  42.914  0.00  0.00    -0.038 A 
ATOM     17  C2  HI4 d   1      26.726  44.059  41.987  0.00  0.00    -0.043 A 
ATOM     18  C3  HI4 d   1      27.841  44.694  41.395  0.00  0.00     0.103 A 
ATOM     19  H   HI4 d   1      25.721  44.375  41.731  0.00  0.00     0.088 H 
ATOM     20  C4  HI4 d   1      29.147  44.297  41.702  0.00  0.00    -0.051 A 
ATOM     21  C5  HI4 d   1      29.344  43.263  42.621  0.00  0.00    -0.080 A 
ATOM     22  H   HI4 d   1      29.994  44.785  41.233  0.00  0.00     0.087 H 
ATOM     23  C6  HI4 d   1      28.246  42.639  43.223  0.00  0.00    -0.075 A 
ATOM     24  H   HI4 d   1      30.350  42.944  42.868  0.00  0.00     0.083 H 
ATOM     25  H   HI4 d   1      28.418  41.849  43.946  0.00  0.00     0.084 H 
BRANCH  18  26
ATOM     26  N3  HI4 d   1      27.649  45.779  40.441  0.00  0.00    -0.116 N 
ATOM     27  O4  HI4 d   1      28.636  46.492  40.183  0.00  0.00    -0.532 OA
ATOM     28  O5  HI4 d   1      26.529  45.898  39.912  0.00  0.00    -0.532 OA
ENDBRANCH  18  26
ENDBRANCH  13  16
ENDBRANCH   1  13
BRANCH   6  29
ATOM     29  C16 HI4 d   1      24.083  44.970  43.132  0.00  0.00     0.228 C 
ATOM     30  O1  HI4 d   1      24.060  46.175  42.943  0.00  0.00    -0.643 OA
ATOM     31  O3  HI4 d   1      23.767  44.079  42.163  0.00  0.00    -0.643 OA
ENDBRANCH   6  29
BRANCH   7  32
ATOM     32  C7  HI4 d   1      23.153  45.941  45.930  0.00  0.00     0.045 A 
ATOM     33  C18 HI4 d   1      21.847  46.129  45.175  0.00  0.00     0.256 A 
ATOM     34  N2  HI4 d   1      21.094  47.250  45.497  0.00  0.00    -0.333 N 
ATOM     35  O2  HI4 d   1      21.481  45.317  44.313  0.00  0.00    -0.267 OA
ATOM     36  C19 HI4 d   1      21.476  48.167  46.454  0.00  0.00    -0.020 A 
ATOM     37  H   HI4 d   1      20.233  47.400  45.011  0.00  0.00     0.168 HD
ATOM     38  C20 HI4 d   1      22.619  47.998  47.137  0.00  0.00    -0.067 A 
ATOM     39  H   HI4 d   1      20.847  49.033  46.656  0.00  0.00     0.111 H 
ATOM     40  C21 HI4 d   1      23.471  46.856  46.866  0.00  0.00    -0.066 A 
ATOM     41  H   HI4 d   1      22.908  48.721  47.898  0.00  0.00     0.085 H 
ATOM     42  H   HI4 d   1      24.392  46.735  47.434  0.00  0.00     0.085 H 
ENDBRANCH   7  32
BRANCH   3  43
ATOM     43  C22 HI4 d   1      24.997  42.767  50.272  0.00  0.00    -0.044 C 
ATOM     44  H   HI4 d   1      24.756  43.771  50.651  0.00  0.00     0.039 H 
ATOM     45  H   HI4 d   1      25.975  42.452  50.665  0.00  0.00     0.039 H 
BRANCH  43  46
ATOM     46  C23 HI4 d   1      23.936  41.791  50.748  0.00  0.00    -0.073 C 
ATOM     47  H   HI4 d   1      23.913  41.782  51.848  0.00  0.00     0.028 H 
ATOM     48  H   HI4 d   1      24.173  40.783  50.378  0.00  0.00     0.028 H 
ATOM     49  H   HI4 d   1      22.953  42.102  50.364  0.00  0.00     0.028 H 
ENDBRANCH  43  46
ENDBRANCH   3  43
TORSDOF 7
