REMARK  7 active torsions:
REMARK  status: ('A' for Active; 'I' for Inactive)
REMARK    1  A    between atoms: N1_3  and  C25_36 
REMARK    2  A    between atoms: S1_5  and  N3_12 
REMARK    3  A    between atoms: C23_34  and  S1_5 
REMARK       I    between atoms: N3_12  and  C20_31 
REMARK    4  A    between atoms: C7_18  and  C18_29 
REMARK    5  A    between atoms: C8_19  and  C24_35 
REMARK    6  A    between atoms: C25_36  and  C9_20 
REMARK    7  A    between atoms: C20_31  and  C14_25 
ROOT
ATOM      1  N1  HI3 d   1      25.184  43.502  44.485  0.00  0.00    -0.337 N 
ATOM      2  C3  HI3 d   1      24.342  43.959  47.931  0.00  0.00    -0.061 A 
ATOM      3  F3  HI3 d   1      26.294  40.933  48.399  0.00  0.00    -0.205 F 
ATOM      4  C5  HI3 d   1      25.805  42.041  46.420  0.00  0.00    -0.018 A 
ATOM      5  C6  HI3 d   1      24.453  44.076  46.521  0.00  0.00     0.001 A 
ATOM      6  C7  HI3 d   1      23.965  45.018  45.588  0.00  0.00     0.004 A 
ATOM      7  C8  HI3 d   1      24.984  42.891  48.578  0.00  0.00    -0.022 A 
ATOM      8  C10 HI3 d   1      25.190  43.123  45.803  0.00  0.00     0.049 A 
ATOM      9  C13 HI3 d   1      25.677  41.951  47.807  0.00  0.00     0.124 A 
ATOM     10  C14 HI3 d   1      24.463  44.669  44.329  0.00  0.00     0.113 A 
ATOM     11  H3  HI3 d   1      23.770  44.683  48.500  0.00  0.00     0.085 H 
ATOM     12  H6  HI3 d   1      26.358  41.302  45.852  0.00  0.00     0.091 H 
ENDROOT
BRANCH  10  13
ATOM     13  C20 HI3 d   1      24.303  45.428  43.121  0.00  0.00     0.282 C 
ATOM     14  O2  HI3 d   1      24.354  46.654  43.075  0.00  0.00    -0.265 OA
ATOM     15  N3  HI3 d   1      24.085  44.668  41.992  0.00  0.00    -0.248 N 
ATOM     16  H4  HI3 d   1      23.811  43.712  42.096  0.00  0.00     0.182 HD
BRANCH  15  17
ATOM     17  S1  HI3 d   1      24.265  45.299  40.450  0.00  0.00     0.237 S 
ATOM     18  O3  HI3 d   1      23.869  44.251  39.531  0.00  0.00    -0.205 OA
ATOM     19  O4  HI3 d   1      23.672  46.593  40.336  0.00  0.00    -0.205 OA
BRANCH  17  20
ATOM     20  C23 HI3 d   1      26.054  45.401  40.182  0.00  0.00     0.063 A 
ATOM     21  C21 HI3 d   1      26.634  46.730  40.535  0.00  0.00    -0.046 A 
ATOM     22  C22 HI3 d   1      26.444  46.348  39.089  0.00  0.00    -0.046 A 
ATOM     23  H11 HI3 d   1      25.998  47.505  40.987  0.00  0.00     0.035 H 
ATOM     24  H12 HI3 d   1      27.647  46.793  40.959  0.00  0.00     0.035 H 
ATOM     25  H13 HI3 d   1      27.318  46.130  38.457  0.00  0.00     0.035 H 
ATOM     26  H14 HI3 d   1      25.669  46.843  38.486  0.00  0.00     0.035 H 
ATOM     27  H15 HI3 d   1      26.577  44.451  40.366  0.00  0.00     0.066 H 
ENDBRANCH  17  20
ENDBRANCH  15  17
ENDBRANCH  10  13
BRANCH   1  28
ATOM     28  C25 HI3 d   1      25.982  42.812  43.467  0.00  0.00     0.027 C 
ATOM     29  H19 HI3 d   1      25.404  42.735  42.535  0.00  0.00     0.072 H 
ATOM     30  H20 HI3 d   1      26.241  41.804  43.822  0.00  0.00     0.072 H 
BRANCH  28  31
ATOM     31  C9  HI3 d   1      27.246  43.600  43.215  0.00  0.00     0.002 A 
ATOM     32  C4  HI3 d   1      27.693  44.644  44.065  0.00  0.00    -0.035 A 
ATOM     33  C11 HI3 d   1      28.865  45.346  43.774  0.00  0.00     0.117 A 
ATOM     34  H5  HI3 d   1      27.120  44.899  44.949  0.00  0.00     0.089 H 
ATOM     35  C1  HI3 d   1      29.619  45.043  42.651  0.00  0.00    -0.043 A 
ATOM     36  F1  HI3 d   1      29.233  46.330  44.609  0.00  0.00    -0.206 F 
ATOM     37  C2  HI3 d   1      29.194  44.023  41.792  0.00  0.00    -0.042 A 
ATOM     38  H1  HI3 d   1      30.530  45.591  42.440  0.00  0.00     0.088 H 
ATOM     39  C12 HI3 d   1      28.014  43.316  42.078  0.00  0.00     0.124 A 
ATOM     40  H2  HI3 d   1      29.773  43.779  40.909  0.00  0.00     0.088 H 
ATOM     41  F2  HI3 d   1      27.594  42.356  41.255  0.00  0.00    -0.205 F 
ENDBRANCH  28  31
ENDBRANCH   1  28
BRANCH   6  42
ATOM     42  C18 HI3 d   1      23.132  46.159  45.905  0.00  0.00     0.071 A 
ATOM     43  C16 HI3 d   1      23.387  47.016  46.937  0.00  0.00    -0.085 A 
ATOM     44  C15 HI3 d   1      22.505  48.126  47.237  0.00  0.00    -0.068 A 
ATOM     45  H8  HI3 d   1      24.274  46.862  47.549  0.00  0.00     0.078 H 
ATOM     46  C17 HI3 d   1      21.399  48.332  46.493  0.00  0.00     0.005 A 
ATOM     47  H7  HI3 d   1      22.736  48.795  48.065  0.00  0.00     0.085 H 
ATOM     48  N2  HI3 d   1      21.089  47.483  45.448  0.00  0.00    -0.226 NA
ATOM     49  H9  HI3 d   1      20.745  49.174  46.718  0.00  0.00     0.114 H 
ATOM     50  C19 HI3 d   1      21.867  46.397  45.092  0.00  0.00     0.255 A 
ATOM     51  O1  HI3 d   1      21.560  45.650  44.133  0.00  0.00    -0.270 OA
ATOM     52  H10 HI3 d   1      23.724  46.787  45.223  0.00  0.00     0.068 H 
ENDBRANCH   6  42
BRANCH   7  53
ATOM     53  C24 HI3 d   1      24.907  42.741  50.081  0.00  0.00    -0.048 C 
ATOM     54  H16 HI3 d   1      24.324  43.573  50.503  0.00  0.00     0.033 H 
ATOM     55  H17 HI3 d   1      25.923  42.754  50.503  0.00  0.00     0.033 H 
ATOM     56  H18 HI3 d   1      24.419  41.787  50.330  0.00  0.00     0.033 H 
ENDBRANCH   7  53
TORSDOF 7
