REMARK  4 active torsions:
REMARK  status: ('A' for Active; 'I' for Inactive)
REMARK    1  A    between atoms: CA_1  and  CB1_2 
REMARK    2  A    between atoms: CA_1  and  CB2_10 
REMARK    3  A    between atoms: CB1_2  and  CG_3 
REMARK    4  A    between atoms: CG_3  and  CD_4 
ROOT
ATOM      1  CG  CLT d   1      -9.602 -31.857  15.827  0.00  0.00    -0.041 C 
ATOM      2  H5  CLT d   1      -9.503 -32.791  15.255  0.00  0.00     0.040 H 
ATOM      3  H6  CLT d   1     -10.638 -31.494  15.761  0.00  0.00     0.040 H 
ENDROOT
BRANCH   1   4
ATOM      4  CB1 CLT d   1      -8.611 -30.796  15.330  0.00  0.00    -0.052 C 
ATOM      5  H3  CLT d   1      -8.821 -29.853  15.856  0.00  0.00     0.034 H 
ATOM      6  H4  CLT d   1      -7.593 -31.133  15.574  0.00  0.00     0.034 H 
BRANCH   4   7
ATOM      7  CA  CLT d   1      -8.683 -30.535  13.832  0.00  0.00     0.016 C 
ATOM      8  H1  CLT d   1      -8.284 -29.533  13.616  0.00  0.00     0.049 H 
ATOM      9  H2  CLT d   1      -9.730 -30.592  13.501  0.00  0.00     0.049 H 
BRANCH   7  10
ATOM     10  CB2 CLT d   1      -7.867 -31.569  13.093  0.00  0.00     0.172 C 
ATOM     11  OG1 CLT d   1      -8.097 -31.760  11.876  0.00  0.00    -0.648 OA
ATOM     12  OG2 CLT d   1      -6.992 -32.199  13.726  0.00  0.00    -0.648 OA
ENDBRANCH   7  10
ENDBRANCH   4   7
ENDBRANCH   1   4
BRANCH   1  13
ATOM     13  CD  CLT d   1      -9.184 -32.050  17.260  0.00  0.00    -0.058 A 
ATOM     14  CE1 CLT d   1      -8.356 -33.112  17.603  0.00  0.00    -0.077 A 
ATOM     15  CZ1 CLT d   1      -7.952 -33.258  18.923  0.00  0.00    -0.082 A 
ATOM     16  H7  CLT d   1      -8.029 -33.818  16.848  0.00  0.00     0.084 H 
ATOM     17  CH  CLT d   1      -8.355 -32.343  19.896  0.00  0.00    -0.083 A 
ATOM     18  H9  CLT d   1      -7.317 -34.092  19.201  0.00  0.00     0.083 H 
ATOM     19  CZ2 CLT d   1      -9.174 -31.280  19.544  0.00  0.00    -0.082 A 
ATOM     20  H11 CLT d   1      -8.030 -32.462  20.923  0.00  0.00     0.083 H 
ATOM     21  CE2 CLT d   1      -9.581 -31.132  18.223  0.00  0.00    -0.077 A 
ATOM     22  H10 CLT d   1      -9.495 -30.568  20.296  0.00  0.00     0.083 H 
ATOM     23  H8  CLT d   1     -10.211 -30.296  17.943  0.00  0.00     0.084 H 
ENDBRANCH   1  13
TORSDOF 4
