REMARK WARNING: 32 MAX_TORS EXCEEDED!!!
REMARK  59 active torsions:
REMARK  status: ('A' for Active; 'I' for Inactive)
REMARK    1  A    between atoms: N_1  and  CA_2 
REMARK    2  A    between atoms: CA_2  and  C_3 
REMARK    3  A    between atoms: CA_2  and  CB_5 
REMARK       I    between atoms: C_3  and  N_13 
REMARK    4  A    between atoms: CB_5  and  CG_6 
REMARK    5  A    between atoms: CZ_11  and  OH_12 
REMARK    6  A    between atoms: CA_14  and  C_15 
REMARK       I    between atoms: C_15  and  N_20 
REMARK    7  A    between atoms: N_20  and  CA_21 
REMARK    8  A    between atoms: CA_21  and  C_22 
REMARK    9  A    between atoms: CA_21  and  CB_24 
REMARK       I    between atoms: C_22  and  N_27 
REMARK   10  A    between atoms: CB_24  and  CG1_25 
REMARK   11  A    between atoms: CB_24  and  CG2_26 
REMARK   12  A    between atoms: N_27  and  CA_28 
REMARK   13  A    between atoms: CA_28  and  C_29 
REMARK   14  A    between atoms: CA_28  and  CB_31 
REMARK       I    between atoms: C_29  and  N_36 
REMARK   15  A    between atoms: CB_31  and  CG_32 
REMARK   16  A    between atoms: CG_32  and  CD_33 
REMARK   17  A    between atoms: CD_33  and  CE_34 
REMARK   18  A    between atoms: CE_34  and  NZ_35 
REMARK   19  A    between atoms: N_36  and  CA_37 
REMARK   20  A    between atoms: CA_37  and  C_38 
REMARK   21  A    between atoms: CA_37  and  CB_40 
REMARK       I    between atoms: C_38  and  N_45 
REMARK   22  A    between atoms: CB_40  and  CG_41 
REMARK   23  A    between atoms: CG_41  and  CD_42 
REMARK   24  A    between atoms: CD_42  and  CE_43 
REMARK   25  A    between atoms: CE_43  and  NZ_44 
REMARK   26  A    between atoms: N_45  and  CA_46 
REMARK   27  A    between atoms: CA_46  and  C_47 
REMARK   28  A    between atoms: CA_46  and  CB_49 
REMARK       I    between atoms: C_47  and  N_54 
REMARK   29  A    between atoms: CB_49  and  CG_50 
REMARK   30  A    between atoms: CG_50  and  CD_51 
REMARK   31  A    between atoms: CD_51  and  CE_52 
REMARK   32  A    between atoms: CE_52  and  NZ_53 
REMARK   33  A    between atoms: N_54  and  CA_55 
REMARK   34  A    between atoms: CA_55  and  C_56 
REMARK   35  A    between atoms: CA_55  and  CB_58 
REMARK       I    between atoms: C_56  and  N_59 
REMARK   36  A    between atoms: N_59  and  CA_60 
REMARK   37  A    between atoms: CA_60  and  C_61 
REMARK   38  A    between atoms: CA_60  and  CB_63 
REMARK       I    between atoms: C_61  and  N_70 
REMARK   39  A    between atoms: CB_63  and  CG_64 
REMARK   40  A    between atoms: CG_64  and  CD_65 
REMARK   41  A    between atoms: CD_65  and  NE_66 
REMARK       I    between atoms: NE_66  and  CZ_67 
REMARK       I    between atoms: CZ_67  and  NH1_68 
REMARK       I    between atoms: CZ_67  and  NH2_69 
REMARK   42  A    between atoms: N_70  and  CA_71 
REMARK   43  A    between atoms: CA_71  and  CB_72 
REMARK   44  A    between atoms: CA_71  and  C_79 
REMARK   45  A    between atoms: CB_72  and  CG_73 
REMARK   46  A    between atoms: CG_73  and  CD_74 
REMARK   47  A    between atoms: CD_74  and  CE_75 
REMARK   48  A    between atoms: CE_75  and  NZ_76 
REMARK   49  A    between atoms: NZ_76  and  CH1_77 
REMARK   50  A    between atoms: NZ_76  and  CH2_78 
REMARK       I    between atoms: C_79  and  N_81 
REMARK   51  A    between atoms: N_81  and  CA_82 
REMARK   52  A    between atoms: CA_82  and  C_83 
REMARK   53  A    between atoms: CA_82  and  CB_85 
REMARK       I    between atoms: C_83  and  N_87 
REMARK   54  A    between atoms: CB_85  and  OG_86 
REMARK   55  A    between atoms: N_87  and  CA_88 
REMARK   56  A    between atoms: CA_88  and  C_89 
REMARK   57  A    between atoms: CA_88  and  CB_91 
REMARK       I    between atoms: C_89  and  N_92 
REMARK   58  A    between atoms: N_92  and  CA_93 
REMARK   59  A    between atoms: CA_93  and  C_94 
ROOT
ATOM      1  CA  LYS d   1      30.201  33.323  -5.905  0.00  0.00     0.089 C 
ATOM      2  H55 LYS d   1      30.741  33.857  -5.109  0.00  0.00     0.087 H 
ENDROOT
BRANCH   1   3
ATOM      3  N   LYS d   1      30.773  33.726  -7.197  0.00  0.00    -0.346 N 
ATOM      4  C   LYS d   1      31.401  34.887  -7.349  0.00  0.00     0.241 C 
ATOM      5  O   LYS d   1      31.693  35.626  -6.381  0.00  0.00    -0.271 OA
ATOM      6  H54 LYS d   1      30.688  33.111  -7.981  0.00  0.00     0.163 HD
BRANCH   4   7
ATOM      7  CA  LYS d   1      31.725  35.256  -8.808  0.00  0.00     0.089 C 
ATOM      8  H42 LYS d   1      32.407  34.495  -9.214  0.00  0.00     0.087 H 
BRANCH   7   9
ATOM      9  N   LYS d   1      30.450  35.243  -9.641  0.00  0.00    -0.346 N 
ATOM     10  C   LYS d   1      29.326  35.845  -9.222  0.00  0.00     0.241 C 
ATOM     11  O   LYS d   1      29.217  36.431  -8.134  0.00  0.00    -0.271 OA
ATOM     12  H41 LYS d   1      30.450  34.773 -10.524  0.00  0.00     0.163 HD
BRANCH  10  13
ATOM     13  CA  LYS d   1      28.141  35.856 -10.167  0.00  0.00     0.089 C 
ATOM     14  H29 LYS d   1      27.933  34.837 -10.525  0.00  0.00     0.087 H 
BRANCH  13  15
ATOM     15  N   LYS d   1      26.990  36.360  -9.416  0.00  0.00    -0.346 N 
ATOM     16  C   VAL d   1      25.721  36.117  -9.757  0.00  0.00     0.241 C 
ATOM     17  O   VAL d   1      25.395  35.459 -10.753  0.00  0.00    -0.271 OA
ATOM     18  H28 LYS d   1      27.163  36.917  -8.603  0.00  0.00     0.163 HD
BRANCH  16  19
ATOM     19  CA  VAL d   1      24.638  36.726  -8.861  0.00  0.00     0.092 C 
ATOM     20  H20 VAL d   1      24.020  35.897  -8.487  0.00  0.00     0.088 H 
BRANCH  19  21
ATOM     21  N   VAL d   1      25.171  37.416  -7.697  0.00  0.00    -0.346 N 
ATOM     22  C   PRO d   1      24.909  36.997  -6.468  0.00  0.00     0.241 C 
ATOM     23  O   PRO d   1      24.165  36.044  -6.201  0.00  0.00    -0.271 OA
ATOM     24  H19 VAL d   1      25.747  38.223  -7.827  0.00  0.00     0.163 HD
BRANCH  22  25
ATOM     25  CA  PRO d   1      25.609  37.763  -5.361  0.00  0.00     0.091 C 
ATOM     26  N   PRO d   1      24.819  37.881  -4.103  0.00  0.00    -0.337 N 
ATOM     27  C   TYR d   1      23.821  38.780  -4.176  0.00  0.00     0.251 C 
ATOM     28  CD  PRO d   1      25.367  37.063  -3.002  0.00  0.00    -0.001 C 
ATOM     29  O   TYR d   1      23.480  39.288  -5.224  0.00  0.00    -0.271 OA
ATOM     30  CG  PRO d   1      26.552  36.342  -3.661  0.00  0.00    -0.048 C 
ATOM     31  H17 PRO d   1      24.621  36.343  -2.636  0.00  0.00     0.064 H 
ATOM     32  H18 PRO d   1      25.704  37.697  -2.169  0.00  0.00     0.064 H 
ATOM     33  CB  PRO d   1      26.874  36.987  -4.937  0.00  0.00    -0.036 C 
ATOM     34  H15 PRO d   1      27.426  36.391  -2.995  0.00  0.00     0.035 H 
ATOM     35  H16 PRO d   1      26.286  35.290  -3.840  0.00  0.00     0.035 H 
ATOM     36  H13 PRO d   1      27.721  37.678  -4.812  0.00  0.00     0.036 H 
ATOM     37  H14 PRO d   1      27.128  36.230  -5.693  0.00  0.00     0.036 H 
ATOM     38  H12 PRO d   1      25.870  38.765  -5.732  0.00  0.00     0.087 H 
BRANCH  27  39
ATOM     39  CA  TYR d   1      23.120  39.191  -2.879  0.00  0.00     0.179 C 
ATOM     40  H4  TYR d   1      23.746  38.944  -2.009  0.00  0.00     0.099 H 
BRANCH  39  41
ATOM     41  N   TYR d   1      22.879  40.668  -2.927  0.00  0.00    -0.066 N 
ATOM     42  H1  TYR d   1      22.417  40.961  -2.080  0.00  0.00     0.275 HD
ATOM     43  H2  TYR d   1      22.297  40.888  -3.720  0.00  0.00     0.275 HD
ATOM     44  H3  TYR d   1      23.760  41.150  -3.013  0.00  0.00     0.275 HD
ENDBRANCH  39  41
BRANCH  39  45
ATOM     45  CB  TYR d   1      21.795  38.422  -2.802  0.00  0.00    -0.006 C 
ATOM     46  H5  TYR d   1      21.294  38.494  -3.778  0.00  0.00     0.043 H 
ATOM     47  H6  TYR d   1      21.165  38.890  -2.031  0.00  0.00     0.043 H 
BRANCH  45  48
ATOM     48  CG  TYR d   1      21.966  36.942  -2.454  0.00  0.00    -0.056 A 
ATOM     49  CD1 TYR d   1      22.119  36.540  -1.130  0.00  0.00    -0.074 A 
ATOM     50  CE1 TYR d   1      22.290  35.184  -0.763  0.00  0.00    -0.051 A 
ATOM     51  H7  TYR d   1      22.107  37.294  -0.351  0.00  0.00     0.084 H 
ATOM     52  CZ  TYR d   1      22.305  34.217  -1.731  0.00  0.00     0.065 A 
ATOM     53  H9  TYR d   1      22.409  34.913   0.280  0.00  0.00     0.087 H 
ATOM     54  CE2 TYR d   1      22.133  34.551  -3.073  0.00  0.00    -0.051 A 
ATOM     55  CD2 TYR d   1      21.979  35.949  -3.456  0.00  0.00    -0.074 A 
ATOM     56  H10 TYR d   1      22.114  33.774  -3.829  0.00  0.00     0.087 H 
ATOM     57  H8  TYR d   1      21.876  36.223  -4.500  0.00  0.00     0.084 H 
BRANCH  52  58
ATOM     58  OH  TYR d   1      22.436  32.895  -1.338  0.00  0.00    -0.361 OA
ATOM     59  H11 TYR d   1      21.657  32.413  -1.589  0.00  0.00     0.217 HD
ENDBRANCH  52  58
ENDBRANCH  45  48
ENDBRANCH  39  45
ENDBRANCH  27  39
ENDBRANCH  22  25
ENDBRANCH  19  21
BRANCH  19  60
ATOM     60  CB  VAL d   1      23.715  37.661  -9.704  0.00  0.00    -0.033 C 
ATOM     61  H21 VAL d   1      23.254  37.059 -10.501  0.00  0.00     0.042 H 
BRANCH  60  62
ATOM     62  CG1 VAL d   1      22.614  38.217  -8.835  0.00  0.00    -0.071 C 
ATOM     63  H22 VAL d   1      21.969  38.874  -9.436  0.00  0.00     0.028 H 
ATOM     64  H23 VAL d   1      23.055  38.793  -8.008  0.00  0.00     0.028 H 
ATOM     65  H24 VAL d   1      22.015  37.389  -8.427  0.00  0.00     0.028 H 
ENDBRANCH  60  62
BRANCH  60  66
ATOM     66  CG2 VAL d   1      24.505  38.779 -10.362  0.00  0.00    -0.071 C 
ATOM     67  H25 VAL d   1      25.299  38.347 -10.988  0.00  0.00     0.028 H 
ATOM     68  H26 VAL d   1      24.955  39.416  -9.586  0.00  0.00     0.028 H 
ATOM     69  H27 VAL d   1      23.833  39.384 -10.988  0.00  0.00     0.028 H 
ENDBRANCH  60  66
ENDBRANCH  19  60
ENDBRANCH  16  19
ENDBRANCH  13  15
BRANCH  13  70
ATOM     70  CB  LYS d   1      28.459  36.761 -11.367  0.00  0.00    -0.038 C 
ATOM     71  H30 LYS d   1      27.624  36.699 -12.080  0.00  0.00     0.036 H 
ATOM     72  H31 LYS d   1      29.378  36.392 -11.846  0.00  0.00     0.036 H 
BRANCH  70  73
ATOM     73  CG  LYS d   1      28.663  38.211 -10.998  0.00  0.00    -0.061 C 
ATOM     74  H32 LYS d   1      29.590  38.299 -10.412  0.00  0.00     0.033 H 
ATOM     75  H33 LYS d   1      27.810  38.543 -10.388  0.00  0.00     0.033 H 
BRANCH  73  76
ATOM     76  CD  LYS d   1      28.771  39.117 -12.225  0.00  0.00    -0.043 C 
ATOM     77  H34 LYS d   1      27.806  39.127 -12.754  0.00  0.00     0.035 H 
ATOM     78  H35 LYS d   1      29.552  38.728 -12.895  0.00  0.00     0.035 H 
BRANCH  76  79
ATOM     79  CE  LYS d   1      29.133  40.552 -11.803  0.00  0.00     0.080 C 
ATOM     80  H36 LYS d   1      30.073  40.523 -11.233  0.00  0.00     0.075 H 
ATOM     81  H37 LYS d   1      28.328  40.943 -11.163  0.00  0.00     0.075 H 
BRANCH  79  82
ATOM     82  NZ  LYS d   1      29.309  41.480 -12.969  0.00  0.00    -0.079 N 
ATOM     83  H38 LYS d   1      29.544  42.401 -12.633  0.00  0.00     0.274 HD
ATOM     84  H39 LYS d   1      28.451  41.523 -13.496  0.00  0.00     0.274 HD
ATOM     85  H40 LYS d   1      30.050  41.139 -13.561  0.00  0.00     0.274 HD
ENDBRANCH  79  82
ENDBRANCH  76  79
ENDBRANCH  73  76
ENDBRANCH  70  73
ENDBRANCH  13  70
ENDBRANCH  10  13
ENDBRANCH   7   9
BRANCH   7  86
ATOM     86  CB  LYS d   1      32.438  36.623  -8.882  0.00  0.00    -0.038 C 
ATOM     87  H43 LYS d   1      31.907  37.326  -8.224  0.00  0.00     0.036 H 
ATOM     88  H44 LYS d   1      32.388  36.983  -9.920  0.00  0.00     0.036 H 
BRANCH  86  89
ATOM     89  CG  LYS d   1      33.931  36.581  -8.450  0.00  0.00    -0.061 C 
ATOM     90  H45 LYS d   1      34.472  35.867  -9.089  0.00  0.00     0.033 H 
ATOM     91  H46 LYS d   1      33.995  36.256  -7.401  0.00  0.00     0.033 H 
BRANCH  89  92
ATOM     92  CD  LYS d   1      34.568  37.955  -8.586  0.00  0.00    -0.043 C 
ATOM     93  H47 LYS d   1      34.145  38.461  -9.467  0.00  0.00     0.035 H 
ATOM     94  H48 LYS d   1      35.654  37.836  -8.717  0.00  0.00     0.035 H 
BRANCH  92  95
ATOM     95  CE  LYS d   1      34.302  38.828  -7.323  0.00  0.00     0.080 C 
ATOM     96  H49 LYS d   1      34.673  38.316  -6.423  0.00  0.00     0.075 H 
ATOM     97  H50 LYS d   1      33.224  39.022  -7.216  0.00  0.00     0.075 H 
BRANCH  95  98
ATOM     98  NZ  LYS d   1      35.044  40.122  -7.526  0.00  0.00    -0.079 N 
ATOM     99  H51 LYS d   1      34.899  40.721  -6.728  0.00  0.00     0.274 HD
ATOM    100  H52 LYS d   1      34.701  40.579  -8.356  0.00  0.00     0.274 HD
ATOM    101  H53 LYS d   1      36.029  39.932  -7.629  0.00  0.00     0.274 HD
ENDBRANCH  95  98
ENDBRANCH  92  95
ENDBRANCH  89  92
ENDBRANCH  86  89
ENDBRANCH   7  86
ENDBRANCH   4   7
ENDBRANCH   1   3
BRANCH   1 102
ATOM    102  C   LYS d   1      30.346  31.810  -5.661  0.00  0.00     0.241 C 
ATOM    103  O   LYS d   1      30.649  31.072  -6.583  0.00  0.00    -0.271 OA
ATOM    104  N   ALA d   1      30.141  31.389  -4.420  0.00  0.00    -0.346 N 
ATOM    105  H67 ALA d   1      29.963  32.066  -3.706  0.00  0.00     0.163 HD
BRANCH 104 106
ATOM    106  CA  ALA d   1      30.165  29.973  -4.054  0.00  0.00     0.086 C 
ATOM    107  H68 ALA d   1      29.706  29.391  -4.867  0.00  0.00     0.086 H 
BRANCH 106 108
ATOM    108  C   ALA d   1      29.361  29.750  -2.783  0.00  0.00     0.240 C 
ATOM    109  O   ALA d   1      29.132  30.670  -1.969  0.00  0.00    -0.271 OA
ATOM    110  N   ARG d   1      28.934  28.509  -2.630  0.00  0.00    -0.346 N 
ATOM    111  H72 ARG d   1      29.075  27.866  -3.383  0.00  0.00     0.163 HD
BRANCH 110 112
ATOM    112  CA  ARG d   1      28.275  28.028  -1.438  0.00  0.00     0.089 C 
ATOM    113  H73 ARG d   1      27.818  28.857  -0.877  0.00  0.00     0.087 H 
BRANCH 112 114
ATOM    114  C   ARG d   1      29.365  27.366  -0.591  0.00  0.00     0.241 C 
ATOM    115  O   ARG d   1      30.491  27.155  -1.047  0.00  0.00    -0.271 OA
ATOM    116  N   MLY d   1      29.187  27.509   0.870  0.00  0.00    -0.346 N 
ATOM    117  H85 MLY d   1      28.394  28.016   1.207  0.00  0.00     0.163 HD
BRANCH 116 118
ATOM    118  CA  MLY d   1      30.123  26.939   1.848  0.00  0.00     0.089 C 
ATOM    119  H86 MLY d   1      31.131  26.886   1.410  0.00  0.00     0.087 H 
BRANCH 118 120
ATOM    120  CB  MLY d   1      30.144  27.846   3.063  0.00  0.00    -0.038 C 
ATOM    121  H87 MLY d   1      30.590  27.312   3.915  0.00  0.00     0.036 H 
ATOM    122  H88 MLY d   1      29.117  28.147   3.317  0.00  0.00     0.036 H 
BRANCH 120 123
ATOM    123  CG  MLY d   1      30.978  29.087   2.742  0.00  0.00    -0.061 C 
ATOM    124  H89 MLY d   1      30.504  29.640   1.917  0.00  0.00     0.033 H 
ATOM    125  H90 MLY d   1      31.990  28.777   2.442  0.00  0.00     0.033 H 
BRANCH 123 126
ATOM    126  CD  MLY d   1      31.072  30.001   3.978  0.00  0.00    -0.042 C 
ATOM    127  H91 MLY d   1      31.508  29.447   4.822  0.00  0.00     0.035 H 
ATOM    128  H92 MLY d   1      30.070  30.362   4.255  0.00  0.00     0.035 H 
BRANCH 126 129
ATOM    129  CE  MLY d   1      31.972  31.188   3.611  0.00  0.00     0.083 C 
ATOM    130  H93 MLY d   1      31.518  31.752   2.783  0.00  0.00     0.075 H 
ATOM    131  H94 MLY d   1      32.961  30.819   3.304  0.00  0.00     0.075 H 
BRANCH 129 132
ATOM    132  NZ  MLY d   1      32.118  32.074   4.795  0.00  0.00    -0.079 N 
ATOM    133  H95 MLY d   1      32.310  31.495   5.598  0.00  0.00     0.278 HD
BRANCH 132 134
ATOM    134  CH1 MLY d   1      33.262  33.000   4.593  0.00  0.00     0.066 C 
ATOM    135  H96 MLY d   1      33.365  33.653   5.472  0.00  0.00     0.068 H 
ATOM    136  H97 MLY d   1      33.083  33.615   3.699  0.00  0.00     0.068 H 
ATOM    137  H98 MLY d   1      34.186  32.418   4.458  0.00  0.00     0.068 H 
ENDBRANCH 132 134
BRANCH 132 138
ATOM    138  CH2 MLY d   1      30.876  32.857   5.074  0.00  0.00     0.066 C 
ATOM    139  H99 MLY d   1      30.033  32.166   5.223  0.00  0.00     0.068 H 
ATOM    140 0H10 MLY d   1      30.661  33.520   4.223  0.00  0.00     0.068 H 
ATOM    141 1H10 MLY d   1      31.020  33.461   5.982  0.00  0.00     0.068 H 
ENDBRANCH 132 138
ENDBRANCH 129 132
ENDBRANCH 126 129
ENDBRANCH 123 126
ENDBRANCH 120 123
ENDBRANCH 118 120
BRANCH 118 142
ATOM    142  C   MLY d   1      29.665  25.518   2.247  0.00  0.00     0.241 C 
ATOM    143  O   MLY d   1      28.516  25.224   2.641  0.00  0.00    -0.271 OA
ATOM    144  N   SER d   1      30.676  24.478   2.232  0.00  0.00    -0.344 N 
ATOM    145 2H10 SER d   1      31.495  24.657   1.687  0.00  0.00     0.163 HD
BRANCH 144 146
ATOM    146  CA  SER d   1      30.620  23.171   2.945  0.00  0.00     0.109 C 
ATOM    147 3H10 SER d   1      29.932  22.512   2.395  0.00  0.00     0.090 H 
BRANCH 146 148
ATOM    148  C   SER d   1      30.087  23.313   4.366  0.00  0.00     0.243 C 
ATOM    149  O   SER d   1      29.275  22.480   4.799  0.00  0.00    -0.271 OA
ATOM    150  N   ALA d   1      30.490  24.393   5.040  0.00  0.00    -0.346 N 
ATOM    151 7H10 ALA d   1      31.183  24.976   4.616  0.00  0.00     0.163 HD
BRANCH 150 152
ATOM    152  CA  ALA d   1      29.975  24.789   6.385  0.00  0.00     0.086 C 
ATOM    153 8H10 ALA d   1      30.257  23.976   7.071  0.00  0.00     0.086 H 
BRANCH 152 154
ATOM    154  C   ALA d   1      28.447  24.949   6.512  0.00  0.00     0.240 C 
ATOM    155  O   ALA d   1      27.910  24.809   7.615  0.00  0.00    -0.271 OA
ATOM    156  N   GLY d   1      27.767  25.285   5.410  0.00  0.00    -0.349 N 
ATOM    157 2H11 GLY d   1      28.280  25.509   4.581  0.00  0.00     0.163 HD
BRANCH 156 158
ATOM    158  CA  GLY d   1      26.303  25.340   5.363  0.00  0.00     0.075 C 
ATOM    159 3H11 GLY d   1      26.008  26.037   4.565  0.00  0.00     0.080 H 
ATOM    160 4H11 GLY d   1      25.939  25.715   6.331  0.00  0.00     0.080 H 
BRANCH 158 161
ATOM    161  C   GLY d   1      25.642  23.987   5.091  0.00  0.00     0.191 C 
ATOM    162  O   GLY d   1      26.322  22.962   4.841  0.00  0.00    -0.647 OA
ATOM    163  OXT GLY d   1      24.394  23.850   5.107  0.00  0.00    -0.647 OA
ENDBRANCH 158 161
ENDBRANCH 156 158
ENDBRANCH 152 154
BRANCH 152 164
ATOM    164  CB  ALA d   1      30.685  26.086   6.883  0.00  0.00    -0.049 C 
ATOM    165 9H10 ALA d   1      30.293  26.361   7.873  0.00  0.00     0.030 H 
ATOM    166 0H11 ALA d   1      30.494  26.904   6.173  0.00  0.00     0.030 H 
ATOM    167 1H11 ALA d   1      31.768  25.907   6.954  0.00  0.00     0.030 H 
ENDBRANCH 152 164
ENDBRANCH 150 152
ENDBRANCH 146 148
BRANCH 146 168
ATOM    168  CB  SER d   1      31.997  22.534   2.932  0.00  0.00     0.044 C 
ATOM    169 4H10 SER d   1      31.972  21.577   3.473  0.00  0.00     0.077 H 
ATOM    170 5H10 SER d   1      32.725  23.206   3.410  0.00  0.00     0.077 H 
BRANCH 168 171
ATOM    171  OG  SER d   1      32.354  22.317   1.600  0.00  0.00    -0.398 OA
ATOM    172 6H10 SER d   1      32.370  23.147   1.138  0.00  0.00     0.209 HD
ENDBRANCH 168 171
ENDBRANCH 146 168
ENDBRANCH 144 146
ENDBRANCH 118 142
ENDBRANCH 116 118
ENDBRANCH 112 114
BRANCH 112 173
ATOM    173  CB  ARG d   1      27.188  27.052  -1.886  0.00  0.00    -0.036 C 
ATOM    174  H74 ARG d   1      27.588  26.513  -2.757  0.00  0.00     0.036 H 
ATOM    175  H75 ARG d   1      26.326  27.661  -2.196  0.00  0.00     0.036 H 
BRANCH 173 176
ATOM    176  CG  ARG d   1      26.663  26.015  -0.946  0.00  0.00    -0.048 C 
ATOM    177  H76 ARG d   1      26.351  26.492  -0.005  0.00  0.00     0.035 H 
ATOM    178  H77 ARG d   1      27.447  25.272  -0.738  0.00  0.00     0.035 H 
BRANCH 176 179
ATOM    179  CD  ARG d   1      25.441  25.316  -1.610  0.00  0.00     0.009 C 
ATOM    180  H78 ARG d   1      24.527  25.663  -1.106  0.00  0.00     0.064 H 
ATOM    181  H79 ARG d   1      25.546  24.230  -1.473  0.00  0.00     0.064 H 
BRANCH 179 182
ATOM    182  NE  ARG d   1      25.311  25.592  -3.049  0.00  0.00    -0.227 N 
ATOM    183  CZ  ARG d   1      25.611  24.725  -4.028  0.00  0.00     0.665 C 
ATOM    184  NH1 ARG d   1      26.052  23.486  -3.743  0.00  0.00    -0.235 N 
ATOM    185  NH2 ARG d   1      25.452  25.098  -5.304  0.00  0.00    -0.235 N 
ATOM    186  H81 ARG d   1      26.278  22.832  -4.506  0.00  0.00     0.174 HD
ATOM    187  H82 ARG d   1      26.163  23.192  -2.762  0.00  0.00     0.174 HD
ATOM    188  H83 ARG d   1      25.115  26.046  -5.525  0.00  0.00     0.174 HD
ATOM    189  H84 ARG d   1      25.667  24.437  -6.064  0.00  0.00     0.174 HD
ATOM    190  H80 ARG d   1      24.963  26.521  -3.326  0.00  0.00     0.177 HD
ENDBRANCH 179 182
ENDBRANCH 176 179
ENDBRANCH 173 176
ENDBRANCH 112 173
ENDBRANCH 110 112
ENDBRANCH 106 108
BRANCH 106 191
ATOM    191  CB  ALA d   1      31.632  29.491  -3.868  0.00  0.00    -0.049 C 
ATOM    192  H69 ALA d   1      31.636  28.426  -3.593  0.00  0.00     0.030 H 
ATOM    193  H70 ALA d   1      32.112  30.077  -3.071  0.00  0.00     0.030 H 
ATOM    194  H71 ALA d   1      32.185  29.629  -4.809  0.00  0.00     0.030 H 
ENDBRANCH 106 191
ENDBRANCH 104 106
ENDBRANCH   1 102
BRANCH   1 195
ATOM    195  CB  LYS d   1      28.712  33.703  -5.832  0.00  0.00    -0.038 C 
ATOM    196  H56 LYS d   1      28.623  34.788  -5.990  0.00  0.00     0.036 H 
ATOM    197  H57 LYS d   1      28.338  33.446  -4.830  0.00  0.00     0.036 H 
BRANCH 195 198
ATOM    198  CG  LYS d   1      27.841  32.994  -6.867  0.00  0.00    -0.061 C 
ATOM    199  H58 LYS d   1      27.911  31.907  -6.713  0.00  0.00     0.033 H 
ATOM    200  H59 LYS d   1      28.203  33.245  -7.875  0.00  0.00     0.033 H 
BRANCH 198 201
ATOM    201  CD  LYS d   1      26.345  33.434  -6.736  0.00  0.00    -0.043 C 
ATOM    202  H60 LYS d   1      26.317  34.522  -6.573  0.00  0.00     0.035 H 
ATOM    203  H61 LYS d   1      25.909  32.922  -5.866  0.00  0.00     0.035 H 
BRANCH 201 204
ATOM    204  CE  LYS d   1      25.485  33.107  -7.972  0.00  0.00     0.080 C 
ATOM    205  H62 LYS d   1      25.933  33.586  -8.855  0.00  0.00     0.075 H 
ATOM    206  H63 LYS d   1      24.471  33.503  -7.816  0.00  0.00     0.075 H 
BRANCH 204 207
ATOM    207  NZ  LYS d   1      25.399  31.641  -8.210  0.00  0.00    -0.079 N 
ATOM    208  H64 LYS d   1      24.831  31.465  -9.024  0.00  0.00     0.274 HD
ATOM    209  H65 LYS d   1      24.984  31.194  -7.407  0.00  0.00     0.274 HD
ATOM    210  H66 LYS d   1      26.324  31.270  -8.360  0.00  0.00     0.274 HD
ENDBRANCH 204 207
ENDBRANCH 201 204
ENDBRANCH 198 201
ENDBRANCH 195 198
ENDBRANCH   1 195
TORSDOF 59
