REMARK  3 active torsions:
REMARK  status: ('A' for Active; 'I' for Inactive)
REMARK    1  A    between atoms: C21_2  and  C18_4 
REMARK    2  A    between atoms: C3_7  and  O3_8 
REMARK    3  A    between atoms: C6_9  and  O6_11 
ROOT
ATOM      1  C18 DBH d   1      17.830  20.262   4.830  0.00  0.00     0.076 A 
ATOM      2  C15 DBH d   1      16.777  19.558   5.443  0.00  0.00    -0.064 A 
ATOM      3  C12 DBH d   1      16.487  18.224   5.084  0.00  0.00    -0.079 A 
ATOM      4  C3  DBH d   1      18.633  19.589   3.771  0.00  0.00     0.116 A 
ATOM      5  C6  DBH d   1      18.284  18.198   3.423  0.00  0.00     0.099 A 
ATOM      6  C9  DBH d   1      17.232  17.553   4.094  0.00  0.00    -0.048 A 
ATOM      7  H1  DBH d   1      16.179  20.048   6.203  0.00  0.00     0.085 H 
ATOM      8  H2  DBH d   1      15.675  17.705   5.580  0.00  0.00     0.083 H 
ATOM      9  H4  DBH d   1      16.990  16.526   3.847  0.00  0.00     0.087 H 
ENDROOT
BRANCH   1  10
ATOM     10  C21 DBH d   1      18.111  21.703   5.150  0.00  0.00     0.212 C 
ATOM     11  O17 DBH d   1      17.597  22.206   6.167  0.00  0.00    -0.644 OA
ATOM     12  O9  DBH d   1      18.795  22.392   4.347  0.00  0.00    -0.644 OA
ENDBRANCH   1  10
BRANCH   4  13
ATOM     13  O3  DBH d   1      19.648  20.223   3.112  0.00  0.00    -0.357 OA
ATOM     14  H3  DBH d   1      19.304  20.986   2.663  0.00  0.00     0.217 HD
ENDBRANCH   4  13
BRANCH   5  15
ATOM     15  O6  DBH d   1      19.018  17.586   2.459  0.00  0.00    -0.358 OA
ATOM     16  H5  DBH d   1      19.676  18.189   2.133  0.00  0.00     0.217 HD
ENDBRANCH   5  15
TORSDOF 3
