REMARK  30 active torsions:
REMARK  status: ('A' for Active; 'I' for Inactive)
REMARK    1  A    between atoms: C2_2  and  C1_1 
REMARK    2  A    between atoms: C3_3  and  C2_2 
REMARK    3  A    between atoms: C4_4  and  C3_3 
REMARK    4  A    between atoms: C5_5  and  C4_4 
REMARK    5  A    between atoms: C6_6  and  C5_5 
REMARK    6  A    between atoms: C7_7  and  C6_6 
REMARK    7  A    between atoms: C8_8  and  C7_7 
REMARK    8  A    between atoms: C9_9  and  C8_8 
REMARK    9  A    between atoms: C11_11  and  C10_10 
REMARK   10  A    between atoms: C12_12  and  C11_11 
REMARK   11  A    between atoms: C13_13  and  C12_12 
REMARK   12  A    between atoms: C14_14  and  C13_13 
REMARK   13  A    between atoms: C15_15  and  C14_14 
REMARK   14  A    between atoms: C16_16  and  C15_15 
REMARK   15  A    between atoms: C17_17  and  C16_16 
REMARK   16  A    between atoms: C18_18  and  C17_17 
REMARK   17  A    between atoms: O19_19  and  C18_18 
REMARK   18  A    between atoms: C20_20  and  O19_19 
REMARK   19  A    between atoms: C21_21  and  C20_20 
REMARK   20  A    between atoms: C22_22  and  C21_21 
REMARK   21  A    between atoms: C21_21  and  O33_31 
REMARK   22  A    between atoms: O23_23  and  C22_22 
REMARK   23  A    between atoms: P24_24  and  O23_23 
REMARK   24  A    between atoms: O35_35  and  P24_24 
REMARK   25  A    between atoms: C30_26  and  C31_27 
REMARK   26  A    between atoms: C30_26  and  O35_35 
REMARK   27  A    between atoms: C31_27  and  N32_28 
REMARK   28  A    between atoms: N32_28  and  C33_30 
REMARK   29  A    between atoms: N32_28  and  C34_32 
REMARK   30  A    between atoms: N32_28  and  C35_34 
ROOT
ATOM      1  C15 LSC d   1     -10.535  59.421  62.780  0.00  0.00    -0.065 C 
ATOM      2  H   LSC d   1     -11.123  60.231  63.212  0.00  0.00     0.033 H 
ATOM      3  H   LSC d   1     -10.607  59.425  61.692  0.00  0.00     0.033 H 
ENDROOT
BRANCH   1   4
ATOM      4  C14 LSC d   1     -11.072  58.093  63.302  0.00  0.00    -0.065 C 
ATOM      5  H   LSC d   1     -10.539  57.841  64.219  0.00  0.00     0.033 H 
ATOM      6  H   LSC d   1     -12.142  58.198  63.480  0.00  0.00     0.033 H 
BRANCH   4   7
ATOM      7  C13 LSC d   1     -10.857  56.969  62.292  0.00  0.00    -0.065 C 
ATOM      8  H   LSC d   1     -11.752  56.347  62.276  0.00  0.00     0.033 H 
ATOM      9  H   LSC d   1     -10.657  57.417  61.319  0.00  0.00     0.033 H 
BRANCH   7  10
ATOM     10  C12 LSC d   1      -9.668  56.088  62.667  0.00  0.00    -0.062 C 
ATOM     11  H   LSC d   1      -8.767  56.701  62.679  0.00  0.00     0.033 H 
ATOM     12  H   LSC d   1      -9.851  55.649  63.648  0.00  0.00     0.033 H 
BRANCH  10  13
ATOM     13  C11 LSC d   1      -9.485  54.964  61.652  0.00  0.00    -0.050 C 
ATOM     14  H   LSC d   1      -9.307  55.387  60.663  0.00  0.00     0.038 H 
ATOM     15  H   LSC d   1      -8.630  54.349  61.934  0.00  0.00     0.038 H 
BRANCH  13  16
ATOM     16  C10 LSC d   1     -10.734  54.118  61.627  0.00  0.00    -0.107 C 
ATOM     17  C9  LSC d   1     -11.081  53.460  60.528  0.00  0.00    -0.107 C 
ATOM     18  H   LSC d   1     -10.466  53.516  59.630  0.00  0.00     0.076 H 
ATOM     19  H   LSC d   1     -11.357  54.047  62.519  0.00  0.00     0.076 H 
BRANCH  17  20
ATOM     20  C8  LSC d   1     -12.342  52.633  60.544  0.00  0.00    -0.050 C 
ATOM     21  H   LSC d   1     -12.193  51.675  60.045  0.00  0.00     0.038 H 
ATOM     22  H   LSC d   1     -12.646  52.395  61.563  0.00  0.00     0.038 H 
BRANCH  20  23
ATOM     23  C7  LSC d   1     -13.399  53.469  59.833  0.00  0.00    -0.062 C 
ATOM     24  H   LSC d   1     -13.668  54.287  60.502  0.00  0.00     0.033 H 
ATOM     25  H   LSC d   1     -12.970  53.794  58.885  0.00  0.00     0.033 H 
BRANCH  23  26
ATOM     26  C6  LSC d   1     -14.676  52.709  59.513  0.00  0.00    -0.065 C 
ATOM     27  H   LSC d   1     -14.469  51.905  58.807  0.00  0.00     0.033 H 
ATOM     28  H   LSC d   1     -15.086  52.264  60.419  0.00  0.00     0.033 H 
BRANCH  26  29
ATOM     29  C5  LSC d   1     -15.671  53.693  58.913  0.00  0.00    -0.065 C 
ATOM     30  H   LSC d   1     -16.019  54.349  59.711  0.00  0.00     0.033 H 
ATOM     31  H   LSC d   1     -15.166  54.239  58.116  0.00  0.00     0.033 H 
BRANCH  29  32
ATOM     32  C4  LSC d   1     -16.886  52.999  58.311  0.00  0.00    -0.065 C 
ATOM     33  H   LSC d   1     -17.148  53.495  57.377  0.00  0.00     0.033 H 
ATOM     34  H   LSC d   1     -16.642  51.951  58.135  0.00  0.00     0.033 H 
BRANCH  32  35
ATOM     35  C3  LSC d   1     -18.073  53.076  59.259  0.00  0.00    -0.065 C 
ATOM     36  H   LSC d   1     -18.008  52.255  59.972  0.00  0.00     0.033 H 
ATOM     37  H   LSC d   1     -18.051  54.036  59.774  0.00  0.00     0.033 H 
BRANCH  35  38
ATOM     38  C2  LSC d   1     -19.383  52.959  58.492  0.00  0.00    -0.069 C 
ATOM     39  H   LSC d   1     -19.438  53.770  57.765  0.00  0.00     0.032 H 
ATOM     40  H   LSC d   1     -19.413  51.990  57.994  0.00  0.00     0.032 H 
BRANCH  38  41
ATOM     41  C1  LSC d   1     -20.568  53.063  59.431  0.00  0.00    -0.077 C 
ATOM     42  H   LSC d   1     -20.518  52.261  60.167  0.00  0.00     0.027 H 
ATOM     43  H   LSC d   1     -20.543  54.026  59.940  0.00  0.00     0.027 H 
ATOM     44  H   LSC d   1     -21.492  52.977  58.859  0.00  0.00     0.027 H 
ENDBRANCH  38  41
ENDBRANCH  35  38
ENDBRANCH  32  35
ENDBRANCH  29  32
ENDBRANCH  26  29
ENDBRANCH  23  26
ENDBRANCH  20  23
ENDBRANCH  17  20
ENDBRANCH  13  16
ENDBRANCH  10  13
ENDBRANCH   7  10
ENDBRANCH   4   7
ENDBRANCH   1   4
BRANCH   1  45
ATOM     45  C16 LSC d   1      -9.076  59.610  63.175  0.00  0.00    -0.057 C 
ATOM     46  H   LSC d   1      -9.002  60.492  63.811  0.00  0.00     0.033 H 
ATOM     47  H   LSC d   1      -8.484  59.721  62.266  0.00  0.00     0.033 H 
BRANCH  45  48
ATOM     48  C17 LSC d   1      -8.545  58.408  63.954  0.00  0.00     0.016 C 
ATOM     49  H   LSC d   1      -8.465  57.545  63.293  0.00  0.00     0.048 H 
ATOM     50  H   LSC d   1      -9.228  58.164  64.768  0.00  0.00     0.048 H 
BRANCH  48  51
ATOM     51  C18 LSC d   1      -7.184  58.754  64.513  0.00  0.00     0.258 C 
ATOM     52  O32 LSC d   1      -6.379  57.897  64.849  0.00  0.00    -0.265 OA
BRANCH  51  53
ATOM     53  O19 LSC d   1      -6.835  60.157  64.629  0.00  0.00    -0.319 OA
BRANCH  53  54
ATOM     54  C20 LSC d   1      -7.639  61.037  65.410  0.00  0.00     0.054 C 
ATOM     55  H   LSC d   1      -7.297  61.056  66.445  0.00  0.00     0.079 H 
ATOM     56  H   LSC d   1      -8.676  60.702  65.423  0.00  0.00     0.079 H 
BRANCH  54  57
ATOM     57  C21 LSC d   1      -7.527  62.423  64.779  0.00  0.00     0.077 C 
ATOM     58  H   LSC d   1      -6.515  62.555  64.395  0.00  0.00     0.089 H 
BRANCH  57  59
ATOM     59  C22 LSC d   1      -7.776  63.513  65.820  0.00  0.00     0.057 C 
ATOM     60  H   LSC d   1      -6.957  64.230  65.763  0.00  0.00     0.079 H 
ATOM     61  H   LSC d   1      -7.839  63.039  66.800  0.00  0.00     0.079 H 
BRANCH  59  62
ATOM     62  O23 LSC d   1      -8.997  64.212  65.584  0.00  0.00    -0.287 OA
BRANCH  62  63
ATOM     63  P24 LSC d   1      -9.271  65.073  64.247  0.00  0.00     0.408 P 
ATOM     64  O25 LSC d   1      -9.859  64.129  63.225  0.00  0.00    -0.624 OA
ATOM     65  O34 LSC d   1     -10.061  66.303  64.626  0.00  0.00    -0.624 OA
BRANCH  63  66
ATOM     66  O35 LSC d   1      -7.833  65.557  63.693  0.00  0.00    -0.288 OA
BRANCH  66  67
ATOM     67  C30 LSC d   1      -6.601  65.326  64.380  0.00  0.00     0.054 C 
ATOM     68  H   LSC d   1      -6.434  66.134  65.092  0.00  0.00     0.077 H 
ATOM     69  H   LSC d   1      -6.657  64.370  64.900  0.00  0.00     0.077 H 
BRANCH  67  70
ATOM     70  C31 LSC d   1      -5.442  65.287  63.389  0.00  0.00     0.104 C 
ATOM     71  H   LSC d   1      -5.755  64.728  62.507  0.00  0.00     0.079 H 
ATOM     72  H   LSC d   1      -4.587  64.812  63.870  0.00  0.00     0.079 H 
BRANCH  70  73
ATOM     73  N32 LSC d   1      -5.057  66.642  62.976  0.00  0.00    -0.077 N 
BRANCH  73  74
ATOM     74  C33 LSC d   1      -6.237  67.519  62.928  0.00  0.00     0.067 C 
ATOM     75  H   LSC d   1      -6.956  67.120  62.212  0.00  0.00     0.068 H 
ATOM     76  H   LSC d   1      -6.694  67.565  63.916  0.00  0.00     0.068 H 
ATOM     77  H   LSC d   1      -5.932  68.519  62.620  0.00  0.00     0.068 H 
ENDBRANCH  73  74
BRANCH  73  78
ATOM     78  C34 LSC d   1      -4.460  66.574  61.634  0.00  0.00     0.067 C 
ATOM     79  H   LSC d   1      -3.580  65.931  61.661  0.00  0.00     0.068 H 
ATOM     80  H   LSC d   1      -5.189  66.166  60.934  0.00  0.00     0.068 H 
ATOM     81  H   LSC d   1      -4.170  67.575  61.316  0.00  0.00     0.068 H 
ENDBRANCH  73  78
BRANCH  73  82
ATOM     82  C35 LSC d   1      -4.075  67.179  63.928  0.00  0.00     0.067 C 
ATOM     83  H   LSC d   1      -4.517  67.212  64.924  0.00  0.00     0.068 H 
ATOM     84  H   LSC d   1      -3.195  66.537  63.941  0.00  0.00     0.068 H 
ATOM     85  H   LSC d   1      -3.788  68.185  63.623  0.00  0.00     0.068 H 
ENDBRANCH  73  82
ENDBRANCH  70  73
ENDBRANCH  67  70
ENDBRANCH  66  67
ENDBRANCH  63  66
ENDBRANCH  62  63
ENDBRANCH  59  62
ENDBRANCH  57  59
BRANCH  57  86
ATOM     86  O33 LSC d   1      -8.453  62.537  63.688  0.00  0.00    -0.391 OA
ATOM     87  H   LSC d   1      -8.348  63.395  63.269  0.00  0.00     0.210 HD
ENDBRANCH  57  86
ENDBRANCH  54  57
ENDBRANCH  53  54
ENDBRANCH  51  53
ENDBRANCH  48  51
ENDBRANCH  45  48
ENDBRANCH   1  45
TORSDOF 30
