REMARK WARNING: 32 MAX_TORS EXCEEDED!!!
REMARK  48 active torsions:
REMARK  status: ('A' for Active; 'I' for Inactive)
REMARK    1  A    between atoms: N_1  and  CA_2 
REMARK    2  A    between atoms: CA_2  and  C_3 
REMARK    3  A    between atoms: CA_2  and  CB_5 
REMARK       I    between atoms: C_3  and  N_6 
REMARK    4  A    between atoms: N_6  and  CA_7 
REMARK    5  A    between atoms: CA_7  and  C_8 
REMARK    6  A    between atoms: CA_7  and  CB_10 
REMARK       I    between atoms: C_8  and  N_14 
REMARK    7  A    between atoms: CB_10  and  CG1_11 
REMARK    8  A    between atoms: CB_10  and  CG2_12 
REMARK    9  A    between atoms: CG1_11  and  CD1_13 
REMARK   10  A    between atoms: N_14  and  CA_15 
REMARK   11  A    between atoms: CA_15  and  C_16 
REMARK   12  A    between atoms: CA_15  and  CB_18 
REMARK       I    between atoms: C_16  and  N_22 
REMARK   13  A    between atoms: CB_18  and  CG1_19 
REMARK   14  A    between atoms: CB_18  and  CG2_20 
REMARK   15  A    between atoms: CG1_19  and  CD1_21 
REMARK   16  A    between atoms: N_22  and  CA_23 
REMARK   17  A    between atoms: CA_23  and  C_24 
REMARK       I    between atoms: C_24  and  N_26 
REMARK   18  A    between atoms: N_26  and  CA_27 
REMARK   19  A    between atoms: CA_27  and  C_28 
REMARK   20  A    between atoms: CA_27  and  CB_30 
REMARK       I    between atoms: C_28  and  N_34 
REMARK   21  A    between atoms: CB_30  and  CG_31 
REMARK   22  A    between atoms: CG_31  and  CD1_32 
REMARK   23  A    between atoms: CG_31  and  CD2_33 
REMARK   24  A    between atoms: N_34  and  CA_35 
REMARK   25  A    between atoms: CA_35  and  C_36 
REMARK   26  A    between atoms: CA_35  and  CB_38 
REMARK       I    between atoms: C_36  and  N_42 
REMARK   27  A    between atoms: CB_38  and  CG_39 
REMARK   28  A    between atoms: CG_39  and  SD_40 
REMARK   29  A    between atoms: SD_40  and  CE_41 
REMARK   30  A    between atoms: N_42  and  CA_43 
REMARK   31  A    between atoms: CA_43  and  C_44 
REMARK   32  A    between atoms: CA_43  and  CB_46 
REMARK       I    between atoms: C_44  and  N_49 
REMARK   33  A    between atoms: CB_46  and  CG1_47 
REMARK   34  A    between atoms: CB_46  and  CG2_48 
REMARK   35  A    between atoms: N_49  and  CA_50 
REMARK   36  A    between atoms: CA_50  and  C_51 
REMARK       I    between atoms: C_51  and  N_53 
REMARK   37  A    between atoms: N_53  and  CA_54 
REMARK   38  A    between atoms: CA_54  and  C_55 
REMARK       I    between atoms: C_55  and  N_57 
REMARK   39  A    between atoms: N_57  and  CA_58 
REMARK   40  A    between atoms: CA_58  and  C_59 
REMARK   41  A    between atoms: CA_58  and  CB_61 
REMARK       I    between atoms: C_59  and  N_64 
REMARK   42  A    between atoms: CB_61  and  CG1_62 
REMARK   43  A    between atoms: CB_61  and  CG2_63 
REMARK   44  A    between atoms: N_64  and  CA_65 
REMARK   45  A    between atoms: CA_65  and  C_66 
REMARK   46  A    between atoms: CA_65  and  CB_68 
REMARK   47  A    between atoms: CB_68  and  CG1_69 
REMARK   48  A    between atoms: CB_68  and  CG2_70 
ROOT
ATOM      1  C   LEU d   1     -20.871   3.260  20.954  0.00  0.00     0.241 C 
ATOM      2  O   LEU d   1     -19.641   3.222  20.774  0.00  0.00    -0.271 OA
ATOM      3  N   MET d   1     -21.517   4.275  21.545  0.00  0.00    -0.346 N 
ATOM      4  H44 MET d   1     -22.485   4.158  21.765  0.00  0.00     0.163 HD
ENDROOT
BRANCH   3   5
ATOM      5  CA  MET d   1     -20.875   5.548  21.885  0.00  0.00     0.090 C 
ATOM      6  H45 MET d   1     -19.788   5.388  21.927  0.00  0.00     0.087 H 
BRANCH   5   7
ATOM      7  C   MET d   1     -21.347   6.071  23.231  0.00  0.00     0.241 C 
ATOM      8  O   MET d   1     -21.696   7.240  23.350  0.00  0.00    -0.271 OA
ATOM      9  N   VAL d   1     -21.363   5.212  24.242  0.00  0.00    -0.346 N 
ATOM     10  H53 VAL d   1     -21.095   4.262  24.080  0.00  0.00     0.163 HD
BRANCH   9  11
ATOM     11  CA  VAL d   1     -21.764   5.622  25.587  0.00  0.00     0.092 C 
ATOM     12  H54 VAL d   1     -22.489   6.441  25.475  0.00  0.00     0.088 H 
BRANCH  11  13
ATOM     13  C   VAL d   1     -20.594   6.139  26.441  0.00  0.00     0.241 C 
ATOM     14  O   VAL d   1     -20.826   6.736  27.500  0.00  0.00    -0.271 OA
ATOM     15  N   GLY d   1     -19.359   5.886  25.999  0.00  0.00    -0.351 N 
ATOM     16  H62 GLY d   1     -19.249   5.409  25.127  0.00  0.00     0.163 HD
BRANCH  15  17
ATOM     17  CA  GLY d   1     -18.160   6.279  26.741  0.00  0.00     0.069 C 
ATOM     18  H63 GLY d   1     -17.399   5.497  26.600  0.00  0.00     0.078 H 
ATOM     19  H64 GLY d   1     -18.424   6.345  27.807  0.00  0.00     0.078 H 
BRANCH  17  20
ATOM     20  C   GLY d   1     -17.551   7.613  26.321  0.00  0.00     0.235 C 
ATOM     21  O   GLY d   1     -16.631   8.113  26.982  0.00  0.00    -0.272 OA
ATOM     22  N   GLY d   1     -18.055   8.169  25.214  0.00  0.00    -0.351 N 
ATOM     23  H65 GLY d   1     -18.803   7.703  24.742  0.00  0.00     0.163 HD
BRANCH  22  24
ATOM     24  CA  GLY d   1     -17.553   9.441  24.661  0.00  0.00     0.069 C 
ATOM     25  H66 GLY d   1     -16.454   9.397  24.684  0.00  0.00     0.078 H 
ATOM     26  H67 GLY d   1     -17.902  10.246  25.324  0.00  0.00     0.078 H 
BRANCH  24  27
ATOM     27  C   GLY d   1     -17.965   9.816  23.231  0.00  0.00     0.236 C 
ATOM     28  O   GLY d   1     -18.549   9.020  22.506  0.00  0.00    -0.272 OA
ATOM     29  N   VAL d   1     -17.665  11.056  22.848  0.00  0.00    -0.346 N 
ATOM     30  H68 VAL d   1     -17.243  11.671  23.514  0.00  0.00     0.163 HD
BRANCH  29  31
ATOM     31  CA  VAL d   1     -17.921  11.557  21.509  0.00  0.00     0.092 C 
ATOM     32  H69 VAL d   1     -18.331  10.719  20.926  0.00  0.00     0.088 H 
BRANCH  31  33
ATOM     33  C   VAL d   1     -16.679  12.068  20.770  0.00  0.00     0.241 C 
ATOM     34  O   VAL d   1     -16.728  12.245  19.542  0.00  0.00    -0.271 OA
ATOM     35  N   VAL d   1     -15.571  12.285  21.488  0.00  0.00    -0.344 N 
ATOM     36  H77 VAL d   1     -15.537  11.970  22.437  0.00  0.00     0.163 HD
BRANCH  35  37
ATOM     37  CA  VAL d   1     -14.386  12.982  20.914  0.00  0.00     0.099 C 
ATOM     38  H78 VAL d   1     -14.764  13.919  20.480  0.00  0.00     0.090 H 
BRANCH  37  39
ATOM     39  C   VAL d   1     -13.635  12.229  19.782  0.00  0.00     0.197 C 
ATOM     40  O   VAL d   1     -13.341  12.794  18.719  0.00  0.00    -0.646 OA
ATOM     41  OXT VAL d   1     -13.261  11.053  19.890  0.00  0.00    -0.646 OA
ENDBRANCH  37  39
BRANCH  37  42
ATOM     42  CB  VAL d   1     -13.335  13.354  22.011  0.00  0.00    -0.032 C 
ATOM     43  H79 VAL d   1     -12.920  12.422  22.423  0.00  0.00     0.042 H 
BRANCH  42  44
ATOM     44  CG1 VAL d   1     -12.203  14.156  21.393  0.00  0.00    -0.071 C 
ATOM     45  H80 VAL d   1     -11.469  14.413  22.171  0.00  0.00     0.028 H 
ATOM     46  H81 VAL d   1     -12.606  15.079  20.950  0.00  0.00     0.028 H 
ATOM     47  H82 VAL d   1     -11.714  13.557  20.611  0.00  0.00     0.028 H 
ENDBRANCH  42  44
BRANCH  42  48
ATOM     48  CG2 VAL d   1     -13.970  14.133  23.145  0.00  0.00    -0.071 C 
ATOM     49  H83 VAL d   1     -14.787  13.542  23.583  0.00  0.00     0.028 H 
ATOM     50  H84 VAL d   1     -14.370  15.082  22.759  0.00  0.00     0.028 H 
ATOM     51  H85 VAL d   1     -13.213  14.341  23.916  0.00  0.00     0.028 H 
ENDBRANCH  42  48
ENDBRANCH  37  42
ENDBRANCH  35  37
ENDBRANCH  31  33
BRANCH  31  52
ATOM     52  CB  VAL d   1     -18.969  12.686  21.530  0.00  0.00    -0.033 C 
ATOM     53  H70 VAL d   1     -19.004  13.136  20.527  0.00  0.00     0.042 H 
BRANCH  52  54
ATOM     54  CG1 VAL d   1     -20.374  12.120  21.841  0.00  0.00    -0.071 C 
ATOM     55  H71 VAL d   1     -21.106  12.941  21.851  0.00  0.00     0.028 H 
ATOM     56  H72 VAL d   1     -20.361  11.628  22.825  0.00  0.00     0.028 H 
ATOM     57  H73 VAL d   1     -20.654  11.389  21.068  0.00  0.00     0.028 H 
ENDBRANCH  52  54
BRANCH  52  58
ATOM     58  CG2 VAL d   1     -18.562  13.767  22.506  0.00  0.00    -0.071 C 
ATOM     59  H74 VAL d   1     -17.560  14.138  22.245  0.00  0.00     0.028 H 
ATOM     60  H75 VAL d   1     -18.547  13.354  23.525  0.00  0.00     0.028 H 
ATOM     61  H76 VAL d   1     -19.284  14.596  22.457  0.00  0.00     0.028 H 
ENDBRANCH  52  58
ENDBRANCH  31  52
ENDBRANCH  29  31
ENDBRANCH  24  27
ENDBRANCH  22  24
ENDBRANCH  17  20
ENDBRANCH  15  17
ENDBRANCH  11  13
BRANCH  11  62
ATOM     62  CB  VAL d   1     -22.453   4.464  26.360  0.00  0.00    -0.033 C 
ATOM     63  H55 VAL d   1     -22.912   4.887  27.266  0.00  0.00     0.042 H 
BRANCH  62  64
ATOM     64  CG1 VAL d   1     -23.569   3.837  25.521  0.00  0.00    -0.071 C 
ATOM     65  H56 VAL d   1     -24.041   3.021  26.089  0.00  0.00     0.028 H 
ATOM     66  H57 VAL d   1     -23.146   3.437  24.588  0.00  0.00     0.028 H 
ATOM     67  H58 VAL d   1     -24.323   4.602  25.283  0.00  0.00     0.028 H 
ENDBRANCH  62  64
BRANCH  62  68
ATOM     68  CG2 VAL d   1     -21.430   3.431  26.797  0.00  0.00    -0.071 C 
ATOM     69  H59 VAL d   1     -20.648   3.920  27.395  0.00  0.00     0.028 H 
ATOM     70  H60 VAL d   1     -20.976   2.966  25.909  0.00  0.00     0.028 H 
ATOM     71  H61 VAL d   1     -21.925   2.658  27.403  0.00  0.00     0.028 H 
ENDBRANCH  62  68
ENDBRANCH  11  62
ENDBRANCH   9  11
ENDBRANCH   5   7
BRANCH   5  72
ATOM     72  CB  MET d   1     -21.185   6.612  20.818  0.00  0.00    -0.030 C 
ATOM     73  H46 MET d   1     -20.815   7.580  21.187  0.00  0.00     0.037 H 
ATOM     74  H47 MET d   1     -22.277   6.660  20.695  0.00  0.00     0.037 H 
BRANCH  72  75
ATOM     75  CG  MET d   1     -20.570   6.366  19.451  0.00  0.00    -0.021 C 
ATOM     76  H48 MET d   1     -21.134   6.939  18.701  0.00  0.00     0.049 H 
ATOM     77  H49 MET d   1     -20.638   5.293  19.220  0.00  0.00     0.049 H 
BRANCH  75  78
ATOM     78  SD  MET d   1     -18.839   6.866  19.381  0.00  0.00    -0.173 SA
BRANCH  78  79
ATOM     79  CE  MET d   1     -18.563   6.993  17.604  0.00  0.00    -0.035 C 
ATOM     80  H50 MET d   1     -17.523   7.297  17.415  0.00  0.00     0.041 H 
ATOM     81  H51 MET d   1     -19.247   7.742  17.179  0.00  0.00     0.041 H 
ATOM     82  H52 MET d   1     -18.750   6.017  17.133  0.00  0.00     0.041 H 
ENDBRANCH  78  79
ENDBRANCH  75  78
ENDBRANCH  72  75
ENDBRANCH   5  72
ENDBRANCH   3   5
BRANCH   1  83
ATOM     83  CA  LEU d   1     -21.738   2.082  20.506  0.00  0.00     0.089 C 
ATOM     84  H34 LEU d   1     -21.180   1.155  20.703  0.00  0.00     0.087 H 
BRANCH  83  85
ATOM     85  N   LEU d   1     -23.011   2.013  21.240  0.00  0.00    -0.346 N 
ATOM     86  C   GLY d   1     -23.133   1.457  22.444  0.00  0.00     0.236 C 
ATOM     87  O   GLY d   1     -22.168   1.081  23.128  0.00  0.00    -0.272 OA
ATOM     88  H33 LEU d   1     -23.827   2.404  20.813  0.00  0.00     0.163 HD
BRANCH  86  89
ATOM     89  CA  GLY d   1     -24.560   1.330  22.971  0.00  0.00     0.069 C 
ATOM     90  H31 GLY d   1     -24.557   0.607  23.800  0.00  0.00     0.078 H 
ATOM     91  H32 GLY d   1     -24.877   2.315  23.344  0.00  0.00     0.078 H 
BRANCH  89  92
ATOM     92  N   GLY d   1     -25.542   0.879  21.972  0.00  0.00    -0.351 N 
ATOM     93  C   ILE d   1     -25.431  -0.292  21.347  0.00  0.00     0.241 C 
ATOM     94  O   ILE d   1     -24.459  -1.029  21.477  0.00  0.00    -0.271 OA
ATOM     95  H30 GLY d   1     -26.318   1.471  21.755  0.00  0.00     0.163 HD
BRANCH  93  96
ATOM     96  CA  ILE d   1     -26.586  -0.699  20.437  0.00  0.00     0.092 C 
ATOM     97  H20 ILE d   1     -27.142   0.202  20.138  0.00  0.00     0.088 H 
BRANCH  96  98
ATOM     98  N   ILE d   1     -26.067  -1.348  19.220  0.00  0.00    -0.346 N 
ATOM     99  C   ILE d   1     -25.637  -0.650  18.163  0.00  0.00     0.241 C 
ATOM    100  O   ILE d   1     -25.642   0.578  18.120  0.00  0.00    -0.271 OA
ATOM    101  H19 ILE d   1     -26.035  -2.347  19.183  0.00  0.00     0.163 HD
BRANCH  99 102
ATOM    102  CA  ILE d   1     -25.090  -1.458  16.982  0.00  0.00     0.092 C 
ATOM    103  H9  ILE d   1     -25.237  -2.520  17.228  0.00  0.00     0.088 H 
BRANCH 102 104
ATOM    104  N   ILE d   1     -25.754  -1.236  15.669  0.00  0.00    -0.346 N 
ATOM    105  C   ALA d   1     -26.888  -1.862  15.346  0.00  0.00     0.248 C 
ATOM    106  O   ALA d   1     -27.666  -2.293  16.207  0.00  0.00    -0.271 OA
ATOM    107  H8  ILE d   1     -25.341  -0.603  15.014  0.00  0.00     0.163 HD
BRANCH 105 108
ATOM    108  CA  ALA d   1     -27.221  -2.025  13.839  0.00  0.00     0.172 C 
ATOM    109  H4  ALA d   1     -26.730  -2.947  13.494  0.00  0.00     0.098 H 
BRANCH 108 110
ATOM    110  N   ALA d   1     -28.689  -2.188  13.626  0.00  0.00    -0.067 N 
ATOM    111  H1  ALA d   1     -28.876  -2.292  12.641  0.00  0.00     0.275 HD
ATOM    112  H2  ALA d   1     -29.172  -1.375  13.976  0.00  0.00     0.275 HD
ATOM    113  H3  ALA d   1     -29.011  -3.007  14.117  0.00  0.00     0.275 HD
ENDBRANCH 108 110
BRANCH 108 114
ATOM    114  CB  ALA d   1     -26.672  -0.865  12.986  0.00  0.00    -0.042 C 
ATOM    115  H5  ALA d   1     -25.590  -0.763  13.158  0.00  0.00     0.030 H 
ATOM    116  H6  ALA d   1     -27.178   0.070  13.269  0.00  0.00     0.030 H 
ATOM    117  H7  ALA d   1     -26.856  -1.074  11.922  0.00  0.00     0.030 H 
ENDBRANCH 108 114
ENDBRANCH 105 108
ENDBRANCH 102 104
BRANCH 102 118
ATOM    118  CB  ILE d   1     -23.566  -1.200  16.879  0.00  0.00    -0.030 C 
ATOM    119  H10 ILE d   1     -23.404  -0.148  16.600  0.00  0.00     0.043 H 
BRANCH 118 120
ATOM    120  CG1 ILE d   1     -22.950  -2.101  15.792  0.00  0.00    -0.063 C 
ATOM    121  H11 ILE d   1     -23.585  -2.042  14.896  0.00  0.00     0.033 H 
ATOM    122  H12 ILE d   1     -22.939  -3.135  16.167  0.00  0.00     0.033 H 
BRANCH 120 123
ATOM    123  CD1 ILE d   1     -21.530  -1.724  15.395  0.00  0.00    -0.076 C 
ATOM    124  H16 ILE d   1     -21.171  -2.415  14.618  0.00  0.00     0.027 H 
ATOM    125  H17 ILE d   1     -20.874  -1.788  16.275  0.00  0.00     0.027 H 
ATOM    126  H18 ILE d   1     -21.519  -0.696  15.004  0.00  0.00     0.027 H 
ENDBRANCH 120 123
ENDBRANCH 118 120
BRANCH 118 127
ATOM    127  CG2 ILE d   1     -22.895  -1.457  18.215  0.00  0.00    -0.071 C 
ATOM    128  H13 ILE d   1     -23.344  -0.808  18.982  0.00  0.00     0.028 H 
ATOM    129  H14 ILE d   1     -21.820  -1.239  18.133  0.00  0.00     0.028 H 
ATOM    130  H15 ILE d   1     -23.035  -2.510  18.499  0.00  0.00     0.028 H 
ENDBRANCH 118 127
ENDBRANCH 102 118
ENDBRANCH  99 102
ENDBRANCH  96  98
BRANCH  96 131
ATOM    131  CB  ILE d   1     -27.546  -1.633  21.242  0.00  0.00    -0.030 C 
ATOM    132  H21 ILE d   1     -27.075  -2.625  21.307  0.00  0.00     0.043 H 
BRANCH 131 133
ATOM    133  CG1 ILE d   1     -28.885  -1.792  20.514  0.00  0.00    -0.063 C 
ATOM    134  H22 ILE d   1     -28.685  -1.930  19.441  0.00  0.00     0.033 H 
ATOM    135  H23 ILE d   1     -29.474  -0.875  20.662  0.00  0.00     0.033 H 
BRANCH 133 136
ATOM    136  CD1 ILE d   1     -29.697  -2.969  21.006  0.00  0.00    -0.076 C 
ATOM    137  H27 ILE d   1     -30.641  -3.024  20.444  0.00  0.00     0.027 H 
ATOM    138  H28 ILE d   1     -29.915  -2.842  22.077  0.00  0.00     0.027 H 
ATOM    139  H29 ILE d   1     -29.126  -3.897  20.855  0.00  0.00     0.027 H 
ENDBRANCH 133 136
ENDBRANCH 131 133
BRANCH 131 140
ATOM    140  CG2 ILE d   1     -27.763  -1.111  22.697  0.00  0.00    -0.071 C 
ATOM    141  H24 ILE d   1     -26.789  -1.005  23.198  0.00  0.00     0.028 H 
ATOM    142  H25 ILE d   1     -28.386  -1.826  23.254  0.00  0.00     0.028 H 
ATOM    143  H26 ILE d   1     -28.267  -0.134  22.665  0.00  0.00     0.028 H 
ENDBRANCH 131 140
ENDBRANCH  96 131
ENDBRANCH  93  96
ENDBRANCH  89  92
ENDBRANCH  86  89
ENDBRANCH  83  85
BRANCH  83 144
ATOM    144  CB  LEU d   1     -22.017   2.174  18.992  0.00  0.00    -0.035 C 
ATOM    145  H35 LEU d   1     -22.618   3.082  18.835  0.00  0.00     0.037 H 
ATOM    146  H36 LEU d   1     -22.613   1.289  18.725  0.00  0.00     0.037 H 
BRANCH 144 147
ATOM    147  CG  LEU d   1     -20.851   2.238  17.997  0.00  0.00    -0.059 C 
ATOM    148  H37 LEU d   1     -20.313   3.182  18.166  0.00  0.00     0.038 H 
BRANCH 147 149
ATOM    149  CD1 LEU d   1     -19.866   1.097  18.209  0.00  0.00    -0.073 C 
ATOM    150  H38 LEU d   1     -19.048   1.179  17.478  0.00  0.00     0.028 H 
ATOM    151  H39 LEU d   1     -20.384   0.136  18.074  0.00  0.00     0.028 H 
ATOM    152  H40 LEU d   1     -19.455   1.152  19.228  0.00  0.00     0.028 H 
ENDBRANCH 147 149
BRANCH 147 153
ATOM    153  CD2 LEU d   1     -21.390   2.244  16.541  0.00  0.00    -0.073 C 
ATOM    154  H41 LEU d   1     -22.098   3.076  16.416  0.00  0.00     0.028 H 
ATOM    155  H42 LEU d   1     -21.903   1.293  16.336  0.00  0.00     0.028 H 
ATOM    156  H43 LEU d   1     -20.551   2.367  15.840  0.00  0.00     0.028 H 
ENDBRANCH 147 153
ENDBRANCH 144 147
ENDBRANCH  83 144
ENDBRANCH   1  83
TORSDOF 48
