REMARK  5 active torsions:
REMARK  status: ('A' for Active; 'I' for Inactive)
REMARK    1  A    between atoms: C10_5  and  C7_3 
REMARK    2  A    between atoms: C11_18  and  C10_5 
REMARK    3  A    between atoms: C3_15  and  C27_27 
REMARK    4  A    between atoms: C18_22  and  N14_19 
REMARK    5  A    between atoms: C18_22  and  C19_23 
ROOT
ATOM      1  N12 03M d   1      -9.771 -39.081  -1.273  0.00  0.00    -0.304 N 
ATOM      2  C13 03M d   1     -10.563 -39.870  -2.039  0.00  0.00     0.330 A 
ATOM      3  C15 03M d   1     -11.975 -38.419  -1.444  0.00  0.00     0.278 A 
ATOM      4  C11 03M d   1     -10.675 -38.146  -0.829  0.00  0.00     0.106 A 
ATOM      5  N14 03M d   1     -11.899 -39.509  -2.216  0.00  0.00    -0.260 N 
ATOM      6  O16 03M d   1     -10.020 -40.877  -2.650  0.00  0.00    -0.246 OA
ATOM      7  O17 03M d   1     -13.006 -37.676  -1.176  0.00  0.00    -0.265 OA
ATOM      8  H4  03M d   1      -8.792 -39.158  -1.082  0.00  0.00     0.171 HD
ENDROOT
BRANCH   4   9
ATOM      9  C10 03M d   1     -10.463 -36.984   0.016  0.00  0.00    -0.040 C 
ATOM     10  H3  03M d   1     -11.350 -36.375   0.182  0.00  0.00     0.088 H 
BRANCH   9  11
ATOM     11  C7  03M d   1      -9.264 -36.501   0.675  0.00  0.00    -0.006 A 
ATOM     12  C6  03M d   1      -8.053 -37.122   0.589  0.00  0.00    -0.012 A 
ATOM     13  N5  03M d   1      -7.253 -36.288   1.288  0.00  0.00    -0.364 N 
ATOM     14  H2  03M d   1      -7.796 -38.053   0.085  0.00  0.00     0.112 H 
ATOM     15  C9  03M d   1      -7.905 -35.208   1.754  0.00  0.00     0.051 A 
ATOM     16  H9  03M d   1      -6.250 -36.461   1.447  0.00  0.00     0.165 HD
ATOM     17  C8  03M d   1      -9.228 -35.314   1.356  0.00  0.00     0.003 A 
ATOM     18  C3  03M d   1      -7.497 -34.113   2.468  0.00  0.00    -0.013 A 
ATOM     19  C4  03M d   1     -10.183 -34.351   1.674  0.00  0.00    -0.068 A 
ATOM     20  C1  03M d   1      -9.766 -33.281   2.422  0.00  0.00    -0.060 A 
ATOM     21  H1  03M d   1     -11.211 -34.444   1.344  0.00  0.00     0.085 H 
ATOM     22  C2  03M d   1      -8.436 -33.182   2.807  0.00  0.00     0.042 A 
ATOM     23  H8  03M d   1     -10.474 -32.513   2.713  0.00  0.00     0.086 H 
ATOM     24 CL   03M d   1      -8.020 -31.777   3.779  0.00  0.00    -0.084 Cl
BRANCH  18  25
ATOM     25  C27 03M d   1      -6.064 -33.989   2.915  0.00  0.00    -0.047 C 
ATOM     26  H12 03M d   1      -5.933 -33.048   3.470  0.00  0.00     0.033 H 
ATOM     27  H13 03M d   1      -5.404 -33.990   2.035  0.00  0.00     0.033 H 
ATOM     28  H14 03M d   1      -5.808 -34.838   3.566  0.00  0.00     0.033 H 
ENDBRANCH  18  25
ENDBRANCH   9  11
ENDBRANCH   4   9
BRANCH   5  29
ATOM     29  C18 03M d   1     -12.970 -40.181  -3.004  0.00  0.00     0.031 C 
ATOM     30  H10 03M d   1     -12.490 -40.687  -3.854  0.00  0.00     0.072 H 
ATOM     31  H11 03M d   1     -13.648 -39.400  -3.378  0.00  0.00     0.072 H 
BRANCH  29  32
ATOM     32  C19 03M d   1     -13.820 -41.218  -2.269  0.00  0.00    -0.037 A 
ATOM     33  C20 03M d   1     -15.041 -40.886  -1.633  0.00  0.00    -0.072 A 
ATOM     34  C21 03M d   1     -15.781 -41.866  -0.954  0.00  0.00    -0.042 A 
ATOM     35  H5  03M d   1     -15.407 -39.866  -1.671  0.00  0.00     0.084 H 
ATOM     36  C22 03M d   1     -15.355 -43.206  -0.966  0.00  0.00     0.154 A 
ATOM     37  H6  03M d   1     -16.683 -41.590  -0.419  0.00  0.00     0.088 H 
ATOM     38  C23 03M d   1     -14.161 -43.522  -1.612  0.00  0.00     0.155 A 
ATOM     39  F26 03M d   1     -16.048 -44.198  -0.316  0.00  0.00    -0.203 F 
ATOM     40  C24 03M d   1     -13.417 -42.554  -2.272  0.00  0.00    -0.035 A 
ATOM     41  F25 03M d   1     -13.723 -44.790  -1.624  0.00  0.00    -0.203 F 
ATOM     42  H7  03M d   1     -12.512 -42.839  -2.796  0.00  0.00     0.089 H 
ENDBRANCH  29  32
ENDBRANCH   5  29
TORSDOF 5
