REMARK  18 active torsions:
REMARK  status: ('A' for Active; 'I' for Inactive)
REMARK    1  A    between atoms: CAX_28  and  S_1 
REMARK    2  A    between atoms: OBG_37  and  CAA_5 
REMARK    3  A    between atoms: OBH_38  and  CAB_6 
REMARK    4  A    between atoms: CBI_39  and  NAC_7 
REMARK    5  A    between atoms: CBJ_40  and  NAD_8 
REMARK    6  A    between atoms: CBM_43  and  OAK_15 
REMARK    7  A    between atoms: CBN_44  and  OAL_16 
REMARK    8  A    between atoms: CAR_22  and  OBG_37 
REMARK    9  A    between atoms: NBE_35  and  NBC_33 
REMARK   10  A    between atoms: NBC_33  and  CBO_45 
REMARK   11  A    between atoms: NBD_34  and  NBF_36 
REMARK   12  A    between atoms: CBQ_47  and  NBE_35 
REMARK   13  A    between atoms: NBF_36  and  CBR_48 
REMARK   14  A    between atoms: CBT_50  and  OBH_38 
REMARK   15  A    between atoms: CBL_42  and  CBK_41 
REMARK   16  A    between atoms: CBU_51  and  SCB_58 
REMARK   17  A    between atoms: CBV_52  and  SCD_60 
REMARK   18  A    between atoms: CBW_53  and  SCC_59 
ROOT
ATOM      1  CAQ Y0X d   1     -21.527   6.429   6.436  0.00  0.00    -0.070 A 
ATOM      2  CAS Y0X d   1     -20.394   5.833   7.020  0.00  0.00    -0.052 A 
ATOM      3  CBA Y0X d   1     -22.750   4.317   6.780  0.00  0.00    -0.038 A 
ATOM      4  CBL Y0X d   1     -22.710   5.666   6.373  0.00  0.00    -0.023 A 
ATOM      5  CBR Y0X d   1     -20.413   4.497   7.401  0.00  0.00     0.081 A 
ATOM      6  CBT Y0X d   1     -21.555   3.734   7.293  0.00  0.00     0.097 A 
ATOM      7  H14 Y0X d   1     -21.491   7.441   6.048  0.00  0.00     0.084 H 
ATOM      8  H15 Y0X d   1     -19.497   6.422   7.174  0.00  0.00     0.087 H 
ATOM      9  H22 Y0X d   1     -23.664   3.739   6.705  0.00  0.00     0.089 H 
ENDROOT
BRANCH   4  10
ATOM     10  CBK Y0X d   1     -24.010   6.125   5.762  0.00  0.00    -0.023 A 
ATOM     11  CAP Y0X d   1     -23.876   6.677   4.459  0.00  0.00    -0.038 A 
ATOM     12  CAR Y0X d   1     -25.058   7.037   3.754  0.00  0.00     0.099 A 
ATOM     13  H13 Y0X d   1     -22.898   6.820   4.014  0.00  0.00     0.089 H 
ATOM     14  CBQ Y0X d   1     -26.311   6.880   4.374  0.00  0.00     0.112 A 
ATOM     15  CBS Y0X d   1     -26.439   6.257   5.634  0.00  0.00    -0.050 A 
ATOM     16  CAZ Y0X d   1     -25.272   5.870   6.335  0.00  0.00    -0.070 A 
ATOM     17  H26 Y0X d   1     -27.419   6.077   6.060  0.00  0.00     0.087 H 
ATOM     18  H21 Y0X d   1     -25.348   5.383   7.301  0.00  0.00     0.084 H 
BRANCH  12  19
ATOM     19  OBG Y0X d   1     -24.991   7.545   2.466  0.00  0.00    -0.353 OA
BRANCH  19  20
ATOM     20  CAA Y0X d   1     -23.784   7.563   1.651  0.00  0.00     0.010 C 
ATOM     21  H1  Y0X d   1     -24.007   8.019   0.675  0.00  0.00     0.066 H 
ATOM     22  H2  Y0X d   1     -23.427   6.533   1.501  0.00  0.00     0.066 H 
ATOM     23  H3  Y0X d   1     -23.006   8.150   2.161  0.00  0.00     0.066 H 
ENDBRANCH  19  20
ENDBRANCH  12  19
BRANCH  14  24
ATOM     24  NBE Y0X d   1     -27.495   7.202   3.654  0.00  0.00    -0.147 NA
BRANCH  24  25
ATOM     25  NBC Y0X d   1     -28.665   7.245   4.257  0.00  0.00    -0.147 NA
BRANCH  25  26
ATOM     26  CBO Y0X d   1     -29.862   7.463   3.545  0.00  0.00     0.113 A 
ATOM     27  CAT Y0X d   1     -31.090   7.439   4.238  0.00  0.00    -0.050 A 
ATOM     28  CAW Y0X d   1     -32.264   7.636   3.532  0.00  0.00    -0.068 A 
ATOM     29  H16 Y0X d   1     -31.114   7.269   5.308  0.00  0.00     0.087 H 
ATOM     30  CBX Y0X d   1     -32.225   7.806   2.131  0.00  0.00     0.004 A 
ATOM     31  H19 Y0X d   1     -33.213   7.660   4.055  0.00  0.00     0.085 H 
ATOM     32  CAX Y0X d   1     -33.502   7.979   1.386  0.00  0.00     0.093 A 
ATOM     33  CBZ Y0X d   1     -31.021   7.794   1.421  0.00  0.00     0.039 A 
ATOM     34  CAV Y0X d   1     -33.476   8.128  -0.008  0.00  0.00    -0.033 A 
ATOM     35  CBU Y0X d   1     -32.292   8.120  -0.777  0.00  0.00     0.109 A 
ATOM     36  H18 Y0X d   1     -34.420   8.257  -0.525  0.00  0.00     0.088 H 
ATOM     37  CBI Y0X d   1     -30.999   7.972  -0.076  0.00  0.00     0.064 A 
ATOM     38  CBM Y0X d   1     -29.834   7.623   2.146  0.00  0.00     0.109 A 
BRANCH  32  39
ATOM     39  S   Y0X d   1     -34.915   7.988   2.226  0.00  0.00     0.138 S 
ATOM     40  O1  Y0X d   1     -35.106   6.626   2.745  0.00  0.00    -0.591 OA
ATOM     41  O2  Y0X d   1     -35.984   8.288   1.240  0.00  0.00    -0.591 OA
ATOM     42  O4  Y0X d   1     -34.889   9.084   3.209  0.00  0.00    -0.591 OA
ENDBRANCH  32  39
BRANCH  35  43
ATOM     43  SCB Y0X d   1     -32.358   8.292  -2.401  0.00  0.00     0.140 S 
ATOM     44  OAE Y0X d   1     -33.830   8.228  -2.689  0.00  0.00    -0.591 OA
ATOM     45  OAF Y0X d   1     -31.745   7.124  -3.125  0.00  0.00    -0.591 OA
ATOM     46  OAM Y0X d   1     -31.755   9.650  -2.593  0.00  0.00    -0.591 OA
ENDBRANCH  35  43
BRANCH  37  47
ATOM     47  NAC Y0X d   1     -29.841   7.975  -0.805  0.00  0.00    -0.397 N 
ATOM     48  H7  Y0X d   1     -29.876   8.100  -1.827  0.00  0.00     0.156 HD
ATOM     49  H8  Y0X d   1     -28.934   7.852  -0.332  0.00  0.00     0.156 HD
ENDBRANCH  37  47
BRANCH  38  50
ATOM     50  OAK Y0X d   1     -28.648   7.653   1.462  0.00  0.00    -0.357 OA
ATOM     51  H11 Y0X d   1     -28.183   6.836   1.600  0.00  0.00     0.217 HD
ENDBRANCH  38  50
ENDBRANCH  25  26
ENDBRANCH  24  25
ENDBRANCH  14  24
ENDBRANCH   4  10
BRANCH   6  52
ATOM     52  OBH Y0X d   1     -21.527   2.385   7.686  0.00  0.00    -0.354 OA
BRANCH  52  53
ATOM     53  CAB Y0X d   1     -22.625   1.540   7.284  0.00  0.00     0.010 C 
ATOM     54  H4  Y0X d   1     -22.461   0.521   7.664  0.00  0.00     0.066 H 
ATOM     55  H5  Y0X d   1     -22.687   1.517   6.186  0.00  0.00     0.066 H 
ATOM     56  H6  Y0X d   1     -23.564   1.938   7.696  0.00  0.00     0.066 H 
ENDBRANCH  52  53
ENDBRANCH   6  52
BRANCH   5  57
ATOM     57  NBF Y0X d   1     -19.285   3.854   7.890  0.00  0.00    -0.298 N 
ATOM     58  H25 Y0X d   1     -19.376   2.897   8.259  0.00  0.00     0.187 HD
BRANCH  57  59
ATOM     59  NBD Y0X d   1     -18.046   4.459   7.897  0.00  0.00    -0.298 N 
ATOM     60  CBP Y0X d   1     -16.915   3.844   8.249  0.00  0.00     0.082 A 
ATOM     61  CAU Y0X d   1     -15.687   4.494   8.080  0.00  0.00    -0.052 A 
ATOM     62  CBN Y0X d   1     -16.942   2.466   8.868  0.00  0.00     0.107 A 
ATOM     63  CAY Y0X d   1     -14.508   3.862   8.488  0.00  0.00    -0.068 A 
ATOM     64  H17 Y0X d   1     -15.650   5.482   7.635  0.00  0.00     0.087 H 
ATOM     65  CBY Y0X d   1     -14.471   2.565   9.050  0.00  0.00     0.004 A 
ATOM     66  H20 Y0X d   1     -13.572   4.395   8.367  0.00  0.00     0.085 H 
ATOM     67  CBW Y0X d   1     -13.198   1.992   9.400  0.00  0.00     0.093 A 
ATOM     68  CCA Y0X d   1     -15.676   1.832   9.246  0.00  0.00     0.039 A 
ATOM     69  CBB Y0X d   1     -13.169   0.706   9.984  0.00  0.00    -0.033 A 
ATOM     70  CBV Y0X d   1     -14.374  -0.045  10.184  0.00  0.00     0.109 A 
ATOM     71  H23 Y0X d   1     -12.219   0.280  10.286  0.00  0.00     0.088 H 
ATOM     72  CBJ Y0X d   1     -15.604   0.530   9.848  0.00  0.00     0.064 A 
ATOM     73  H24 Y0X d   1     -17.990   5.447   7.613  0.00  0.00     0.187 HD
BRANCH  67  74
ATOM     74  SCC Y0X d   1     -11.736   2.792   9.126  0.00  0.00     0.138 S 
ATOM     75  OAG Y0X d   1     -11.608   3.102   7.700  0.00  0.00    -0.591 OA
ATOM     76  OAH Y0X d   1     -10.746   1.858   9.537  0.00  0.00    -0.591 OA
ATOM     77  OAN Y0X d   1     -11.804   4.017   9.880  0.00  0.00    -0.591 OA
ENDBRANCH  67  74
BRANCH  70  78
ATOM     78  SCD Y0X d   1     -14.266  -1.561  10.855  0.00  0.00     0.140 S 
ATOM     79  OAI Y0X d   1     -12.861  -1.938  10.870  0.00  0.00    -0.591 OA
ATOM     80  OAJ Y0X d   1     -15.056  -2.485  10.103  0.00  0.00    -0.591 OA
ATOM     81  OAO Y0X d   1     -14.785  -1.508  12.220  0.00  0.00    -0.591 OA
ENDBRANCH  70  78
BRANCH  72  82
ATOM     82  NAD Y0X d   1     -16.768  -0.218  10.063  0.00  0.00    -0.397 N 
ATOM     83  H9  Y0X d   1     -16.708  -1.151  10.495  0.00  0.00     0.156 HD
ATOM     84  H10 Y0X d   1     -17.684   0.165   9.789  0.00  0.00     0.156 HD
ENDBRANCH  72  82
BRANCH  62  85
ATOM     85  OAL Y0X d   1     -18.146   1.838   9.015  0.00  0.00    -0.357 OA
ATOM     86  H12 Y0X d   1     -18.011   0.987   9.415  0.00  0.00     0.217 HD
ENDBRANCH  62  85
ENDBRANCH  57  59
ENDBRANCH   5  57
TORSDOF 18
