REMARK  26 active torsions:
REMARK  status: ('A' for Active; 'I' for Inactive)
REMARK    1  A    between atoms: C_1  and  C1_3 
REMARK       I    between atoms: N_9  and  C_1 
REMARK    2  A    between atoms: CA_10  and  N_9 
REMARK    3  A    between atoms: C_11  and  CA_10 
REMARK    4  A    between atoms: CA_10  and  CB_13 
REMARK       I    between atoms: N_17  and  C_11 
REMARK    5  A    between atoms: CB_13  and  CG_14 
REMARK    6  A    between atoms: CG_14  and  CD_15 
REMARK    7  A    between atoms: CD_15  and  CE_16 
REMARK    8  A    between atoms: CA_18  and  N_17 
REMARK    9  A    between atoms: C_19  and  CA_18 
REMARK   10  A    between atoms: CA_18  and  CB_21 
REMARK       I    between atoms: N_26  and  C_19 
REMARK   11  A    between atoms: CB_21  and  CG_22 
REMARK   12  A    between atoms: CG_22  and  CD_23 
REMARK   13  A    between atoms: CD_23  and  CE_24 
REMARK   14  A    between atoms: CE_24  and  NZ_25 
REMARK   15  A    between atoms: CA_27  and  N_26 
REMARK   16  A    between atoms: C_28  and  CA_27 
REMARK   17  A    between atoms: CA_27  and  CB_30 
REMARK       I    between atoms: N1_38  and  C_28 
REMARK   18  A    between atoms: CB_30  and  CG_31 
REMARK   19  A    between atoms: CG_31  and  CD_32 
REMARK   20  A    between atoms: CD_32  and  NE_33 
REMARK       I    between atoms: NE_33  and  CZ_34 
REMARK       I    between atoms: CZ_34  and  NH1_35 
REMARK       I    between atoms: CZ_34  and  NH2_36 
REMARK   21  A    between atoms: C1_42  and  N1_38 
REMARK   22  A    between atoms: C4_45  and  N2_39 
REMARK       I    between atoms: N2_39  and  C5_46 
REMARK       I    between atoms: C5_46  and  N3_40 
REMARK   23  A    between atoms: C2_43  and  C1_42 
REMARK   24  A    between atoms: C1_42  and  C6_47 
REMARK   25  A    between atoms: C3_44  and  C2_43 
REMARK   26  A    between atoms: C3_44  and  C4_45 
ROOT
ATOM      1  CA  LYS d   1      25.168 -21.628   7.243  0.00  0.00     0.089 C 
ATOM      2  H   LYS d   1      25.842 -22.337   7.725  0.00  0.00     0.087 H 
ENDROOT
BRANCH   1   3
ATOM      3  N   LYS d   1      23.967 -22.401   6.900  0.00  0.00    -0.346 N 
ATOM      4  C   NLE d   1      23.574 -23.432   7.655  0.00  0.00     0.241 C 
ATOM      5  O   NLE d   1      23.943 -23.592   8.802  0.00  0.00    -0.271 OA
ATOM      6  H   LYS d   1      23.425 -22.148   6.074  0.00  0.00     0.163 HD
BRANCH   4   7
ATOM      7  CA  NLE d   1      22.659 -24.487   7.113  0.00  0.00     0.089 C 
ATOM      8  H   NLE d   1      23.261 -25.393   7.040  0.00  0.00     0.087 H 
BRANCH   7   9
ATOM      9  N   NLE d   1      21.576 -24.795   8.052  0.00  0.00    -0.344 N 
ATOM     10  C   BEZ d   1      20.341 -24.314   8.156  0.00  0.00     0.252 C 
ATOM     11  O1  BEZ d   1      19.995 -23.227   7.706  0.00  0.00    -0.268 OA
ATOM     12  H   NLE d   1      21.811 -25.503   8.748  0.00  0.00     0.163 HD
BRANCH  10  13
ATOM     13  C1  BEZ d   1      19.341 -25.173   8.887  0.00  0.00     0.032 A 
ATOM     14  C2  BEZ d   1      19.180 -26.519   8.553  0.00  0.00    -0.068 A 
ATOM     15  C3  BEZ d   1      18.244 -27.318   9.221  0.00  0.00    -0.082 A 
ATOM     16  H   BEZ d   1      19.791 -26.954   7.762  0.00  0.00     0.085 H 
ATOM     17  C4  BEZ d   1      17.460 -26.780  10.240  0.00  0.00    -0.083 A 
ATOM     18  H   BEZ d   1      18.128 -28.366   8.943  0.00  0.00     0.083 H 
ATOM     19  C5  BEZ d   1      17.615 -25.433  10.580  0.00  0.00    -0.082 A 
ATOM     20  H   BEZ d   1      16.735 -27.402  10.765  0.00  0.00     0.083 H 
ATOM     21  C6  BEZ d   1      18.554 -24.630   9.910  0.00  0.00    -0.068 A 
ATOM     22  H   BEZ d   1      17.002 -25.002  11.372  0.00  0.00     0.083 H 
ATOM     23  H   BEZ d   1      18.670 -23.582  10.187  0.00  0.00     0.085 H 
ENDBRANCH  10  13
ENDBRANCH   7   9
BRANCH   7  24
ATOM     24  CB  NLE d   1      22.233 -24.307   5.658  0.00  0.00    -0.038 C 
ATOM     25  H   NLE d   1      23.080 -23.936   5.081  0.00  0.00     0.036 H 
ATOM     26  H   NLE d   1      21.408 -23.596   5.612  0.00  0.00     0.036 H 
BRANCH  24  27
ATOM     27  CG  NLE d   1      21.776 -25.644   5.075  0.00  0.00    -0.063 C 
ATOM     28  H   NLE d   1      21.220 -25.438   4.160  0.00  0.00     0.033 H 
ATOM     29  H   NLE d   1      21.173 -26.149   5.829  0.00  0.00     0.033 H 
BRANCH  27  30
ATOM     30  CD  NLE d   1      22.943 -26.561   4.717  0.00  0.00    -0.068 C 
ATOM     31  H   NLE d   1      22.998 -27.391   5.422  0.00  0.00     0.032 H 
ATOM     32  H   NLE d   1      23.882 -26.010   4.767  0.00  0.00     0.032 H 
BRANCH  30  33
ATOM     33  CE  NLE d   1      22.722 -27.078   3.328  0.00  0.00    -0.077 C 
ATOM     34  H   NLE d   1      21.784 -27.633   3.293  0.00  0.00     0.027 H 
ATOM     35  H   NLE d   1      22.676 -26.240   2.633  0.00  0.00     0.027 H 
ATOM     36  H   NLE d   1      23.546 -27.736   3.051  0.00  0.00     0.027 H 
ENDBRANCH  30  33
ENDBRANCH  27  30
ENDBRANCH  24  27
ENDBRANCH   7  24
ENDBRANCH   4   7
ENDBRANCH   1   3
BRANCH   1  37
ATOM     37  C   LYS d   1      24.899 -20.522   8.236  0.00  0.00     0.241 C 
ATOM     38  O   LYS d   1      25.830 -19.954   8.808  0.00  0.00    -0.271 OA
ATOM     39  N   ARG d   1      23.616 -20.219   8.435  0.00  0.00    -0.346 N 
ATOM     40  H   ARG d   1      22.896 -20.837   8.059  0.00  0.00     0.163 HD
BRANCH  39  41
ATOM     41  CA  ARG d   1      23.217 -19.041   9.167  0.00  0.00     0.089 C 
ATOM     42  H   ARG d   1      24.118 -18.626   9.619  0.00  0.00     0.087 H 
BRANCH  41  43
ATOM     43  C   ARG d   1      22.263 -19.306  10.294  0.00  0.00     0.241 C 
ATOM     44  O   ARG d   1      21.321 -20.085  10.164  0.00  0.00    -0.271 OA
ATOM     45  N1  OAR d   1      22.483 -18.617  11.405  0.00  0.00    -0.349 N 
ATOM     46  H   OAR d   1      23.359 -18.106  11.515  0.00  0.00     0.163 HD
BRANCH  45  47
ATOM     47  C1  OAR d   1      21.483 -18.580  12.479  0.00  0.00     0.062 C 
ATOM     48  H   OAR d   1      20.669 -19.224  12.147  0.00  0.00     0.083 H 
BRANCH  47  49
ATOM     49  C2  OAR d   1      22.031 -19.116  13.803  0.00  0.00    -0.039 C 
ATOM     50  H   OAR d   1      21.251 -19.025  14.559  0.00  0.00     0.036 H 
ATOM     51  H   OAR d   1      22.918 -18.539  14.065  0.00  0.00     0.036 H 
BRANCH  49  52
ATOM     52  C3  OAR d   1      22.430 -20.593  13.699  0.00  0.00    -0.048 C 
ATOM     53  H   OAR d   1      22.738 -20.947  14.683  0.00  0.00     0.035 H 
ATOM     54  H   OAR d   1      23.248 -20.689  12.985  0.00  0.00     0.035 H 
BRANCH  52  55
ATOM     55  C4  OAR d   1      21.255 -21.430  13.219  0.00  0.00     0.009 C 
ATOM     56  H   OAR d   1      20.413 -21.199  13.871  0.00  0.00     0.064 H 
ATOM     57  H   OAR d   1      21.097 -21.184  12.169  0.00  0.00     0.064 H 
BRANCH  55  58
ATOM     58  N2  OAR d   1      21.465 -22.866  13.291  0.00  0.00    -0.227 N 
ATOM     59  C5  OAR d   1      21.671 -23.549  12.160  0.00  0.00     0.665 C 
ATOM     60  N3  OAR d   1      21.795 -22.929  10.966  0.00  0.00    -0.235 N 
ATOM     61  N4  OAR d   1      21.757 -24.872  12.202  0.00  0.00    -0.235 N 
ATOM     62  H   OAR d   1      21.732 -21.913  10.910  0.00  0.00     0.174 HD
ATOM     63  H   OAR d   1      21.952 -23.477  10.120  0.00  0.00     0.174 HD
ATOM     64  H   OAR d   1      21.666 -25.361  13.092  0.00  0.00     0.174 HD
ATOM     65  H   OAR d   1      21.914 -25.400  11.344  0.00  0.00     0.174 HD
ATOM     66  H   OAR d   1      21.455 -23.346  14.191  0.00  0.00     0.177 HD
ENDBRANCH  55  58
ENDBRANCH  52  55
ENDBRANCH  49  52
ENDBRANCH  47  49
BRANCH  47  67
ATOM     67  C6  OAR d   1      20.969 -17.181  12.707  0.00  0.00     0.109 C 
ATOM     68  OH1 OAR d   1      20.175 -16.665  11.923  0.00  0.00    -0.305 OA
ATOM     69  H1  OAR d   1      21.306 -16.620  13.578  0.00  0.00     0.146 H 
ENDBRANCH  47  67
ENDBRANCH  45  47
ENDBRANCH  41  43
BRANCH  41  70
ATOM     70  CB  ARG d   1      22.548 -18.090   8.185  0.00  0.00    -0.036 C 
ATOM     71  H   ARG d   1      21.583 -17.775   8.583  0.00  0.00     0.036 H 
ATOM     72  H   ARG d   1      22.398 -18.597   7.232  0.00  0.00     0.036 H 
BRANCH  70  73
ATOM     73  CG  ARG d   1      23.433 -16.875   7.979  0.00  0.00    -0.048 C 
ATOM     74  H   ARG d   1      24.286 -16.956   8.653  0.00  0.00     0.035 H 
ATOM     75  H   ARG d   1      22.840 -15.982   8.179  0.00  0.00     0.035 H 
BRANCH  73  76
ATOM     76  CD  ARG d   1      23.956 -16.790   6.557  0.00  0.00     0.009 C 
ATOM     77  H   ARG d   1      23.563 -17.635   5.991  0.00  0.00     0.064 H 
ATOM     78  H   ARG d   1      25.046 -16.807   6.585  0.00  0.00     0.064 H 
BRANCH  76  79
ATOM     79  NE  ARG d   1      23.530 -15.566   5.915  0.00  0.00    -0.227 N 
ATOM     80  CZ  ARG d   1      24.367 -14.708   5.299  0.00  0.00     0.665 C 
ATOM     81  NH1 ARG d   1      23.820 -13.705   4.604  0.00  0.00    -0.235 N 
ATOM     82  NH2 ARG d   1      25.707 -14.828   5.375  0.00  0.00    -0.235 N 
ATOM     83  H   ARG d   1      22.805 -13.612   4.555  0.00  0.00     0.174 HD
ATOM     84  H   ARG d   1      24.417 -13.033   4.122  0.00  0.00     0.174 HD
ATOM     85  H   ARG d   1      26.121 -15.589   5.913  0.00  0.00     0.174 HD
ATOM     86  H   ARG d   1      26.307 -14.158   4.894  0.00  0.00     0.174 HD
ATOM     87  H   ARG d   1      22.536 -15.338   5.929  0.00  0.00     0.177 HD
ENDBRANCH  76  79
ENDBRANCH  73  76
ENDBRANCH  70  73
ENDBRANCH  41  70
ENDBRANCH  39  41
ENDBRANCH   1  37
BRANCH   1  88
ATOM     88  CB  LYS d   1      25.860 -21.064   5.994  0.00  0.00    -0.038 C 
ATOM     89  H   LYS d   1      26.721 -20.469   6.298  0.00  0.00     0.036 H 
ATOM     90  H   LYS d   1      25.155 -20.442   5.443  0.00  0.00     0.036 H 
BRANCH  88  91
ATOM     91  CG  LYS d   1      26.329 -22.208   5.098  0.00  0.00    -0.061 C 
ATOM     92  H   LYS d   1      25.490 -22.523   4.477  0.00  0.00     0.033 H 
ATOM     93  H   LYS d   1      26.687 -23.017   5.735  0.00  0.00     0.033 H 
BRANCH  91  94
ATOM     94  CD  LYS d   1      27.466 -21.780   4.184  0.00  0.00    -0.043 C 
ATOM     95  H   LYS d   1      28.400 -21.787   4.746  0.00  0.00     0.035 H 
ATOM     96  H   LYS d   1      27.265 -20.777   3.808  0.00  0.00     0.035 H 
BRANCH  94  97
ATOM     97  CE  LYS d   1      27.581 -22.745   3.006  0.00  0.00     0.080 C 
ATOM     98  H   LYS d   1      26.854 -22.460   2.246  0.00  0.00     0.075 H 
ATOM     99  H   LYS d   1      27.392 -23.758   3.361  0.00  0.00     0.075 H 
BRANCH  97 100
ATOM    100  NZ  LYS d   1      28.912 -22.693   2.425  0.00  0.00    -0.079 N 
ATOM    101  H   LYS d   1      28.965 -23.344   1.642  0.00  0.00     0.274 HD
ATOM    102  H   LYS d   1      29.101 -21.746   2.095  0.00  0.00     0.274 HD
ATOM    103  H   LYS d   1      29.601 -22.952   3.132  0.00  0.00     0.274 HD
ENDBRANCH  97 100
ENDBRANCH  94  97
ENDBRANCH  91  94
ENDBRANCH  88  91
ENDBRANCH   1  88
TORSDOF 26
