REMARK  14 active torsions:
REMARK  status: ('A' for Active; 'I' for Inactive)
REMARK    1  A    between atoms: C1_1  and  C8_8 
REMARK    2  A    between atoms: C4_4  and  O7_7 
REMARK    3  A    between atoms: O7_7  and  C25_25 
REMARK    4  A    between atoms: C11_11  and  C14_14 
REMARK    5  A    between atoms: C14_14  and  C15_15 
REMARK    6  A    between atoms: C15_15  and  C16_16 
REMARK    7  A    between atoms: C16_16  and  C17_17 
REMARK    8  A    between atoms: C16_16  and  S18_18 
REMARK    9  A    between atoms: C16_16  and  C22_22 
REMARK       I    between atoms: C17_17  and  N23_23 
REMARK   10  A    between atoms: S18_18  and  C19_19 
REMARK   11  A    between atoms: N23_23  and  O28_28 
REMARK   12  A    between atoms: C25_25  and  C26_26 
REMARK   13  A    between atoms: C26_26  and  C27_27 
REMARK   14  A    between atoms: C27_27  and  N29_29 
ROOT
ATOM      1  C1  03I d   1      14.569   6.063  24.738  0.00  0.00    -0.026 A 
ATOM      2  C2  03I d   1      14.115   5.676  23.491  0.00  0.00    -0.070 A 
ATOM      3  C3  03I d   1      14.890   5.857  22.361  0.00  0.00    -0.050 A 
ATOM      4  C4  03I d   1      16.137   6.429  22.473  0.00  0.00     0.068 A 
ATOM      5  C5  03I d   1      16.621   6.823  23.709  0.00  0.00    -0.050 A 
ATOM      6  C6  03I d   1      15.823   6.646  24.828  0.00  0.00    -0.070 A 
ATOM      7  H1  03I d   1      13.135   5.223  23.398  0.00  0.00     0.085 H 
ATOM      8  H2  03I d   1      14.517   5.550  21.390  0.00  0.00     0.087 H 
ATOM      9  H3  03I d   1      17.608   7.263  23.800  0.00  0.00     0.087 H 
ATOM     10  H4  03I d   1      16.188   6.971  25.796  0.00  0.00     0.085 H 
ENDROOT
BRANCH   1  11
ATOM     11  C8  03I d   1      13.751   5.840  25.930  0.00  0.00    -0.026 A 
ATOM     12  C9  03I d   1      12.376   6.035  25.932  0.00  0.00    -0.072 A 
ATOM     13  C10 03I d   1      11.616   5.818  27.074  0.00  0.00    -0.076 A 
ATOM     14  H5  03I d   1      11.886   6.364  25.023  0.00  0.00     0.084 H 
ATOM     15  C11 03I d   1      12.218   5.399  28.245  0.00  0.00    -0.058 A 
ATOM     16  H6  03I d   1      10.544   5.978  27.047  0.00  0.00     0.084 H 
ATOM     17  C12 03I d   1      13.590   5.208  28.247  0.00  0.00    -0.076 A 
ATOM     18  C13 03I d   1      14.349   5.420  27.109  0.00  0.00    -0.072 A 
ATOM     19  H7  03I d   1      14.079   4.886  29.159  0.00  0.00     0.084 H 
ATOM     20  H8  03I d   1      15.420   5.256  27.140  0.00  0.00     0.084 H 
BRANCH  15  21
ATOM     21  C14 03I d   1      11.435   5.160  29.506  0.00  0.00    -0.039 C 
ATOM     22  H9  03I d   1      10.529   5.784  29.498  0.00  0.00     0.040 H 
ATOM     23  H10 03I d   1      12.054   5.423  30.376  0.00  0.00     0.040 H 
BRANCH  21  24
ATOM     24  C15 03I d   1      11.038   3.693  29.592  0.00  0.00    -0.033 C 
ATOM     25  H11 03I d   1      11.968   3.107  29.623  0.00  0.00     0.036 H 
ATOM     26  H12 03I d   1      10.484   3.453  28.673  0.00  0.00     0.036 H 
BRANCH  24  27
ATOM     27  C16 03I d   1      10.175   3.234  30.772  0.00  0.00     0.142 C 
BRANCH  27  28
ATOM     28  C17 03I d   1      10.830   3.597  32.113  0.00  0.00     0.264 C 
ATOM     29  N23 03I d   1      10.056   4.343  32.970  0.00  0.00    -0.236 N 
ATOM     30  H19 03I d   1       9.143   4.693  32.759  0.00  0.00     0.197 HD
ATOM     31  O24 03I d   1      11.966   3.269  32.431  0.00  0.00    -0.269 OA
BRANCH  29  32
ATOM     32  O28 03I d   1      10.737   4.544  34.191  0.00  0.00    -0.287 OA
ATOM     33  H26 03I d   1      10.193   5.060  34.774  0.00  0.00     0.244 HD
ENDBRANCH  29  32
ENDBRANCH  27  28
BRANCH  27  34
ATOM     34  S18 03I d   1       9.921   1.455  30.681  0.00  0.00     0.158 S 
ATOM     35  O20 03I d   1       9.214   1.009  31.868  0.00  0.00    -0.227 OA
ATOM     36  O21 03I d   1       9.338   1.104  29.399  0.00  0.00    -0.227 OA
BRANCH  34  37
ATOM     37  C19 03I d   1      11.545   0.750  30.684  0.00  0.00     0.017 C 
ATOM     38  H13 03I d   1      11.469  -0.346  30.630  0.00  0.00     0.049 H 
ATOM     39  H14 03I d   1      12.067   1.036  31.609  0.00  0.00     0.049 H 
ATOM     40  H15 03I d   1      12.108   1.122  29.815  0.00  0.00     0.049 H 
ENDBRANCH  34  37
ENDBRANCH  27  34
BRANCH  27  41
ATOM     41  C22 03I d   1       8.792   3.843  30.617  0.00  0.00    -0.048 C 
ATOM     42  H16 03I d   1       8.867   4.939  30.663  0.00  0.00     0.030 H 
ATOM     43  H17 03I d   1       8.141   3.486  31.429  0.00  0.00     0.030 H 
ATOM     44  H18 03I d   1       8.367   3.545  29.647  0.00  0.00     0.030 H 
ENDBRANCH  27  41
ENDBRANCH  24  27
ENDBRANCH  21  24
ENDBRANCH  15  21
ENDBRANCH   1  11
BRANCH   4  45
ATOM     45  O7  03I d   1      16.840   6.555  21.289  0.00  0.00    -0.351 OA
BRANCH  45  46
ATOM     46  C25 03I d   1      17.783   7.613  21.341  0.00  0.00     0.028 C 
ATOM     47  H20 03I d   1      18.624   7.346  21.997  0.00  0.00     0.075 H 
ATOM     48  H21 03I d   1      17.307   8.533  21.711  0.00  0.00     0.075 H 
BRANCH  46  49
ATOM     49  C26 03I d   1      18.262   7.801  19.920  0.00  0.00    -0.022 C 
ATOM     50  H22 03I d   1      17.699   8.616  19.442  0.00  0.00     0.038 H 
ATOM     51  H23 03I d   1      18.116   6.871  19.351  0.00  0.00     0.038 H 
BRANCH  49  52
ATOM     52  C27 03I d   1      19.719   8.147  19.961  0.00  0.00     0.086 C 
ATOM     53  H24 03I d   1      20.252   7.415  20.586  0.00  0.00     0.076 H 
ATOM     54  H25 03I d   1      19.844   9.153  20.387  0.00  0.00     0.076 H 
BRANCH  52  55
ATOM     55  N29 03I d   1      20.275   8.120  18.590  0.00  0.00    -0.067 N 
ATOM     56  C30 03I d   1      20.875   6.793  18.245  0.00  0.00     0.103 C 
ATOM     57  C31 03I d   1      21.362   6.888  16.814  0.00  0.00     0.042 C 
ATOM     58  H28 03I d   1      20.117   6.001  18.335  0.00  0.00     0.079 H 
ATOM     59  H29 03I d   1      21.717   6.573  18.917  0.00  0.00     0.079 H 
ATOM     60  O32 03I d   1      22.331   7.944  16.758  0.00  0.00    -0.388 OA
ATOM     61  H30 03I d   1      20.519   7.116  16.145  0.00  0.00     0.076 H 
ATOM     62  H31 03I d   1      21.825   5.937  16.511  0.00  0.00     0.076 H 
ATOM     63  C33 03I d   1      21.739   9.225  17.004  0.00  0.00     0.042 C 
ATOM     64  C34 03I d   1      21.222   9.262  18.429  0.00  0.00     0.103 C 
ATOM     65  H32 03I d   1      20.906   9.387  16.305  0.00  0.00     0.076 H 
ATOM     66  H33 03I d   1      22.493  10.013  16.864  0.00  0.00     0.076 H 
ATOM     67  H34 03I d   1      22.059   9.159  19.135  0.00  0.00     0.079 H 
ATOM     68  H35 03I d   1      20.700  10.212  18.615  0.00  0.00     0.079 H 
ATOM     69  H27 03I d   1      19.512   8.269  17.948  0.00  0.00     0.280 HD
ENDBRANCH  52  55
ENDBRANCH  49  52
ENDBRANCH  46  49
ENDBRANCH  45  46
ENDBRANCH   4  45
TORSDOF 14
