REMARK  5 active torsions:
REMARK  status: ('A' for Active; 'I' for Inactive)
REMARK    1  A    between atoms: C2_3  and  C1_1 
REMARK    2  A    between atoms: C8_10  and  C5_8 
REMARK       I    between atoms: N10_12  and  C8_10 
REMARK    3  A    between atoms: C11_13  and  N10_12 
REMARK    4  A    between atoms: C17_19  and  N14_16 
REMARK    5  A    between atoms: C19_21  and  C24_25 
REMARK       I    between atoms: C24_25  and  N26_27 
ROOT
ATOM      1  C11 087 d   1       0.041   3.653  25.279  0.00  0.00     0.015 C 
ATOM      2  C12 087 d   1      -1.412   3.529  24.783  0.00  0.00    -0.031 C 
ATOM      3  C13 087 d   1      -2.084   2.259  25.340  0.00  0.00    -0.002 C 
ATOM      4  N14 087 d   1      -1.229   1.098  25.035  0.00  0.00    -0.366 N 
ATOM      5  C15 087 d   1       0.092   1.137  25.664  0.00  0.00    -0.002 C 
ATOM      6  C16 087 d   1       0.822   2.341  25.050  0.00  0.00    -0.031 C 
ATOM      7  H6  087 d   1       0.044   3.913  26.348  0.00  0.00     0.072 H 
ATOM      8  H7  087 d   1      -1.413   3.483  23.684  0.00  0.00     0.038 H 
ATOM      9  H8  087 d   1      -1.981   4.410  25.114  0.00  0.00     0.038 H 
ATOM     10  H9  087 d   1      -3.070   2.126  24.870  0.00  0.00     0.064 H 
ATOM     11  H10 087 d   1      -2.206   2.352  26.429  0.00  0.00     0.064 H 
ATOM     12  H11 087 d   1       0.643   0.209  25.453  0.00  0.00     0.064 H 
ATOM     13  H12 087 d   1      -0.007   1.265  26.752  0.00  0.00     0.064 H 
ATOM     14  H13 087 d   1       1.816   2.431  25.513  0.00  0.00     0.038 H 
ATOM     15  H14 087 d   1       0.935   2.177  23.968  0.00  0.00     0.038 H 
ENDROOT
BRANCH   1  16
ATOM     16  N10 087 d   1       0.729   4.688  24.495  0.00  0.00    -0.351 N 
ATOM     17  C8  087 d   1       1.911   5.224  24.915  0.00  0.00     0.270 C 
ATOM     18  O9  087 d   1       2.429   4.855  25.970  0.00  0.00    -0.266 OA
ATOM     19  H5  087 d   1       0.323   5.005  23.638  0.00  0.00     0.163 HD
BRANCH  17  20
ATOM     20  C5  087 d   1       2.628   6.223  24.109  0.00  0.00     0.124 A 
ATOM     21  C4  087 d   1       2.327   6.795  22.875  0.00  0.00     0.089 A 
ATOM     22 CL2  087 d   1       0.934   6.570  21.884  0.00  0.00    -0.080 Cl
ATOM     23  C3  087 d   1       3.360   7.678  22.522  0.00  0.00     0.080 A 
ATOM     24  C2  087 d   1       4.270   7.623  23.530  0.00  0.00     0.029 A 
ATOM     25 CL3  087 d   1       3.408   8.650  21.055  0.00  0.00    -0.080 Cl
ATOM     26  N6  087 d   1       3.851   6.742  24.481  0.00  0.00    -0.353 N 
ATOM     27  H4  087 d   1       4.365   6.502  25.340  0.00  0.00     0.166 HD
BRANCH  24  28
ATOM     28  C1  087 d   1       5.568   8.367  23.618  0.00  0.00    -0.036 C 
ATOM     29  H1  087 d   1       6.077   8.107  24.558  0.00  0.00     0.035 H 
ATOM     30  H2  087 d   1       5.373   9.449  23.594  0.00  0.00     0.035 H 
ATOM     31  H3  087 d   1       6.207   8.091  22.767  0.00  0.00     0.035 H 
ENDBRANCH  24  28
ENDBRANCH  17  20
ENDBRANCH   1  16
BRANCH   4  32
ATOM     32  C17 087 d   1      -1.829  -0.155  24.987  0.00  0.00     0.128 A 
ATOM     33  C18 087 d   1      -1.317  -1.249  25.695  0.00  0.00    -0.023 A 
ATOM     34  C19 087 d   1      -1.951  -2.493  25.604  0.00  0.00     0.038 A 
ATOM     35  H15 087 d   1      -0.433  -1.133  26.311  0.00  0.00     0.090 H 
ATOM     36  C20 087 d   1      -3.083  -2.582  24.775  0.00  0.00    -0.028 A 
ATOM     37  C21 087 d   1      -3.512  -1.445  24.104  0.00  0.00     0.129 A 
ATOM     38  H16 087 d   1      -3.611  -3.522  24.662  0.00  0.00     0.090 H 
ATOM     39 CL1  087 d   1      -4.897  -1.458  23.067  0.00  0.00    -0.062 Cl
ATOM     40  N22 087 d   1      -2.887  -0.293  24.220  0.00  0.00    -0.219 NA
BRANCH  34  41
ATOM     41  C24 087 d   1      -1.440  -3.665  26.367  0.00  0.00     0.249 C 
ATOM     42  O25 087 d   1      -0.242  -3.848  26.490  0.00  0.00    -0.268 OA
ATOM     43  N26 087 d   1      -2.290  -4.544  26.938  0.00  0.00    -0.366 N 
ATOM     44  H17 087 d   1      -1.932  -5.327  27.448  0.00  0.00     0.159 HD
ATOM     45  H18 087 d   1      -3.278  -4.413  26.852  0.00  0.00     0.159 HD
ENDBRANCH  34  41
ENDBRANCH   4  32
TORSDOF 5
