REMARK  23 active torsions:
REMARK  status: ('A' for Active; 'I' for Inactive)
REMARK    1  A    between atoms: CA_11  and  CB_13 
REMARK    2  A    between atoms: CB_13  and  CG_14 
REMARK       I    between atoms: CG_14  and  ND2_16 
REMARK    3  A    between atoms: ND2_16  and  CE2_17 
REMARK    4  A    between atoms: CB_22  and  CD_24 
REMARK    5  A    between atoms: CA_26  and  CB_28 
REMARK    6  A    between atoms: CB_28  and  CG1_29 
REMARK    7  A    between atoms: CB_28  and  CG2_30 
REMARK    8  A    between atoms: CB_35  and  CB1_37 
REMARK    9  A    between atoms: CB1_37  and  OB2_38 
REMARK   10  A    between atoms: OB2_38  and  CB3_39 
REMARK   11  A    between atoms: CA_45  and  CB_47 
REMARK   12  A    between atoms: CB_47  and  OB_48 
REMARK   13  A    between atoms: CB_47  and  CG_49 
REMARK   14  A    between atoms: C_67  and  CA_66 
REMARK   15  A    between atoms: C48_80  and  O9_71 
REMARK   16  A    between atoms: O9_71  and  C54_86 
REMARK   17  A    between atoms: N13_78  and  CA_72 
REMARK       I    between atoms: N13_78  and  C48_80 
REMARK   18  A    between atoms: C49_81  and  N13_78 
REMARK   19  A    between atoms: C50_82  and  C49_81 
REMARK   20  A    between atoms: C51_83  and  C50_82 
REMARK   21  A    between atoms: C59_91  and  C51_83 
REMARK   22  A    between atoms: C57_89  and  C58_90 
REMARK   23  A    between atoms: C59_91  and  C60_92 
ROOT
ATOM      1  CA  NON d   1      53.382 -29.515  -8.074  0.00  0.00     0.031 A 
ATOM      2  C   NON d   1      53.433 -29.929  -9.493  0.00  0.00     0.111 A 
ATOM      3  CB  NON d   1      54.262 -30.127  -7.117  0.00  0.00    -0.066 A 
ATOM      4  N   NON d   1      53.299 -29.137 -10.558  0.00  0.00    -0.235 NA
ATOM      5  CA  NON d   1      53.372 -29.897 -11.757  0.00  0.00     0.132 A 
ATOM      6  C   NON d   1      53.232 -29.299 -13.075  0.00  0.00     0.271 C 
ATOM      7  O   NON d   1      53.059 -29.970 -14.104  0.00  0.00    -0.266 OA
ATOM      8  CB  NON d   1      53.562 -31.241 -11.542  0.00  0.00    -0.010 A 
ATOM      9  SG  NON d   1      53.643 -31.591  -9.870  0.00  0.00    -0.079 SA
ATOM     10  N   NON d   1      53.269 -27.976 -13.083  0.00  0.00    -0.344 N 
ATOM     11  CA  NON d   1      53.119 -27.099 -14.246  0.00  0.00     0.069 C 
ATOM     12  C   NON d   1      54.339 -26.237 -14.506  0.00  0.00     0.099 A 
ATOM     13  N   NON d   1      54.332 -25.201 -15.359  0.00  0.00    -0.237 NA
ATOM     14  CA  NON d   1      55.561 -24.509 -15.452  0.00  0.00     0.138 A 
ATOM     15  C   NON d   1      55.652 -23.292 -16.390  0.00  0.00     0.272 C 
ATOM     16  O   NON d   1      56.640 -22.564 -16.502  0.00  0.00    -0.266 OA
ATOM     17  CB  NON d   1      56.534 -25.059 -14.620  0.00  0.00     0.015 A 
ATOM     18  SG  NON d   1      55.885 -26.454 -13.734  0.00  0.00    -0.075 SA
ATOM     19  N   NON d   1      54.492 -23.068 -17.102  0.00  0.00    -0.345 N 
ATOM     20  CA  NON d   1      54.147 -22.057 -18.064  0.00  0.00     0.064 C 
ATOM     21  C   NON d   1      52.675 -21.776 -17.842  0.00  0.00     0.099 A 
ATOM     22  N   NON d   1      51.738 -22.717 -17.790  0.00  0.00    -0.237 NA
ATOM     23  CA  NON d   1      50.446 -22.256 -17.562  0.00  0.00     0.140 A 
ATOM     24  C   NON d   1      49.274 -23.156 -17.460  0.00  0.00     0.271 C 
ATOM     25  O   NON d   1      48.076 -22.836 -17.539  0.00  0.00    -0.266 OA
ATOM     26  CB  NON d   1      50.367 -20.885 -17.425  0.00  0.00     0.042 A 
ATOM     27  SG  NON d   1      51.956 -20.158 -17.604  0.00  0.00    -0.072 SA
ATOM     28  N   NON d   1      49.694 -24.405 -17.249  0.00  0.00    -0.347 N 
ATOM     29  CA  NON d   1      48.814 -25.560 -17.078  0.00  0.00     0.069 C 
ATOM     30  C   NON d   1      48.328 -25.532 -15.648  0.00  0.00     0.236 C 
ATOM     31  O   NON d   1      48.579 -24.613 -14.855  0.00  0.00    -0.272 OA
ATOM     32  N   NON d   1      47.612 -26.548 -15.258  0.00  0.00    -0.346 N 
ATOM     33  CA  NON d   1      47.071 -26.703 -13.942  0.00  0.00     0.089 C 
ATOM     34  C   NON d   1      48.068 -27.483 -13.097  0.00  0.00     0.101 A 
ATOM     35  N   NON d   1      48.651 -27.011 -12.027  0.00  0.00    -0.240 NA
ATOM     36  CA  NON d   1      49.493 -27.933 -11.416  0.00  0.00     0.100 A 
ATOM     37  C   NON d   1      50.168 -27.544 -10.237  0.00  0.00     0.127 A 
ATOM     38  CB  NON d   1      49.561 -29.144 -12.041  0.00  0.00    -0.013 A 
ATOM     39  SG  NON d   1      48.546 -29.162 -13.452  0.00  0.00    -0.082 SA
ATOM     40  N   NON d   1      50.971 -28.353  -9.567  0.00  0.00    -0.236 NA
ATOM     41  CA  NON d   1      51.522 -27.768  -8.447  0.00  0.00     0.094 A 
ATOM     42  C   NON d   1      52.475 -28.506  -7.579  0.00  0.00     0.100 A 
ATOM     43  CB  NON d   1      51.109 -26.463  -8.282  0.00  0.00    -0.013 A 
ATOM     44  SG  NON d   1      50.017 -25.961  -9.536  0.00  0.00    -0.077 SA
ATOM     45  N   NON d   1      52.442 -28.147  -6.302  0.00  0.00    -0.243 NA
ATOM     46  CA  NON d   1      53.251 -28.681  -5.362  0.00  0.00     0.093 A 
ATOM     47  CB  NON d   1      54.204 -29.708  -5.748  0.00  0.00    -0.051 A 
ATOM     48  H1  NON d   1      54.961 -30.896  -7.427  0.00  0.00     0.085 H 
ATOM     49  H2  NON d   1      53.650 -31.985 -12.332  0.00  0.00     0.099 H 
ATOM     50  H3  NON d   1      53.415 -27.528 -12.201  0.00  0.00     0.163 HD
ATOM     51  H4  NON d   1      52.960 -27.744 -15.122  0.00  0.00     0.084 H 
ATOM     52  H14 NON d   1      53.762 -23.725 -16.916  0.00  0.00     0.163 HD
ATOM     53  H15 NON d   1      54.729 -21.146 -17.860  0.00  0.00     0.084 H 
ATOM     54  H28 NON d   1      50.681 -24.562 -17.205  0.00  0.00     0.163 HD
ATOM     55  H29 NON d   1      49.368 -26.490 -17.271  0.00  0.00     0.078 H 
ATOM     56  H30 NON d   1      47.961 -25.491 -17.769  0.00  0.00     0.078 H 
ATOM     57  H31 NON d   1      47.427 -27.270 -15.925  0.00  0.00     0.163 HD
ATOM     58  H32 NON d   1      46.966 -25.705 -13.491  0.00  0.00     0.087 H 
ATOM     59  H40 NON d   1      50.167 -29.983 -11.703  0.00  0.00     0.098 H 
ATOM     60  H41 NON d   1      51.430 -25.822  -7.462  0.00  0.00     0.098 H 
ATOM     61  H42 NON d   1      54.862 -30.151  -5.010  0.00  0.00     0.087 H 
ENDROOT
BRANCH  46  62
ATOM     62  C   NON d   1      53.185 -28.217  -3.978  0.00  0.00     0.128 A 
ATOM     63  N   NON d   1      53.963 -28.651  -3.018  0.00  0.00    -0.221 NA
ATOM     64  CA  NON d   1      53.725 -28.038  -1.804  0.00  0.00     0.142 A 
ATOM     65  CB  NON d   1      52.715 -27.114  -1.887  0.00  0.00     0.002 A 
ATOM     66  SG  NON d   1      52.039 -26.982  -3.486  0.00  0.00    -0.076 SA
ATOM     67  H43 NON d   1      52.371 -26.523  -1.039  0.00  0.00     0.101 H 
BRANCH  64  68
ATOM     68  N13 NON d   1      54.490 -28.364  -0.638  0.00  0.00    -0.277 N 
ATOM     69  C48 NON d   1      54.763 -27.406   0.430  0.00  0.00     0.368 C 
ATOM     70  O8  NON d   1      54.387 -26.229   0.544  0.00  0.00    -0.238 OA
BRANCH  69  71
ATOM     71  O9  NON d   1      55.601 -28.036   1.353  0.00  0.00    -0.298 OA
BRANCH  71  72
ATOM     72  C54 NON d   1      56.150 -27.470   2.558  0.00  0.00     0.050 C 
ATOM     73  C53 NON d   1      56.728 -26.025   2.438  0.00  0.00    -0.039 C 
ATOM     74  C52 NON d   1      57.317 -25.599   3.797  0.00  0.00    -0.050 C 
ATOM     75  H52 NON d   1      57.518 -26.008   1.673  0.00  0.00     0.036 H 
ATOM     76  H53 NON d   1      55.925 -25.330   2.151  0.00  0.00     0.036 H 
ATOM     77  C57 NON d   1      56.390 -25.745   5.095  0.00  0.00     0.031 C 
ATOM     78  H50 NON d   1      57.599 -24.539   3.714  0.00  0.00     0.034 H 
ATOM     79  H51 NON d   1      58.218 -26.206   3.968  0.00  0.00     0.034 H 
ATOM     80  C56 NON d   1      55.657 -27.144   5.048  0.00  0.00    -0.050 C 
ATOM     81  H59 NON d   1      55.632 -24.948   5.080  0.00  0.00     0.056 H 
ATOM     82  C55 NON d   1      55.066 -27.529   3.666  0.00  0.00    -0.039 C 
ATOM     83  H57 NON d   1      56.382 -27.919   5.337  0.00  0.00     0.034 H 
ATOM     84  H58 NON d   1      54.834 -27.122   5.777  0.00  0.00     0.034 H 
ATOM     85  H55 NON d   1      54.663 -28.551   3.720  0.00  0.00     0.036 H 
ATOM     86  H56 NON d   1      54.256 -26.828   3.414  0.00  0.00     0.036 H 
ATOM     87  H54 NON d   1      56.986 -28.117   2.864  0.00  0.00     0.084 H 
BRANCH  77  88
ATOM     88  C58 NON d   1      57.218 -25.600   6.378  0.00  0.00     0.177 C 
ATOM     89  O10 NON d   1      58.263 -26.220   6.527  0.00  0.00    -0.648 OA
ATOM     90  O11 NON d   1      56.714 -24.760   7.305  0.00  0.00    -0.648 OA
ENDBRANCH  77  88
ENDBRANCH  71  72
ENDBRANCH  69  71
BRANCH  68  91
ATOM     91  C49 NON d   1      54.973 -29.812  -0.606  0.00  0.00     0.006 C 
ATOM     92  H44 NON d   1      54.373 -30.402  -1.315  0.00  0.00     0.065 H 
ATOM     93  H45 NON d   1      54.836 -30.210   0.410  0.00  0.00     0.065 H 
BRANCH  91  94
ATOM     94  C50 NON d   1      56.442 -29.933  -0.986  0.00  0.00    -0.049 C 
ATOM     95  H46 NON d   1      57.040 -29.353  -0.268  0.00  0.00     0.035 H 
ATOM     96  H47 NON d   1      56.579 -29.520  -1.996  0.00  0.00     0.035 H 
BRANCH  94  97
ATOM     97  C51 NON d   1      56.934 -31.373  -0.978  0.00  0.00    -0.055 C 
ATOM     98  H48 NON d   1      56.335 -31.951  -1.697  0.00  0.00     0.033 H 
ATOM     99  H49 NON d   1      56.793 -31.785   0.032  0.00  0.00     0.033 H 
BRANCH  97 100
ATOM    100  C59 NON d   1      58.423 -31.508  -1.360  0.00  0.00     0.016 C 
ATOM    101  H60 NON d   1      59.023 -30.943  -0.632  0.00  0.00     0.049 H 
ATOM    102  H61 NON d   1      58.567 -31.081  -2.364  0.00  0.00     0.049 H 
BRANCH 100 103
ATOM    103  C60 NON d   1      58.915 -32.966  -1.373  0.00  0.00     0.172 C 
ATOM    104  O12 NON d   1      58.237 -33.946  -1.121  0.00  0.00    -0.648 OA
ATOM    105  O13 NON d   1      60.213 -33.057  -1.705  0.00  0.00    -0.648 OA
ENDBRANCH 100 103
ENDBRANCH  97 100
ENDBRANCH  94  97
ENDBRANCH  91  94
ENDBRANCH  68  91
ENDBRANCH  64  68
ENDBRANCH  46  62
BRANCH  11 106
ATOM    106  CB  NON d   1      51.912 -26.151 -14.115  0.00  0.00     0.034 C 
ATOM    107  H5  NON d   1      51.003 -26.770 -14.096  0.00  0.00     0.050 H 
ATOM    108  H6  NON d   1      51.898 -25.505 -15.005  0.00  0.00     0.050 H 
BRANCH 106 109
ATOM    109  CG  NON d   1      51.879 -25.230 -12.866  0.00  0.00     0.219 C 
ATOM    110  OD1 NON d   1      52.695 -25.401 -11.964  0.00  0.00    -0.274 OA
ATOM    111  ND2 NON d   1      50.954 -24.263 -12.802  0.00  0.00    -0.365 N 
ATOM    112  H7  NON d   1      50.331 -24.195 -13.581  0.00  0.00     0.161 HD
BRANCH 111 113
ATOM    113  CE2 NON d   1      50.750 -23.291 -11.718  0.00  0.00    -0.018 C 
ATOM    114  H8  NON d   1      49.907 -22.631 -11.971  0.00  0.00     0.056 H 
ATOM    115  H9  NON d   1      51.661 -22.689 -11.589  0.00  0.00     0.056 H 
ATOM    116  H10 NON d   1      50.529 -23.826 -10.783  0.00  0.00     0.056 H 
ENDBRANCH 111 113
ENDBRANCH 106 109
ENDBRANCH  11 106
BRANCH  33 117
ATOM    117  CB  NON d   1      45.639 -27.328 -14.014  0.00  0.00     0.086 C 
ATOM    118  H33 NON d   1      45.639 -28.074 -14.822  0.00  0.00     0.094 H 
BRANCH 117 119
ATOM    119  OB  NON d   1      45.320 -27.975 -12.792  0.00  0.00    -0.388 OA
ATOM    120  H34 NON d   1      45.952 -28.665 -12.626  0.00  0.00     0.210 HD
ENDBRANCH 117 119
BRANCH 117 121
ATOM    121  CG  NON d   1      44.558 -26.323 -14.303  0.00  0.00    -0.027 A 
ATOM    122  CD1 NON d   1      43.534 -26.622 -15.277  0.00  0.00    -0.074 A 
ATOM    123  CE1 NON d   1      42.517 -25.663 -15.548  0.00  0.00    -0.082 A 
ATOM    124  H35 NON d   1      43.540 -27.572 -15.799  0.00  0.00     0.084 H 
ATOM    125  CZ  NON d   1      42.509 -24.412 -14.859  0.00  0.00    -0.083 A 
ATOM    126  H36 NON d   1      41.747 -25.883 -16.279  0.00  0.00     0.083 H 
ATOM    127  CE2 NON d   1      43.516 -24.103 -13.889  0.00  0.00    -0.082 A 
ATOM    128  H37 NON d   1      41.731 -23.688 -15.073  0.00  0.00     0.083 H 
ATOM    129  CD2 NON d   1      44.536 -25.050 -13.610  0.00  0.00    -0.074 A 
ATOM    130  H38 NON d   1      43.499 -23.151 -13.371  0.00  0.00     0.083 H 
ATOM    131  H39 NON d   1      45.301 -24.821 -12.877  0.00  0.00     0.084 H 
ENDBRANCH 117 121
ENDBRANCH  33 117
BRANCH  17 132
ATOM    132  CD  NON d   1      57.978 -24.659 -14.379  0.00  0.00    -0.043 C 
ATOM    133  H11 NON d   1      58.430 -25.341 -13.644  0.00  0.00     0.034 H 
ATOM    134  H12 NON d   1      58.014 -23.629 -13.994  0.00  0.00     0.034 H 
ATOM    135  H13 NON d   1      58.537 -24.716 -15.325  0.00  0.00     0.034 H 
ENDBRANCH  17 132
BRANCH  20 136
ATOM    136  CB  NON d   1      54.450 -22.512 -19.565  0.00  0.00    -0.035 C 
ATOM    137  H16 NON d   1      53.868 -23.426 -19.752  0.00  0.00     0.042 H 
BRANCH 136 138
ATOM    138  CG1 NON d   1      54.067 -21.452 -20.622  0.00  0.00    -0.071 C 
ATOM    139  H17 NON d   1      54.303 -21.834 -21.626  0.00  0.00     0.028 H 
ATOM    140  H18 NON d   1      54.635 -20.528 -20.438  0.00  0.00     0.028 H 
ATOM    141  H19 NON d   1      52.990 -21.239 -20.555  0.00  0.00     0.028 H 
ENDBRANCH 136 138
BRANCH 136 142
ATOM    142  CG2 NON d   1      55.935 -22.807 -19.817  0.00  0.00    -0.071 C 
ATOM    143  H20 NON d   1      56.286 -23.561 -19.097  0.00  0.00     0.028 H 
ATOM    144  H21 NON d   1      56.519 -21.883 -19.694  0.00  0.00     0.028 H 
ATOM    145  H22 NON d   1      56.064 -23.189 -20.840  0.00  0.00     0.028 H 
ENDBRANCH 136 142
ENDBRANCH  20 136
BRANCH  26 146
ATOM    146  CB1 NON d   1      49.150 -20.090 -17.158  0.00  0.00     0.051 C 
ATOM    147  H23 NON d   1      48.702 -20.431 -16.213  0.00  0.00     0.082 H 
ATOM    148  H24 NON d   1      48.435 -20.245 -17.980  0.00  0.00     0.082 H 
BRANCH 146 149
ATOM    149  OB2 NON d   1      49.438 -18.716 -17.057  0.00  0.00    -0.391 OA
BRANCH 149 150
ATOM    150  CB3 NON d   1      48.170 -18.017 -16.776  0.00  0.00     0.004 C 
ATOM    151  H25 NON d   1      48.358 -16.937 -16.690  0.00  0.00     0.066 H 
ATOM    152  H26 NON d   1      47.746 -18.391 -15.832  0.00  0.00     0.066 H 
ATOM    153  H27 NON d   1      47.460 -18.202 -17.596  0.00  0.00     0.066 H 
ENDBRANCH 149 150
ENDBRANCH 146 149
ENDBRANCH  26 146
TORSDOF 23
