REMARK WARNING: 32 MAX_TORS EXCEEDED!!!
REMARK  55 active torsions:
REMARK  status: ('A' for Active; 'I' for Inactive)
REMARK    1  A    between atoms: N_1  and  CA_2 
REMARK    2  A    between atoms: CA_2  and  C_3 
REMARK    3  A    between atoms: CA_2  and  CB_5 
REMARK       I    between atoms: C_3  and  N_6 
REMARK    4  A    between atoms: N_6  and  CA_7 
REMARK    5  A    between atoms: CA_7  and  C_8 
REMARK    6  A    between atoms: CA_7  and  CB_10 
REMARK       I    between atoms: C_8  and  N_11 
REMARK    7  A    between atoms: N_11  and  CA_12 
REMARK    8  A    between atoms: CA_12  and  C_13 
REMARK    9  A    between atoms: CA_12  and  CB_15 
REMARK       I    between atoms: C_13  and  N_18 
REMARK   10  A    between atoms: CB_15  and  OG1_16 
REMARK   11  A    between atoms: CB_15  and  CG2_17 
REMARK   12  A    between atoms: N_18  and  CA_19 
REMARK   13  A    between atoms: CA_19  and  C_20 
REMARK   14  A    between atoms: CA_19  and  CB_22 
REMARK       I    between atoms: C_20  and  N_23 
REMARK   15  A    between atoms: N_23  and  CA_24 
REMARK   16  A    between atoms: CA_24  and  C_25 
REMARK   17  A    between atoms: CA_24  and  CB_27 
REMARK       I    between atoms: C_25  and  N_28 
REMARK   18  A    between atoms: N_28  and  CA_29 
REMARK   19  A    between atoms: CA_29  and  C_30 
REMARK   20  A    between atoms: CA_29  and  CB_32 
REMARK       I    between atoms: C_30  and  N_36 
REMARK   21  A    between atoms: CB_32  and  CG_33 
REMARK   22  A    between atoms: CG_33  and  CD1_34 
REMARK   23  A    between atoms: CG_33  and  CD2_35 
REMARK   24  A    between atoms: N_36  and  CA_37 
REMARK   25  A    between atoms: CA_37  and  C_38 
REMARK   26  A    between atoms: CA_37  and  CB_40 
REMARK       I    between atoms: C_38  and  N_44 
REMARK   27  A    between atoms: CB_40  and  CG_41 
REMARK   28  A    between atoms: N_44  and  CA_45 
REMARK   29  A    between atoms: CA_45  and  C_46 
REMARK   30  A    between atoms: CA_45  and  CB_48 
REMARK       I    between atoms: C_46  and  N_49 
REMARK   31  A    between atoms: N_49  and  CA_50 
REMARK   32  A    between atoms: CA_50  and  C_51 
REMARK   33  A    between atoms: CA_50  and  CB_53 
REMARK       I    between atoms: C_51  and  N_57 
REMARK   34  A    between atoms: CB_53  and  CG_54 
REMARK   35  A    between atoms: CG_54  and  CD1_55 
REMARK   36  A    between atoms: CG_54  and  CD2_56 
REMARK   37  A    between atoms: N_57  and  CA_58 
REMARK   38  A    between atoms: CA_58  and  C_59 
REMARK   39  A    between atoms: CA_58  and  CB_61 
REMARK       I    between atoms: C_59  and  N_65 
REMARK   40  A    between atoms: CB_61  and  CG_62 
REMARK   41  A    between atoms: CG_62  and  SD_63 
REMARK   42  A    between atoms: SD_63  and  CE_64 
REMARK   43  A    between atoms: N_65  and  CA_66 
REMARK   44  A    between atoms: CA_66  and  C_67 
REMARK   45  A    between atoms: CA_66  and  CB_69 
REMARK       I    between atoms: C_67  and  N_70 
REMARK   46  A    between atoms: N_70  and  CA_71 
REMARK   47  A    between atoms: CA_71  and  C_72 
REMARK   48  A    between atoms: CA_71  and  CB_74 
REMARK       I    between atoms: C_72  and  N_76 
REMARK   49  A    between atoms: CB_74  and  OG_75 
REMARK   50  A    between atoms: N_76  and  CA_77 
REMARK   51  A    between atoms: CA_77  and  C_78 
REMARK   52  A    between atoms: CA_77  and  CB_80 
REMARK   53  A    between atoms: CB_80  and  CG_81 
REMARK   54  A    between atoms: CG_81  and  CD1_82 
REMARK   55  A    between atoms: CG_81  and  CD2_83 
ROOT
ATOM      1  N   GLU d   1     -18.069  -1.527  47.557  0.00  0.00    -0.346 N 
ATOM      2  H   GLU d   1     -17.249  -1.233  47.066  0.00  0.00     0.163 HD
ATOM      3  C   ASP d   1     -18.460  -2.796  47.450  0.00  0.00     0.241 C 
ATOM      4  O   ASP d   1     -19.370  -3.287  48.114  0.00  0.00    -0.271 OA
ENDROOT
BRANCH   3   5
ATOM      5  CA  ASP d   1     -17.670  -3.652  46.484  0.00  0.00     0.098 C 
ATOM      6  H   ASP d   1     -18.285  -4.498  46.144  0.00  0.00     0.088 H 
BRANCH   5   7
ATOM      7  N   ASP d   1     -17.290  -2.847  45.327  0.00  0.00    -0.346 N 
ATOM      8  C   LEU d   1     -18.211  -2.203  44.611  0.00  0.00     0.241 C 
ATOM      9  O   LEU d   1     -19.419  -2.280  44.849  0.00  0.00    -0.271 OA
ATOM     10  H   ASP d   1     -16.326  -2.778  45.069  0.00  0.00     0.163 HD
BRANCH   8  11
ATOM     11  CA  LEU d   1     -17.701  -1.358  43.448  0.00  0.00     0.089 C 
ATOM     12  H   LEU d   1     -18.537  -0.748  43.076  0.00  0.00     0.087 H 
BRANCH  11  13
ATOM     13  N   LEU d   1     -16.635  -0.450  43.885  0.00  0.00    -0.346 N 
ATOM     14  C   GLU d   1     -16.890   0.684  44.539  0.00  0.00     0.240 C 
ATOM     15  O   GLU d   1     -18.032   1.030  44.874  0.00  0.00    -0.271 OA
ATOM     16  H   LEU d   1     -15.685  -0.689  43.686  0.00  0.00     0.163 HD
BRANCH  14  17
ATOM     17  CA  GLU d   1     -15.663   1.515  44.939  0.00  0.00     0.086 C 
ATOM     18  H   GLU d   1     -15.834   1.945  45.937  0.00  0.00     0.086 H 
BRANCH  17  19
ATOM     19  N   GLU d   1     -14.463   0.681  44.979  0.00  0.00    -0.346 N 
ATOM     20  C   ARG d   1     -14.383  -0.368  45.791  0.00  0.00     0.240 C 
ATOM     21  O   ARG d   1     -15.311  -0.698  46.502  0.00  0.00    -0.271 OA
ATOM     22  H   GLU d   1     -13.690   0.903  44.386  0.00  0.00     0.163 HD
BRANCH  20  23
ATOM     23  CA  ARG d   1     -13.115  -1.202  45.795  0.00  0.00     0.086 C 
ATOM     24  H   ARG d   1     -13.271  -2.035  46.496  0.00  0.00     0.086 H 
BRANCH  23  25
ATOM     25  N   ARG d   1     -12.812  -1.783  44.483  0.00  0.00    -0.346 N 
ATOM     26  C   THR d   1     -13.708  -2.505  43.801  0.00  0.00     0.243 C 
ATOM     27  O   THR d   1     -14.886  -2.611  44.151  0.00  0.00    -0.271 OA
ATOM     28  H   ARG d   1     -11.906  -1.635  44.086  0.00  0.00     0.163 HD
BRANCH  26  29
ATOM     29  CA  THR d   1     -13.244  -3.158  42.495  0.00  0.00     0.113 C 
ATOM     30  H   THR d   1     -14.127  -3.458  41.911  0.00  0.00     0.091 H 
BRANCH  29  31
ATOM     31  N   THR d   1     -12.457  -2.221  41.697  0.00  0.00    -0.344 N 
ATOM     32  C   ALA d   1     -12.863  -0.977  41.459  0.00  0.00     0.240 C 
ATOM     33  O   ALA d   1     -13.964  -0.550  41.812  0.00  0.00    -0.271 OA
ATOM     34  H   THR d   1     -11.584  -2.525  41.317  0.00  0.00     0.163 HD
BRANCH  32  35
ATOM     35  CA  ALA d   1     -11.880  -0.076  40.702  0.00  0.00     0.086 C 
ATOM     36  H   ALA d   1     -12.256   0.952  40.809  0.00  0.00     0.086 H 
BRANCH  35  37
ATOM     37  N   ALA d   1     -10.502  -0.072  41.223  0.00  0.00    -0.346 N 
ATOM     38  C   SER d   1     -10.207  -0.056  42.527  0.00  0.00     0.248 C 
ATOM     39  O   SER d   1     -11.041  -0.203  43.412  0.00  0.00    -0.271 OA
ATOM     40  H   ALA d   1      -9.748  -0.082  40.567  0.00  0.00     0.163 HD
BRANCH  38  41
ATOM     41  CA  SER d   1      -8.744   0.151  42.894  0.00  0.00     0.172 C 
ATOM     42  H   SER d   1      -8.700   0.337  43.977  0.00  0.00     0.098 H 
BRANCH  41  43
ATOM     43  N   SER d   1      -7.921  -1.024  42.622  0.00  0.00    -0.067 N 
ATOM     44  H   SER d   1      -6.966  -0.833  42.882  0.00  0.00     0.275 HD
ATOM     45  H   SER d   1      -7.964  -1.244  41.639  0.00  0.00     0.275 HD
ATOM     46  H   SER d   1      -8.265  -1.806  43.157  0.00  0.00     0.275 HD
ENDBRANCH  41  43
BRANCH  41  47
ATOM     47  CB  SER d   1      -8.191   1.382  42.188  0.00  0.00    -0.042 C 
ATOM     48  H   SER d   1      -8.829   2.250  42.410  0.00  0.00     0.030 H 
ATOM     49  H   SER d   1      -8.176   1.206  41.102  0.00  0.00     0.030 H 
ATOM     50  H   SER d   1      -7.168   1.579  42.542  0.00  0.00     0.030 H 
ENDBRANCH  41  47
ENDBRANCH  38  41
ENDBRANCH  35  37
BRANCH  35  51
ATOM     51  CB  ALA d   1     -11.885  -0.408  39.226  0.00  0.00    -0.049 C 
ATOM     52  H   ALA d   1     -12.920  -0.407  38.853  0.00  0.00     0.030 H 
ATOM     53  H   ALA d   1     -11.441  -1.403  39.072  0.00  0.00     0.030 H 
ATOM     54  H   ALA d   1     -11.297   0.344  38.679  0.00  0.00     0.030 H 
ENDBRANCH  35  51
ENDBRANCH  32  35
ENDBRANCH  29  31
BRANCH  29  55
ATOM     55  CB  THR d   1     -12.430  -4.408  42.842  0.00  0.00     0.060 C 
ATOM     56  H   THR d   1     -13.017  -5.063  43.504  0.00  0.00     0.086 H 
BRANCH  55  57
ATOM     57  OG1 THR d   1     -11.216  -4.006  43.489  0.00  0.00    -0.393 OA
ATOM     58  H   THR d   1     -10.705  -4.776  43.708  0.00  0.00     0.210 HD
ENDBRANCH  55  57
BRANCH  55  59
ATOM     59  CG2 THR d   1     -12.041  -5.172  41.545  0.00  0.00    -0.050 C 
ATOM     60  H   THR d   1     -11.457  -6.067  41.808  0.00  0.00     0.031 H 
ATOM     61  H   THR d   1     -11.437  -4.516  40.900  0.00  0.00     0.031 H 
ATOM     62  H   THR d   1     -12.953  -5.473  41.009  0.00  0.00     0.031 H 
ENDBRANCH  55  59
ENDBRANCH  29  55
ENDBRANCH  26  29
ENDBRANCH  23  25
BRANCH  23  63
ATOM     63  CB  ARG d   1     -11.963  -0.397  46.292  0.00  0.00    -0.049 C 
ATOM     64  H   ARG d   1     -12.211   0.029  47.276  0.00  0.00     0.030 H 
ATOM     65  H   ARG d   1     -11.751   0.417  45.583  0.00  0.00     0.030 H 
ATOM     66  H   ARG d   1     -11.077  -1.043  46.385  0.00  0.00     0.030 H 
ENDBRANCH  23  63
ENDBRANCH  20  23
ENDBRANCH  17  19
BRANCH  17  67
ATOM     67  CB  GLU d   1     -15.458   2.631  43.948  0.00  0.00    -0.049 C 
ATOM     68  H   GLU d   1     -16.359   3.261  43.914  0.00  0.00     0.030 H 
ATOM     69  H   GLU d   1     -15.271   2.206  42.951  0.00  0.00     0.030 H 
ATOM     70  H   GLU d   1     -14.595   3.240  44.255  0.00  0.00     0.030 H 
ENDBRANCH  17  67
ENDBRANCH  14  17
ENDBRANCH  11  13
BRANCH  11  71
ATOM     71  CB  LEU d   1     -17.219  -2.261  42.301  0.00  0.00    -0.035 C 
ATOM     72  H   LEU d   1     -16.390  -2.870  42.690  0.00  0.00     0.037 H 
ATOM     73  H   LEU d   1     -16.848  -1.604  41.501  0.00  0.00     0.037 H 
BRANCH  71  74
ATOM     74  CG  LEU d   1     -18.225  -3.216  41.672  0.00  0.00    -0.059 C 
ATOM     75  H   LEU d   1     -18.832  -3.678  42.464  0.00  0.00     0.038 H 
BRANCH  74  76
ATOM     76  CD1 LEU d   1     -19.124  -2.450  40.736  0.00  0.00    -0.073 C 
ATOM     77  H   LEU d   1     -19.851  -3.138  40.281  0.00  0.00     0.028 H 
ATOM     78  H   LEU d   1     -18.518  -1.982  39.946  0.00  0.00     0.028 H 
ATOM     79  H   LEU d   1     -19.659  -1.670  41.298  0.00  0.00     0.028 H 
ENDBRANCH  74  76
BRANCH  74  80
ATOM     80  CD2 LEU d   1     -17.499  -4.292  40.911  0.00  0.00    -0.073 C 
ATOM     81  H   LEU d   1     -16.844  -4.848  41.598  0.00  0.00     0.028 H 
ATOM     82  H   LEU d   1     -16.892  -3.833  40.117  0.00  0.00     0.028 H 
ATOM     83  H   LEU d   1     -18.230  -4.981  40.463  0.00  0.00     0.028 H 
ENDBRANCH  74  80
ENDBRANCH  71  74
ENDBRANCH  11  71
ENDBRANCH   8  11
ENDBRANCH   5   7
BRANCH   5  84
ATOM     84  CB  ASP d   1     -16.456  -4.182  47.242  0.00  0.00     0.043 C 
ATOM     85  H   ASP d   1     -16.810  -4.791  48.087  0.00  0.00     0.052 H 
ATOM     86  H   ASP d   1     -15.881  -3.325  47.623  0.00  0.00     0.052 H 
BRANCH  84  87
ATOM     87  CG  ASP d   1     -15.550  -5.025  46.393  0.00  0.00     0.175 C 
ATOM     88  OD1 ASP d   1     -15.927  -6.168  46.061  0.00  0.00    -0.648 OA
ATOM     89  OD2 ASP d   1     -14.436  -4.551  46.096  0.00  0.00    -0.648 OA
ENDBRANCH  84  87
ENDBRANCH   5  84
ENDBRANCH   3   5
BRANCH   1  90
ATOM     90  CA  GLU d   1     -18.790  -0.555  48.361  0.00  0.00     0.086 C 
ATOM     91  H   GLU d   1     -18.881  -0.932  49.390  0.00  0.00     0.086 H 
BRANCH  90  92
ATOM     92  C   GLU d   1     -20.178  -0.367  47.772  0.00  0.00     0.240 C 
ATOM     93  O   GLU d   1     -21.184  -0.410  48.486  0.00  0.00    -0.271 OA
ATOM     94  N   LEU d   1     -20.226  -0.163  46.460  0.00  0.00    -0.346 N 
ATOM     95  H   LEU d   1     -19.373  -0.087  45.944  0.00  0.00     0.163 HD
BRANCH  94  96
ATOM     96  CA  LEU d   1     -21.492  -0.049  45.762  0.00  0.00     0.089 C 
ATOM     97  H   LEU d   1     -22.025   0.841  46.128  0.00  0.00     0.087 H 
BRANCH  96  98
ATOM     98  C   LEU d   1     -22.346  -1.285  46.039  0.00  0.00     0.241 C 
ATOM     99  O   LEU d   1     -23.564  -1.197  46.151  0.00  0.00    -0.271 OA
ATOM    100  N   MET d   1     -21.675  -2.427  46.177  0.00  0.00    -0.346 N 
ATOM    101  H   MET d   1     -20.676  -2.385  46.167  0.00  0.00     0.163 HD
BRANCH 100 102
ATOM    102  CA  MET d   1     -22.302  -3.739  46.342  0.00  0.00     0.090 C 
ATOM    103  H   MET d   1     -23.062  -3.869  45.558  0.00  0.00     0.087 H 
BRANCH 102 104
ATOM    104  C   MET d   1     -22.962  -3.891  47.701  0.00  0.00     0.241 C 
ATOM    105  O   MET d   1     -24.092  -4.360  47.802  0.00  0.00    -0.271 OA
ATOM    106  N   ALA d   1     -22.226  -3.511  48.742  0.00  0.00    -0.346 N 
ATOM    107  H   ALA d   1     -21.307  -3.154  48.577  0.00  0.00     0.163 HD
BRANCH 106 108
ATOM    108  CA  ALA d   1     -22.708  -3.596  50.110  0.00  0.00     0.086 C 
ATOM    109  H   ALA d   1     -22.756  -4.656  50.400  0.00  0.00     0.086 H 
BRANCH 108 110
ATOM    110  C   ALA d   1     -24.108  -3.004  50.210  0.00  0.00     0.240 C 
ATOM    111  O   ALA d   1     -25.013  -3.653  50.723  0.00  0.00    -0.271 OA
ATOM    112  N   SER d   1     -24.307  -1.794  49.690  0.00  0.00    -0.344 N 
ATOM    113  H   SER d   1     -23.568  -1.329  49.203  0.00  0.00     0.163 HD
BRANCH 112 114
ATOM    114  CA  SER d   1     -25.621  -1.144  49.836  0.00  0.00     0.109 C 
ATOM    115  H   SER d   1     -25.727  -0.917  50.907  0.00  0.00     0.090 H 
BRANCH 114 116
ATOM    116  C   SER d   1     -26.805  -2.078  49.479  0.00  0.00     0.243 C 
ATOM    117  O   SER d   1     -27.925  -1.903  49.971  0.00  0.00    -0.271 OA
ATOM    118  N   LEU d   1     -26.539  -3.094  48.657  0.00  0.00    -0.345 N 
ATOM    119  H   LEU d   1     -25.624  -3.167  48.259  0.00  0.00     0.163 HD
BRANCH 118 120
ATOM    120  CA  LEU d   1     -27.545  -4.112  48.315  0.00  0.00     0.096 C 
ATOM    121  H   LEU d   1     -28.428  -3.589  47.920  0.00  0.00     0.089 H 
BRANCH 120 122
ATOM    122  C   LEU d   1     -27.988  -4.920  49.546  0.00  0.00     0.196 C 
ATOM    123  O   LEU d   1     -27.639  -6.097  49.698  0.00  0.00    -0.646 OA
ATOM    124  O1  LEU d   1     -28.719  -4.374  50.415  0.00  0.00    -0.646 OA
ENDBRANCH 120 122
BRANCH 120 125
ATOM    125  CB  LEU d   1     -27.021  -5.057  47.219  0.00  0.00    -0.034 C 
ATOM    126  H   LEU d   1     -27.226  -6.083  47.558  0.00  0.00     0.037 H 
ATOM    127  H   LEU d   1     -25.934  -4.902  47.157  0.00  0.00     0.037 H 
BRANCH 125 128
ATOM    128  CG  LEU d   1     -27.571  -4.941  45.789  0.00  0.00    -0.059 C 
ATOM    129  H   LEU d   1     -28.208  -5.819  45.607  0.00  0.00     0.038 H 
BRANCH 128 130
ATOM    130  CD1 LEU d   1     -28.434  -3.705  45.604  0.00  0.00    -0.073 C 
ATOM    131  H   LEU d   1     -28.803  -3.667  44.568  0.00  0.00     0.028 H 
ATOM    132  H   LEU d   1     -27.836  -2.806  45.814  0.00  0.00     0.028 H 
ATOM    133  H   LEU d   1     -29.288  -3.747  46.296  0.00  0.00     0.028 H 
ENDBRANCH 128 130
BRANCH 128 134
ATOM    134  CD2 LEU d   1     -26.436  -4.971  44.771  0.00  0.00    -0.073 C 
ATOM    135  H   LEU d   1     -25.828  -5.874  44.927  0.00  0.00     0.028 H 
ATOM    136  H   LEU d   1     -25.806  -4.078  44.898  0.00  0.00     0.028 H 
ATOM    137  H   LEU d   1     -26.856  -4.982  43.754  0.00  0.00     0.028 H 
ENDBRANCH 128 134
ENDBRANCH 125 128
ENDBRANCH 120 125
ENDBRANCH 118 120
ENDBRANCH 114 116
BRANCH 114 138
ATOM    138  CB  SER d   1     -25.699   0.213  49.102  0.00  0.00     0.044 C 
ATOM    139  H   SER d   1     -24.845   0.832  49.415  0.00  0.00     0.077 H 
ATOM    140  H   SER d   1     -26.637   0.713  49.385  0.00  0.00     0.077 H 
BRANCH 138 141
ATOM    141  OG  SER d   1     -25.666   0.076  47.694  0.00  0.00    -0.398 OA
ATOM    142  H   SER d   1     -24.856  -0.348  47.437  0.00  0.00     0.209 HD
ENDBRANCH 138 141
ENDBRANCH 114 138
ENDBRANCH 112 114
ENDBRANCH 108 110
BRANCH 108 143
ATOM    143  CB  ALA d   1     -21.753  -2.883  51.051  0.00  0.00    -0.049 C 
ATOM    144  H   ALA d   1     -22.131  -2.956  52.081  0.00  0.00     0.030 H 
ATOM    145  H   ALA d   1     -21.676  -1.824  50.763  0.00  0.00     0.030 H 
ATOM    146  H   ALA d   1     -20.760  -3.352  50.991  0.00  0.00     0.030 H 
ENDBRANCH 108 143
ENDBRANCH 106 108
ENDBRANCH 102 104
BRANCH 102 147
ATOM    147  CB  MET d   1     -21.236  -4.831  46.209  0.00  0.00    -0.030 C 
ATOM    148  H   MET d   1     -20.960  -5.165  47.220  0.00  0.00     0.037 H 
ATOM    149  H   MET d   1     -20.357  -4.392  45.715  0.00  0.00     0.037 H 
BRANCH 147 150
ATOM    150  CG  MET d   1     -21.665  -6.048  45.412  0.00  0.00    -0.021 C 
ATOM    151  H   MET d   1     -22.669  -6.358  45.739  0.00  0.00     0.049 H 
ATOM    152  H   MET d   1     -20.952  -6.866  45.591  0.00  0.00     0.049 H 
BRANCH 150 153
ATOM    153  SD  MET d   1     -21.706  -5.673  43.647  0.00  0.00    -0.173 SA
BRANCH 153 154
ATOM    154  CE  MET d   1     -23.135  -6.650  43.154  0.00  0.00    -0.035 C 
ATOM    155  H   MET d   1     -23.305  -6.531  42.074  0.00  0.00     0.041 H 
ATOM    156  H   MET d   1     -24.023  -6.306  43.705  0.00  0.00     0.041 H 
ATOM    157  H   MET d   1     -22.951  -7.710  43.382  0.00  0.00     0.041 H 
ENDBRANCH 153 154
ENDBRANCH 150 153
ENDBRANCH 147 150
ENDBRANCH 102 147
ENDBRANCH 100 102
ENDBRANCH  96  98
BRANCH  96 158
ATOM    158  CB  LEU d   1     -21.243   0.106  44.267  0.00  0.00    -0.035 C 
ATOM    159  H   LEU d   1     -21.701  -0.758  43.763  0.00  0.00     0.037 H 
ATOM    160  H   LEU d   1     -20.155   0.089  44.108  0.00  0.00     0.037 H 
BRANCH 158 161
ATOM    161  CG  LEU d   1     -21.785   1.365  43.606  0.00  0.00    -0.059 C 
ATOM    162  H   LEU d   1     -21.394   2.243  44.141  0.00  0.00     0.038 H 
BRANCH 161 163
ATOM    163  CD1 LEU d   1     -21.331   1.431  42.162  0.00  0.00    -0.073 C 
ATOM    164  H   LEU d   1     -21.728   2.344  41.694  0.00  0.00     0.028 H 
ATOM    165  H   LEU d   1     -21.704   0.549  41.620  0.00  0.00     0.028 H 
ATOM    166  H   LEU d   1     -20.232   1.448  42.124  0.00  0.00     0.028 H 
ENDBRANCH 161 163
BRANCH 161 167
ATOM    167  CD2 LEU d   1     -23.289   1.381  43.682  0.00  0.00    -0.073 C 
ATOM    168  H   LEU d   1     -23.603   1.333  44.735  0.00  0.00     0.028 H 
ATOM    169  H   LEU d   1     -23.693   0.514  43.139  0.00  0.00     0.028 H 
ATOM    170  H   LEU d   1     -23.669   2.308  43.228  0.00  0.00     0.028 H 
ENDBRANCH 161 167
ENDBRANCH 158 161
ENDBRANCH  96 158
ENDBRANCH  94  96
ENDBRANCH  90  92
BRANCH  90 171
ATOM    171  CB  GLU d   1     -18.042   0.767  48.386  0.00  0.00    -0.049 C 
ATOM    172  H   GLU d   1     -18.599   1.492  48.998  0.00  0.00     0.030 H 
ATOM    173  H   GLU d   1     -17.943   1.152  47.360  0.00  0.00     0.030 H 
ATOM    174  H   GLU d   1     -17.042   0.614  48.818  0.00  0.00     0.030 H 
ENDBRANCH  90 171
ENDBRANCH   1  90
TORSDOF 55
