REMARK  16 active torsions:
REMARK  status: ('A' for Active; 'I' for Inactive)
REMARK    1  A    between atoms: C1_2  and  C2_4 
REMARK    2  A    between atoms: C2_4  and  C3_5 
REMARK    3  A    between atoms: C3_5  and  C4_6 
REMARK    4  A    between atoms: C4_6  and  C5_7 
REMARK    5  A    between atoms: C5_7  and  O3_8 
REMARK    6  A    between atoms: C5_7  and  C6_9 
REMARK    7  A    between atoms: C6_9  and  C7_10 
REMARK    8  A    between atoms: C8_11  and  C9_12 
REMARK    9  A    between atoms: C10_13  and  C11_14 
REMARK   10  A    between atoms: C12_15  and  C13_16 
REMARK   11  A    between atoms: C13_16  and  C14_17 
REMARK   12  A    between atoms: C15_18  and  C16_19 
REMARK   13  A    between atoms: C16_19  and  C17_20 
REMARK   14  A    between atoms: C17_20  and  C18_21 
REMARK   15  A    between atoms: C18_21  and  C19_22 
REMARK   16  A    between atoms: C19_22  and  C20_23 
ROOT
ATOM      1  C9  EAH d   1      23.175  -9.879  14.976  0.00  0.00    -0.083 C 
ATOM      2  C10 EAH d   1      23.143  -9.356  13.745  0.00  0.00    -0.083 C 
ATOM      3  H13 EAH d   1      22.212  -9.975  15.475  0.00  0.00     0.083 H 
ATOM      4  H14 EAH d   1      24.008  -9.192  13.104  0.00  0.00     0.083 H 
ENDROOT
BRANCH   2   5
ATOM      5  C11 EAH d   1      21.761  -9.041  13.402  0.00  0.00    -0.086 C 
ATOM      6  C12 EAH d   1      21.189  -8.496  12.334  0.00  0.00    -0.100 C 
ATOM      7  H16 EAH d   1      20.106  -8.410  12.407  0.00  0.00     0.077 H 
ATOM      8  H15 EAH d   1      21.051  -9.308  14.183  0.00  0.00     0.083 H 
BRANCH   6   9
ATOM      9  C13 EAH d   1      21.757  -7.976  11.044  0.00  0.00    -0.035 C 
ATOM     10  H17 EAH d   1      22.486  -8.678  10.613  0.00  0.00     0.044 H 
ATOM     11  H18 EAH d   1      22.230  -6.992  11.179  0.00  0.00     0.044 H 
BRANCH   9  12
ATOM     12  C14 EAH d   1      20.504  -7.879  10.189  0.00  0.00    -0.103 C 
ATOM     13  C15 EAH d   1      20.177  -6.868   9.378  0.00  0.00    -0.106 C 
ATOM     14  H20 EAH d   1      19.236  -6.917   8.832  0.00  0.00     0.076 H 
ATOM     15  H19 EAH d   1      19.806  -8.713  10.242  0.00  0.00     0.076 H 
BRANCH  13  16
ATOM     16  C16 EAH d   1      21.065  -5.660   9.192  0.00  0.00    -0.050 C 
ATOM     17  H21 EAH d   1      20.981  -5.301   8.155  0.00  0.00     0.038 H 
ATOM     18  H22 EAH d   1      22.109  -5.938   9.401  0.00  0.00     0.038 H 
BRANCH  16  19
ATOM     19  C17 EAH d   1      20.638  -4.558  10.142  0.00  0.00    -0.062 C 
ATOM     20  H23 EAH d   1      20.728  -4.917  11.178  0.00  0.00     0.033 H 
ATOM     21  H24 EAH d   1      19.591  -4.288   9.937  0.00  0.00     0.033 H 
BRANCH  19  22
ATOM     22  C18 EAH d   1      21.520  -3.326   9.959  0.00  0.00    -0.065 C 
ATOM     23  H25 EAH d   1      21.169  -2.750   9.090  0.00  0.00     0.033 H 
ATOM     24  H26 EAH d   1      22.561  -3.642   9.793  0.00  0.00     0.033 H 
BRANCH  22  25
ATOM     25  C19 EAH d   1      21.447  -2.454  11.209  0.00  0.00    -0.069 C 
ATOM     26  H27 EAH d   1      22.113  -2.876  11.976  0.00  0.00     0.032 H 
ATOM     27  H28 EAH d   1      20.412  -2.454  11.582  0.00  0.00     0.032 H 
BRANCH  25  28
ATOM     28  C20 EAH d   1      21.864  -1.033  10.931  0.00  0.00    -0.077 C 
ATOM     29  H29 EAH d   1      21.796  -0.443  11.857  0.00  0.00     0.027 H 
ATOM     30  H30 EAH d   1      21.200  -0.598  10.170  0.00  0.00     0.027 H 
ATOM     31  H31 EAH d   1      22.901  -1.020  10.563  0.00  0.00     0.027 H 
ENDBRANCH  25  28
ENDBRANCH  22  25
ENDBRANCH  19  22
ENDBRANCH  16  19
ENDBRANCH  13  16
ENDBRANCH   9  12
ENDBRANCH   6   9
ENDBRANCH   2   5
BRANCH   1  32
ATOM     32  C8  EAH d   1      24.331 -10.338  15.738  0.00  0.00    -0.086 C 
ATOM     33  C7  EAH d   1      24.066 -10.950  16.912  0.00  0.00    -0.101 C 
ATOM     34  H11 EAH d   1      23.023 -11.062  17.206  0.00  0.00     0.076 H 
ATOM     35  H12 EAH d   1      25.350 -10.195  15.380  0.00  0.00     0.083 H 
BRANCH  33  36
ATOM     36  C6  EAH d   1      25.125 -11.487  17.840  0.00  0.00    -0.026 C 
ATOM     37  H9  EAH d   1      25.683 -10.643  18.273  0.00  0.00     0.042 H 
ATOM     38  H10 EAH d   1      24.639 -12.057  18.645  0.00  0.00     0.042 H 
BRANCH  36  39
ATOM     39  C5  EAH d   1      26.101 -12.402  17.101  0.00  0.00     0.038 C 
ATOM     40  H7  EAH d   1      26.868 -11.761  16.642  0.00  0.00     0.083 H 
BRANCH  39  41
ATOM     41  C4  EAH d   1      25.440 -13.195  15.965  0.00  0.00    -0.040 C 
ATOM     42  H5  EAH d   1      24.490 -12.701  15.712  0.00  0.00     0.036 H 
ATOM     43  H6  EAH d   1      26.111 -13.167  15.094  0.00  0.00     0.036 H 
BRANCH  41  44
ATOM     44  C3  EAH d   1      25.142 -14.656  16.285  0.00  0.00    -0.054 C 
ATOM     45  H3  EAH d   1      24.977 -15.201  15.344  0.00  0.00     0.033 H 
ATOM     46  H4  EAH d   1      26.005 -15.088  16.813  0.00  0.00     0.033 H 
BRANCH  44  47
ATOM     47  C2  EAH d   1      23.903 -14.799  17.162  0.00  0.00     0.016 C 
ATOM     48  H1  EAH d   1      24.208 -14.965  18.206  0.00  0.00     0.049 H 
ATOM     49  H2  EAH d   1      23.299 -13.882  17.098  0.00  0.00     0.049 H 
BRANCH  47  50
ATOM     50  C1  EAH d   1      23.088 -15.974  16.682  0.00  0.00     0.172 C 
ATOM     51  O1  EAH d   1      23.692 -16.932  16.177  0.00  0.00    -0.648 OA
ATOM     52  O2  EAH d   1      21.846 -15.958  16.807  0.00  0.00    -0.648 OA
ENDBRANCH  47  50
ENDBRANCH  44  47
ENDBRANCH  41  44
ENDBRANCH  39  41
BRANCH  39  53
ATOM     53  O3  EAH d   1      26.760 -13.266  18.040  0.00  0.00    -0.395 OA
ATOM     54  H8  EAH d   1      27.156 -12.742  18.727  0.00  0.00     0.210 HD
ENDBRANCH  39  53
ENDBRANCH  36  39
ENDBRANCH  33  36
ENDBRANCH   1  32
TORSDOF 16
