REMARK  21 active torsions:
REMARK  status: ('A' for Active; 'I' for Inactive)
REMARK    1  A    between atoms: N_1  and  CA_2 
REMARK    2  A    between atoms: CA_2  and  CB_3 
REMARK    3  A    between atoms: CA_2  and  C_5 
REMARK    4  A    between atoms: CB_3  and  OG_4 
REMARK    5  A    between atoms: OG_4  and  P_7 
REMARK       I    between atoms: C_5  and  N_11 
REMARK    6  A    between atoms: N_11  and  CA_12 
REMARK    7  A    between atoms: CA_12  and  C_13 
REMARK    8  A    between atoms: CA_12  and  CB_15 
REMARK       I    between atoms: C_13  and  N_20 
REMARK    9  A    between atoms: CB_15  and  CG_16 
REMARK   10  A    between atoms: CG_16  and  CD_17 
REMARK       I    between atoms: CD_17  and  NE2_19 
REMARK   11  A    between atoms: N_20  and  CA_21 
REMARK   12  A    between atoms: CA_21  and  C_22 
REMARK   13  A    between atoms: CA_21  and  CB_24 
REMARK       I    between atoms: C_22  and  N_29 
REMARK   14  A    between atoms: CB_24  and  CG_25 
REMARK   15  A    between atoms: CG_25  and  CD_26 
REMARK   16  A    between atoms: N_29  and  CA_30 
REMARK   17  A    between atoms: CA_30  and  C_31 
REMARK   18  A    between atoms: CA_30  and  CB_34 
REMARK   19  A    between atoms: CB_34  and  CG_35 
REMARK   20  A    between atoms: CZ_40  and  OH_41 
REMARK   21  A    between atoms: OH_41  and  P_42 
ROOT
ATOM      1  CA  GLU d   1     -11.462  -8.978 -25.780  0.00  0.00     0.090 C 
ATOM      2  H   GLU d   1     -11.305  -9.584 -24.888  0.00  0.00     0.087 H 
ENDROOT
BRANCH   1   3
ATOM      3  N   GLU d   1     -12.817  -8.471 -25.834  0.00  0.00    -0.346 N 
ATOM      4  C   GLN d   1     -13.530  -8.225 -24.747  0.00  0.00     0.241 C 
ATOM      5  O   GLN d   1     -13.176  -8.542 -23.617  0.00  0.00    -0.271 OA
ATOM      6  H   GLU d   1     -13.239  -8.296 -26.746  0.00  0.00     0.163 HD
BRANCH   4   7
ATOM      7  CA  GLN d   1     -14.833  -7.492 -24.985  0.00  0.00     0.090 C 
ATOM      8  H   GLN d   1     -15.130  -7.642 -26.023  0.00  0.00     0.087 H 
BRANCH   7   9
ATOM      9  N   GLN d   1     -15.912  -8.007 -24.156  0.00  0.00    -0.346 N 
ATOM     10  C   SEP d   1     -16.384  -9.243 -24.274  0.00  0.00     0.251 C 
ATOM     11  O   SEP d   1     -15.959 -10.059 -25.091  0.00  0.00    -0.271 OA
ATOM     12  H   GLN d   1     -16.324  -7.392 -23.454  0.00  0.00     0.163 HD
BRANCH  10  13
ATOM     13  CA  SEP d   1     -17.504  -9.604 -23.317  0.00  0.00     0.196 C 
ATOM     14  H   SEP d   1     -17.870  -8.683 -22.862  0.00  0.00     0.102 H 
BRANCH  13  15
ATOM     15  N   SEP d   1     -18.625 -10.222 -24.015  0.00  0.00    -0.064 N 
ATOM     16  H   SEP d   1     -19.358 -10.451 -23.343  0.00  0.00     0.275 HD
ATOM     17  H   SEP d   1     -18.991  -9.572 -24.711  0.00  0.00     0.275 HD
ATOM     18  H   SEP d   1     -18.308 -11.074 -24.478  0.00  0.00     0.275 HD
ENDBRANCH  13  15
BRANCH  13  19
ATOM     19  CB  SEP d   1     -16.980 -10.522 -22.219  0.00  0.00     0.067 C 
ATOM     20  H   SEP d   1     -16.045 -10.124 -21.824  0.00  0.00     0.079 H 
ATOM     21  H   SEP d   1     -16.802 -11.517 -22.628  0.00  0.00     0.079 H 
BRANCH  19  22
ATOM     22  OG  SEP d   1     -17.936 -10.600 -21.184  0.00  0.00    -0.280 OA
BRANCH  22  23
ATOM     23  P   SEP d   1     -17.937 -12.041 -20.495  0.00  0.00     0.422 P 
ATOM     24  O1P SEP d   1     -19.225 -12.072 -19.542  0.00  0.00    -0.617 OA
ATOM     25  O2P SEP d   1     -18.004 -13.207 -21.589  0.00  0.00    -0.617 OA
ATOM     26  O3P SEP d   1     -16.587 -12.176 -19.659  0.00  0.00    -0.617 OA
ENDBRANCH  22  23
ENDBRANCH  19  22
ENDBRANCH  13  19
ENDBRANCH  10  13
ENDBRANCH   7   9
BRANCH   7  27
ATOM     27  CB  GLN d   1     -14.612  -6.004 -24.691  0.00  0.00    -0.030 C 
ATOM     28  H   GLN d   1     -13.813  -5.653 -25.343  0.00  0.00     0.037 H 
ATOM     29  H   GLN d   1     -14.373  -5.908 -23.632  0.00  0.00     0.037 H 
BRANCH  27  30
ATOM     30  CG  GLN d   1     -15.829  -5.160 -24.964  0.00  0.00     0.011 C 
ATOM     31  H   GLN d   1     -15.627  -4.146 -24.620  0.00  0.00     0.047 H 
ATOM     32  H   GLN d   1     -16.677  -5.602 -24.442  0.00  0.00     0.047 H 
BRANCH  30  33
ATOM     33  CD  GLN d   1     -16.154  -5.106 -26.439  0.00  0.00     0.215 C 
ATOM     34  OE1 GLN d   1     -15.413  -4.513 -27.225  0.00  0.00    -0.274 OA
ATOM     35  NE2 GLN d   1     -17.253  -5.743 -26.829  0.00  0.00    -0.370 N 
ATOM     36  H   GLN d   1     -17.513  -5.754 -27.815  0.00  0.00     0.159 HD
ATOM     37  H   GLN d   1     -17.837  -6.221 -26.142  0.00  0.00     0.159 HD
ENDBRANCH  30  33
ENDBRANCH  27  30
ENDBRANCH   7  27
ENDBRANCH   4   7
ENDBRANCH   1   3
BRANCH   1  38
ATOM     38  C   GLU d   1     -10.517  -7.783 -25.764  0.00  0.00     0.241 C 
ATOM     39  O   GLU d   1     -10.659  -6.852 -26.565  0.00  0.00    -0.271 OA
ATOM     40  N   PTR d   1      -9.576  -7.795 -24.829  0.00  0.00    -0.344 N 
ATOM     41  H   PTR d   1      -9.554  -8.566 -24.162  0.00  0.00     0.163 HD
BRANCH  40  42
ATOM     42  CA  PTR d   1      -8.572  -6.743 -24.722  0.00  0.00     0.100 C 
ATOM     43  H   PTR d   1      -8.809  -6.005 -25.488  0.00  0.00     0.090 H 
BRANCH  42  44
ATOM     44  C   PTR d   1      -7.188  -7.270 -24.970  0.00  0.00     0.197 C 
ATOM     45  O   PTR d   1      -6.229  -6.509 -25.106  0.00  0.00    -0.646 OA
ATOM     46  OXT PTR d   1      -6.981  -8.485 -25.051  0.00  0.00    -0.646 OA
ENDBRANCH  42  44
BRANCH  42  47
ATOM     47  CB  PTR d   1      -8.615  -6.079 -23.351  0.00  0.00    -0.013 C 
ATOM     48  H   PTR d   1      -7.723  -5.467 -23.217  0.00  0.00     0.043 H 
ATOM     49  H   PTR d   1      -8.651  -6.846 -22.578  0.00  0.00     0.043 H 
BRANCH  47  50
ATOM     50  CG  PTR d   1      -9.827  -5.217 -23.251  0.00  0.00    -0.056 A 
ATOM     51  CD1 PTR d   1     -10.949  -5.646 -22.565  0.00  0.00    -0.074 A 
ATOM     52  CE1 PTR d   1     -12.078  -4.863 -22.502  0.00  0.00    -0.050 A 
ATOM     53  H   PTR d   1     -10.938  -6.616 -22.068  0.00  0.00     0.084 H 
ATOM     54  CZ  PTR d   1     -12.090  -3.646 -23.148  0.00  0.00     0.082 A 
ATOM     55  H   PTR d   1     -12.953  -5.201 -21.947  0.00  0.00     0.087 H 
ATOM     56  CE2 PTR d   1     -10.991  -3.204 -23.846  0.00  0.00    -0.050 A 
ATOM     57  CD2 PTR d   1      -9.870  -3.994 -23.898  0.00  0.00    -0.074 A 
ATOM     58  H   PTR d   1     -11.010  -2.239 -24.352  0.00  0.00     0.087 H 
ATOM     59  H   PTR d   1      -8.999  -3.653 -24.458  0.00  0.00     0.084 H 
BRANCH  54  60
ATOM     60  OH  PTR d   1     -13.094  -2.956 -23.085  0.00  0.00    -0.240 OA
BRANCH  60  61
ATOM     61  P   PTR d   1     -13.463  -1.878 -24.218  0.00  0.00     0.427 P 
ATOM     62  O1P PTR d   1     -13.295  -2.456 -25.575  0.00  0.00    -0.617 OA
ATOM     63  O2P PTR d   1     -12.599  -0.622 -24.026  0.00  0.00    -0.617 OA
ATOM     64  O3P PTR d   1     -14.938  -1.506 -23.969  0.00  0.00    -0.617 OA
ENDBRANCH  60  61
ENDBRANCH  54  60
ENDBRANCH  47  50
ENDBRANCH  42  47
ENDBRANCH  40  42
ENDBRANCH   1  38
BRANCH   1  65
ATOM     65  CB  GLU d   1     -11.204  -9.846 -27.004  0.00  0.00    -0.029 C 
ATOM     66  H   GLU d   1     -11.326  -9.200 -27.873  0.00  0.00     0.037 H 
ATOM     67  H   GLU d   1     -11.897 -10.685 -26.941  0.00  0.00     0.037 H 
BRANCH  65  68
ATOM     68  CG  GLU d   1      -9.819 -10.440 -27.101  0.00  0.00     0.018 C 
ATOM     69  H   GLU d   1      -9.693 -11.160 -26.292  0.00  0.00     0.049 H 
ATOM     70  H   GLU d   1      -9.090  -9.633 -27.031  0.00  0.00     0.049 H 
BRANCH  68  71
ATOM     71  CD  GLU d   1      -9.617 -11.158 -28.421  0.00  0.00     0.172 C 
ATOM     72  OE1 GLU d   1     -10.482 -11.017 -29.311  0.00  0.00    -0.648 OA
ATOM     73  OE2 GLU d   1      -8.602 -11.864 -28.573  0.00  0.00    -0.648 OA
ENDBRANCH  68  71
ENDBRANCH  65  68
ENDBRANCH   1  65
TORSDOF 21
