REMARK  6 active torsions:
REMARK  status: ('A' for Active; 'I' for Inactive)
REMARK    1  A    between atoms: C6_6  and  O6_7 
REMARK    2  A    between atoms: C8_9  and  N8_10 
REMARK    3  A    between atoms: C2'_18  and  O2'_19 
REMARK    4  A    between atoms: C2D_22  and  O2D_23 
REMARK    5  A    between atoms: C3'_24  and  O3'_25 
REMARK    6  A    between atoms: C3D_27  and  O3D_28 
ROOT
ATOM      1  N1  C8R d   1      -1.218   0.844  -0.878  0.00  0.00    -0.290 N 
ATOM      2  C2  C8R d   1      -2.480   0.838  -1.342  0.00  0.00     0.072 A 
ATOM      3  N3  C8R d   1      -2.957  -0.060  -2.222  0.00  0.00    -0.223 NA
ATOM      4  C4  C8R d   1      -2.163  -1.048  -2.715  0.00  0.00     0.183 A 
ATOM      5  C5  C8R d   1      -0.763  -1.146  -2.275  0.00  0.00     0.173 A 
ATOM      6  C6  C8R d   1      -0.303  -0.129  -1.321  0.00  0.00     0.179 A 
ATOM      7  N7  C8R d   1      -0.187  -2.197  -2.892  0.00  0.00    -0.057 NA
ATOM      8  C8  C8R d   1      -1.174  -2.692  -3.646  0.00  0.00     0.705 A 
ATOM      9  N9  C8R d   1      -2.349  -2.059  -3.559  0.00  0.00    -0.132 N 
ATOM     10  PA  C8R d   1      -4.327   2.998  -6.217  0.00  0.00     0.417 P 
ATOM     11  PB  C8R d   1      -4.140   4.140  -3.533  0.00  0.00     0.417 P 
ATOM     12  C1' C8R d   1      -3.581  -2.336  -4.302  0.00  0.00     0.156 C 
ATOM     13  O1A C8R d   1      -5.768   3.390  -6.420  0.00  0.00    -0.624 OA
ATOM     14  O1B C8R d   1      -5.565   3.630  -3.339  0.00  0.00    -0.624 OA
ATOM     15  C1D C8R d   1      -0.798   1.912   0.049  0.00  0.00     0.140 C 
ATOM     16  C2' C8R d   1      -4.821  -1.944  -3.525  0.00  0.00     0.105 C 
ATOM     17  O2A C8R d   1      -3.412   3.106  -7.401  0.00  0.00    -0.624 OA
ATOM     18  O2B C8R d   1      -3.773   5.578  -3.230  0.00  0.00    -0.624 OA
ATOM     19  C2D C8R d   1       0.554   2.412  -0.453  0.00  0.00     0.105 C 
ATOM     20  C3' C8R d   1      -5.361  -0.708  -4.219  0.00  0.00     0.091 C 
ATOM     21  O3A C8R d   1      -3.634   3.915  -5.059  0.00  0.00    -0.180 OA
ATOM     22  C3D C8R d   1       0.305   3.668  -1.280  0.00  0.00     0.091 C 
ATOM     23  C4' C8R d   1      -4.789  -0.847  -5.614  0.00  0.00     0.089 C 
ATOM     24  O4' C8R d   1      -3.497  -1.426  -5.406  0.00  0.00    -0.353 OA
ATOM     25  C4D C8R d   1      -1.206   3.830  -1.298  0.00  0.00     0.089 C 
ATOM     26  O4D C8R d   1      -1.687   3.005  -0.221  0.00  0.00    -0.353 OA
ATOM     27  C5' C8R d   1      -4.740   0.462  -6.392  0.00  0.00     0.058 C 
ATOM     28  O5' C8R d   1      -4.232   1.529  -5.600  0.00  0.00    -0.287 OA
ATOM     29  C5D C8R d   1      -1.731   3.433  -2.683  0.00  0.00     0.058 C 
ATOM     30  O5D C8R d   1      -3.143   3.167  -2.715  0.00  0.00    -0.287 OA
ATOM     31  H1  C8R d   1      -3.159   1.610  -0.982  0.00  0.00     0.144 H 
ATOM     32  H5  C8R d   1      -3.634  -3.388  -4.619  0.00  0.00     0.123 H 
ATOM     33  H6  C8R d   1      -0.787   1.596   1.103  0.00  0.00     0.123 H 
ATOM     34  H7  C8R d   1      -4.612  -1.760  -2.461  0.00  0.00     0.093 H 
ATOM     35  H9  C8R d   1       1.019   1.640  -1.083  0.00  0.00     0.093 H 
ATOM     36  H11 C8R d   1      -5.009   0.212  -3.729  0.00  0.00     0.091 H 
ATOM     37  H13 C8R d   1       0.696   3.536  -2.300  0.00  0.00     0.091 H 
ATOM     38  H15 C8R d   1      -5.412  -1.548  -6.190  0.00  0.00     0.090 H 
ATOM     39  H16 C8R d   1      -1.482   4.877  -1.105  0.00  0.00     0.090 H 
ATOM     40  H17 C8R d   1      -5.757   0.718  -6.723  0.00  0.00     0.079 H 
ATOM     41  H18 C8R d   1      -4.091   0.330  -7.270  0.00  0.00     0.079 H 
ATOM     42  H19 C8R d   1      -1.200   2.526  -3.008  0.00  0.00     0.079 H 
ATOM     43  H20 C8R d   1      -1.517   4.254  -3.383  0.00  0.00     0.079 H 
ENDROOT
BRANCH   8  44
ATOM     44  N8  C8R d   1      -0.973  -3.769  -4.436  0.00  0.00    -0.232 N 
ATOM     45  H3  C8R d   1      -0.047  -4.220  -4.466  0.00  0.00     0.174 HD
ATOM     46  H4  C8R d   1      -1.745  -4.139  -5.008  0.00  0.00     0.174 HD
ENDBRANCH   8  44
BRANCH   6  47
ATOM     47  O6  C8R d   1       0.958  -0.191  -0.875  0.00  0.00    -0.344 OA
ATOM     48  H2  C8R d   1       1.406  -0.915  -1.296  0.00  0.00     0.219 HD
ENDBRANCH   6  47
BRANCH  16  49
ATOM     49  O2' C8R d   1      -5.746  -3.013  -3.707  0.00  0.00    -0.388 OA
ATOM     50  H8  C8R d   1      -6.549  -2.819  -3.237  0.00  0.00     0.210 HD
ENDBRANCH  16  49
BRANCH  20  51
ATOM     51  O3' C8R d   1      -6.786  -0.716  -4.260  0.00  0.00    -0.390 OA
ATOM     52  H12 C8R d   1      -7.084  -1.483  -4.734  0.00  0.00     0.210 HD
ENDBRANCH  20  51
BRANCH  19  53
ATOM     53  O2D C8R d   1       1.431   2.713   0.639  0.00  0.00    -0.388 OA
ATOM     54  H10 C8R d   1       1.040   3.388   1.181  0.00  0.00     0.210 HD
ENDBRANCH  19  53
BRANCH  22  55
ATOM     55  O3D C8R d   1       0.900   4.834  -0.689  0.00  0.00    -0.390 OA
ATOM     56  H14 C8R d   1       0.532   4.972   0.176  0.00  0.00     0.210 HD
ENDBRANCH  22  55
TORSDOF 6
