REMARK  4 active torsions:
REMARK  status: ('A' for Active; 'I' for Inactive)
REMARK    1  A    between atoms: C2'_17  and  O2'_18 
REMARK    2  A    between atoms: C2D_21  and  O2D_22 
REMARK    3  A    between atoms: C3'_23  and  O3'_24 
REMARK    4  A    between atoms: C3D_26  and  O3D_27 
ROOT
ATOM      1  N1  CVR d   1       1.995   0.710   1.248  0.00  0.00    -0.319 N 
ATOM      2  C2  CVR d   1       3.329   0.871   1.081  0.00  0.00     0.070 A 
ATOM      3  N3  CVR d   1       4.287   0.143   1.686  0.00  0.00    -0.223 NA
ATOM      4  C4  CVR d   1       3.973  -0.852   2.555  0.00  0.00     0.167 A 
ATOM      5  C5  CVR d   1       2.544  -1.119   2.824  0.00  0.00     0.147 A 
ATOM      6  C6  CVR d   1       1.531  -0.293   2.130  0.00  0.00     0.135 A 
ATOM      7  N6  CVR d   1       0.218  -0.509   2.350  0.00  0.00    -0.383 N 
ATOM      8  N7  CVR d   1       2.506  -2.131   3.703  0.00  0.00    -0.236 NA
ATOM      9  C8  CVR d   1       3.787  -2.487   3.978  0.00  0.00     0.071 A 
ATOM     10  N9  CVR d   1       4.669  -1.726   3.300  0.00  0.00    -0.294 N 
ATOM     11  PA  CVR d   1       6.491   2.906   4.394  0.00  0.00     0.417 P 
ATOM     12  PB  CVR d   1       3.916   3.996   3.775  0.00  0.00     0.417 P 
ATOM     13  C1' CVR d   1       6.152  -1.885   3.404  0.00  0.00     0.139 C 
ATOM     14  O1A CVR d   1       6.165   3.367   5.794  0.00  0.00    -0.624 OA
ATOM     15  O1B CVR d   1       3.473   3.761   5.205  0.00  0.00    -0.624 OA
ATOM     16  C1D CVR d   1       1.164   1.563   0.535  0.00  0.00     0.047 C 
ATOM     17  C2' CVR d   1       6.959  -1.149   2.384  0.00  0.00     0.105 C 
ATOM     18  O2A CVR d   1       7.667   3.514   3.680  0.00  0.00    -0.624 OA
ATOM     19  O2B CVR d   1       4.199   5.413   3.277  0.00  0.00    -0.624 OA
ATOM     20  C2D CVR d   1      -0.180   2.044   1.037  0.00  0.00     0.081 C 
ATOM     21  C3' CVR d   1       8.093  -0.779   2.940  0.00  0.00     0.091 C 
ATOM     22  O3A CVR d   1       5.170   3.029   3.460  0.00  0.00    -0.180 OA
ATOM     23  C3D CVR d   1       0.041   3.512   1.388  0.00  0.00     0.068 C 
ATOM     24  C4' CVR d   1       7.931  -0.741   4.423  0.00  0.00     0.089 C 
ATOM     25  O4' CVR d   1       6.660  -1.376   4.651  0.00  0.00    -0.353 OA
ATOM     26  C4D CVR d   1       1.361   3.893   0.740  0.00  0.00    -0.004 C 
ATOM     27  C4X CVR d   1       1.804   2.626   0.055  0.00  0.00    -0.035 C 
ATOM     28  C5' CVR d   1       7.914   0.709   4.901  0.00  0.00     0.058 C 
ATOM     29  O5' CVR d   1       6.703   1.309   4.442  0.00  0.00    -0.287 OA
ATOM     30  C5D CVR d   1       2.390   4.399   1.745  0.00  0.00     0.037 C 
ATOM     31  O5D CVR d   1       2.763   3.468   2.770  0.00  0.00    -0.289 OA
ATOM     32  H1  CVR d   1       3.655   1.656   0.400  0.00  0.00     0.144 H 
ATOM     33  H2  CVR d   1      -0.080  -1.250   3.000  0.00  0.00     0.157 HD
ATOM     34  H3  CVR d   1      -0.487   0.067   1.868  0.00  0.00     0.157 HD
ATOM     35  H4  CVR d   1       4.067  -3.288   4.661  0.00  0.00     0.144 H 
ATOM     36  H5  CVR d   1       6.371  -2.960   3.324  0.00  0.00     0.122 H 
ATOM     37  H6  CVR d   1       0.903   0.955  -0.344  0.00  0.00     0.077 H 
ATOM     38  H7  CVR d   1       6.405  -0.251   2.075  0.00  0.00     0.093 H 
ATOM     39  H9  CVR d   1      -0.529   1.452   1.896  0.00  0.00     0.090 H 
ATOM     40  H11 CVR d   1       8.355   0.227   2.581  0.00  0.00     0.091 H 
ATOM     41  H13 CVR d   1       0.081   3.643   2.479  0.00  0.00     0.087 H 
ATOM     42  H15 CVR d   1       8.741  -1.290   4.926  0.00  0.00     0.090 H 
ATOM     43  H16 CVR d   1       1.195   4.684  -0.007  0.00  0.00     0.047 H 
ATOM     44  H17 CVR d   1       1.598   2.711  -1.022  0.00  0.00     0.036 H 
ATOM     45  H18 CVR d   1       2.885   2.494   0.212  0.00  0.00     0.036 H 
ATOM     46  H19 CVR d   1       8.778   1.249   4.487  0.00  0.00     0.079 H 
ATOM     47  H20 CVR d   1       7.953   0.741   6.000  0.00  0.00     0.079 H 
ATOM     48  H21 CVR d   1       1.975   5.293   2.234  0.00  0.00     0.076 H 
ATOM     49  H22 CVR d   1       3.299   4.674   1.190  0.00  0.00     0.076 H 
ENDROOT
BRANCH  20  50
ATOM     50  O2D CVR d   1      -1.136   2.037  -0.029  0.00  0.00    -0.391 OA
ATOM     51  H10 CVR d   1      -1.975   2.341   0.297  0.00  0.00     0.210 HD
ENDBRANCH  20  50
BRANCH  23  52
ATOM     52  O3D CVR d   1      -0.983   4.354   0.830  0.00  0.00    -0.392 OA
ATOM     53  H14 CVR d   1      -0.980   4.269  -0.116  0.00  0.00     0.210 HD
ENDBRANCH  23  52
BRANCH  17  54
ATOM     54  O2' CVR d   1       7.176  -1.892   1.310  0.00  0.00    -0.388 OA
ATOM     55  H8  CVR d   1       7.690  -1.397   0.683  0.00  0.00     0.210 HD
ENDBRANCH  17  54
BRANCH  21  56
ATOM     56  O3' CVR d   1       9.071  -1.620   2.614  0.00  0.00    -0.390 OA
ATOM     57  H12 CVR d   1       9.179  -1.628   1.670  0.00  0.00     0.210 HD
ENDBRANCH  21  56
TORSDOF 4
