REMARK  5 active torsions:
REMARK  status: ('A' for Active; 'I' for Inactive)
REMARK    1  A    between atoms: C8_8  and  C1_17 
REMARK    2  A    between atoms: C12_20  and  C20_9 
REMARK    3  A    between atoms: C7_12  and  C11_19 
REMARK    4  A    between atoms: C24_13  and  N27_24 
REMARK    5  A    between atoms: C12_20  and  N6_22 
ROOT
ATOM      1  C10 08E d   1      25.876  41.911  46.398  0.00  0.00    -0.054 A 
ATOM      2  C9  08E d   1      25.776  41.836  47.791  0.00  0.00    -0.060 A 
ATOM      3  C2  08E d   1      24.457  43.886  47.868  0.00  0.00    -0.049 A 
ATOM      4  C4  08E d   1      24.538  43.979  46.457  0.00  0.00     0.002 A 
ATOM      5  C8  08E d   1      24.033  44.886  45.486  0.00  0.00     0.005 A 
ATOM      6  C5  08E d   1      25.248  42.995  45.766  0.00  0.00     0.046 A 
ATOM      7  C3  08E d   1      25.085  42.811  48.513  0.00  0.00     0.035 A 
ATOM      8  C7  08E d   1      24.443  44.464  44.219  0.00  0.00     0.121 A 
ATOM      9  N6  08E d   1      25.166  43.318  44.443  0.00  0.00    -0.336 N 
ATOM     10 CL2  08E d   1      24.968  42.676  50.240  0.00  0.00    -0.084 Cl
ATOM     11  H1  08E d   1      26.416  41.163  45.830  0.00  0.00     0.087 H 
ATOM     12  H2  08E d   1      26.241  41.010  48.317  0.00  0.00     0.086 H 
ATOM     13  H4  08E d   1      23.919  44.633  48.440  0.00  0.00     0.087 H 
ENDROOT
BRANCH   9  14
ATOM     14  C12 08E d   1      25.784  42.514  43.402  0.00  0.00     0.024 C 
ATOM     15  H11 08E d   1      26.099  41.552  43.832  0.00  0.00     0.072 H 
ATOM     16  H12 08E d   1      25.049  42.336  42.603  0.00  0.00     0.072 H 
BRANCH  14  17
ATOM     17  C20 08E d   1      26.979  43.202  42.820  0.00  0.00    -0.035 A 
ATOM     18  C21 08E d   1      27.409  42.713  41.588  0.00  0.00    -0.058 A 
ATOM     19  C22 08E d   1      28.510  43.310  41.018  0.00  0.00     0.005 A 
ATOM     20  H3  08E d   1      26.896  41.894  41.097  0.00  0.00     0.086 H 
ATOM     21  N23 08E d   1      29.194  44.346  41.571  0.00  0.00    -0.244 NA
ATOM     22  H6  08E d   1      28.855  42.928  40.064  0.00  0.00     0.114 H 
ATOM     23  C24 08E d   1      28.771  44.819  42.773  0.00  0.00     0.121 A 
ATOM     24  C25 08E d   1      27.669  44.272  43.429  0.00  0.00    -0.032 A 
ATOM     25  H5  08E d   1      27.348  44.661  44.389  0.00  0.00     0.090 H 
BRANCH  23  26
ATOM     26  N27 08E d   1      29.478  45.870  43.353  0.00  0.00    -0.384 N 
ATOM     27  H13 08E d   1      30.292  46.273  42.867  0.00  0.00     0.157 HD
ATOM     28  H14 08E d   1      29.187  46.244  44.267  0.00  0.00     0.157 HD
ENDBRANCH  23  26
ENDBRANCH  14  17
ENDBRANCH   9  14
BRANCH   8  29
ATOM     29  C11 08E d   1      24.229  44.990  42.874  0.00  0.00     0.227 C 
ATOM     30  O13 08E d   1      23.982  44.332  41.876  0.00  0.00    -0.643 OA
ATOM     31  O14 08E d   1      24.192  46.331  42.837  0.00  0.00    -0.643 OA
ENDBRANCH   8  29
BRANCH   5  32
ATOM     32  C1  08E d   1      23.215  46.025  45.795  0.00  0.00     0.071 A 
ATOM     33  C17 08E d   1      23.482  46.897  46.795  0.00  0.00    -0.085 A 
ATOM     34  C18 08E d   1      22.609  48.022  47.080  0.00  0.00    -0.068 A 
ATOM     35  H8  08E d   1      24.375  46.751  47.402  0.00  0.00     0.078 H 
ATOM     36  C19 08E d   1      21.508  48.210  46.330  0.00  0.00     0.005 A 
ATOM     37  H7  08E d   1      22.843  48.707  47.893  0.00  0.00     0.085 H 
ATOM     38  N16 08E d   1      21.188  47.331  45.319  0.00  0.00    -0.226 NA
ATOM     39  H9  08E d   1      20.863  49.066  46.524  0.00  0.00     0.114 H 
ATOM     40  C15 08E d   1      21.946  46.233  44.986  0.00  0.00     0.255 A 
ATOM     41  O28 08E d   1      21.613  45.441  44.075  0.00  0.00    -0.270 OA
ATOM     42  H10 08E d   1      23.797  46.641  45.094  0.00  0.00     0.068 H 
ENDBRANCH   5  32
TORSDOF 5
