REMARK  10 active torsions:
REMARK  status: ('A' for Active; 'I' for Inactive)
REMARK    1  A    between atoms: N6_41  and  S1_1 
REMARK    2  A    between atoms: S1_1  and  C27_42 
REMARK    3  A    between atoms: S2_4  and  N3_26 
REMARK    4  A    between atoms: C16_27  and  S2_4 
REMARK    5  A    between atoms: C7_14  and  C1_7 
REMARK    6  A    between atoms: N1_12  and  C11_18 
REMARK    7  A    between atoms: C10_17  and  C6_13 
REMARK       I    between atoms: N3_26  and  C10_17 
REMARK    8  A    between atoms: C11_18  and  C17_28 
REMARK    9  A    between atoms: C20_32  and  N5_34 
REMARK   10  A    between atoms: C25_39  and  N6_41 
ROOT
ATOM      1  C2  08F d   1      24.536  43.791  47.906  0.00  0.00    -0.049 A 
ATOM      2  C3  08F d   1      25.161  42.710  48.531  0.00  0.00     0.035 A 
ATOM      3  C4  08F d   1      24.652  43.928  46.503  0.00  0.00     0.006 A 
ATOM      4  C5  08F d   1      25.389  42.967  45.764  0.00  0.00     0.046 A 
ATOM      5  N1  08F d   1      25.352  43.351  44.448  0.00  0.00    -0.337 N 
ATOM      6  C6  08F d   1      24.633  44.539  44.318  0.00  0.00     0.117 A 
ATOM      7  C7  08F d   1      24.164  44.888  45.603  0.00  0.00     0.025 A 
ATOM      8  C8  08F d   1      25.883  41.748  47.787  0.00  0.00    -0.060 A 
ATOM      9  C9  08F d   1      26.006  41.863  46.390  0.00  0.00    -0.054 A 
ATOM     10 CL1  08F d   1      25.024  42.572  50.246  0.00  0.00    -0.084 Cl
ATOM     11  H1  08F d   1      23.972  44.513  48.486  0.00  0.00     0.087 H 
ATOM     12  H2  08F d   1      26.347  40.913  48.299  0.00  0.00     0.086 H 
ATOM     13  H3  08F d   1      26.556  41.128  45.814  0.00  0.00     0.087 H 
ENDROOT
BRANCH   6  14
ATOM     14  C10 08F d   1      24.463  45.243  43.057  0.00  0.00     0.282 C 
ATOM     15  O5  08F d   1      24.489  46.469  42.947  0.00  0.00    -0.265 OA
ATOM     16  N3  08F d   1      24.309  44.373  41.966  0.00  0.00    -0.245 N 
ATOM     17  H10 08F d   1      24.265  43.392  42.156  0.00  0.00     0.182 HD
BRANCH  16  18
ATOM     18  S2  08F d   1      24.193  44.864  40.368  0.00  0.00     0.265 S 
ATOM     19  O3  08F d   1      23.454  46.109  40.258  0.00  0.00    -0.200 OA
ATOM     20  O4  08F d   1      23.936  43.711  39.554  0.00  0.00    -0.200 OA
BRANCH  18  21
ATOM     21  C16 08F d   1      25.833  45.309  39.907  0.00  0.00     0.082 A 
ATOM     22  C22 08F d   1      26.444  46.420  40.505  0.00  0.00    -0.060 A 
ATOM     23  C23 08F d   1      27.739  46.764  40.116  0.00  0.00    -0.079 A 
ATOM     24  H16 08F d   1      25.920  47.001  41.255  0.00  0.00     0.085 H 
ATOM     25  C24 08F d   1      28.394  46.007  39.132  0.00  0.00    -0.057 A 
ATOM     26  H17 08F d   1      28.237  47.612  40.572  0.00  0.00     0.083 H 
ATOM     27  C25 08F d   1      27.779  44.881  38.531  0.00  0.00     0.043 A 
ATOM     28  H18 08F d   1      29.394  46.291  38.825  0.00  0.00     0.086 H 
ATOM     29  C26 08F d   1      26.490  44.531  38.914  0.00  0.00    -0.034 A 
ATOM     30  H19 08F d   1      25.993  43.679  38.464  0.00  0.00     0.089 H 
BRANCH  27  31
ATOM     31  N6  08F d   1      28.527  44.170  37.516  0.00  0.00    -0.285 N 
ATOM     32  H20 08F d   1      29.445  43.850  37.748  0.00  0.00     0.178 HD
BRANCH  31  33
ATOM     33  S1  08F d   1      27.923  43.837  35.909  0.00  0.00     0.227 S 
ATOM     34  O1  08F d   1      26.562  43.335  35.957  0.00  0.00    -0.206 OA
ATOM     35  O2  08F d   1      28.939  43.036  35.247  0.00  0.00    -0.206 OA
BRANCH  33  36
ATOM     36  C27 08F d   1      27.988  45.392  35.025  0.00  0.00     0.033 C 
ATOM     37  H21 08F d   1      27.248  46.086  35.449  0.00  0.00     0.051 H 
ATOM     38  H22 08F d   1      27.762  45.219  33.962  0.00  0.00     0.051 H 
ATOM     39  H23 08F d   1      28.994  45.826  35.120  0.00  0.00     0.051 H 
ENDBRANCH  33  36
ENDBRANCH  31  33
ENDBRANCH  27  31
ENDBRANCH  18  21
ENDBRANCH  16  18
ENDBRANCH   6  14
BRANCH   5  40
ATOM     40  C11 08F d   1      25.982  42.607  43.334  0.00  0.00     0.024 C 
ATOM     41  H4  08F d   1      25.276  42.609  42.491  0.00  0.00     0.072 H 
ATOM     42  H5  08F d   1      26.145  41.574  43.674  0.00  0.00     0.072 H 
BRANCH  40  43
ATOM     43  C17 08F d   1      27.287  43.129  42.832  0.00  0.00    -0.035 A 
ATOM     44  C18 08F d   1      27.908  42.500  41.750  0.00  0.00    -0.058 A 
ATOM     45  C19 08F d   1      29.113  43.008  41.303  0.00  0.00     0.005 A 
ATOM     46  H11 08F d   1      27.457  41.637  41.274  0.00  0.00     0.086 H 
ATOM     47  N4  08F d   1      29.746  44.085  41.865  0.00  0.00    -0.244 NA
ATOM     48  H12 08F d   1      29.586  42.525  40.456  0.00  0.00     0.114 H 
ATOM     49  C20 08F d   1      29.146  44.704  42.922  0.00  0.00     0.121 A 
ATOM     50  C21 08F d   1      27.914  44.250  43.427  0.00  0.00    -0.032 A 
ATOM     51  H13 08F d   1      27.448  44.755  44.266  0.00  0.00     0.090 H 
BRANCH  49  52
ATOM     52  N5  08F d   1      29.784  45.800  43.499  0.00  0.00    -0.384 N 
ATOM     53  H14 08F d   1      29.352  46.285  44.298  0.00  0.00     0.157 HD
ATOM     54  H15 08F d   1      30.688  46.125  43.126  0.00  0.00     0.157 HD
ENDBRANCH  49  52
ENDBRANCH  40  43
ENDBRANCH   5  40
BRANCH   7  55
ATOM     55  C1  08F d   1      23.325  46.013  45.983  0.00  0.00     0.044 A 
ATOM     56  C12 08F d   1      22.017  46.213  45.214  0.00  0.00     0.277 A 
ATOM     57  N2  08F d   1      21.214  47.305  45.613  0.00  0.00    -0.226 NA
ATOM     58  O6  08F d   1      21.697  45.444  44.305  0.00  0.00    -0.265 OA
ATOM     59  C13 08F d   1      21.548  48.151  46.639  0.00  0.00    -0.011 A 
ATOM     60  C14 08F d   1      22.683  47.982  47.333  0.00  0.00    -0.018 A 
ATOM     61  H6  08F d   1      20.881  48.973  46.894  0.00  0.00     0.108 H 
ATOM     62  C15 08F d   1      23.589  46.883  46.988  0.00  0.00    -0.082 A 
ATOM     63  H7  08F d   1      22.395  47.840  48.385  0.00  0.00     0.046 H 
ATOM     64  H8  08F d   1      23.259  48.914  47.233  0.00  0.00     0.046 H 
ATOM     65  H9  08F d   1      24.508  46.761  47.560  0.00  0.00     0.079 H 
ENDBRANCH   7  55
TORSDOF 10
