REMARK  8 active torsions:
REMARK  status: ('A' for Active; 'I' for Inactive)
REMARK    1  A    between atoms: C1_1  and  C2_2 
REMARK       I    between atoms: C2_2  and  N4_4 
REMARK    2  A    between atoms: N4_4  and  C5_5 
REMARK    3  A    between atoms: C11_11  and  C19_19 
REMARK    4  A    between atoms: N13_13  and  C14_14 
REMARK    5  A    between atoms: C14_14  and  C15_15 
REMARK    6  A    between atoms: C15_15  and  C16_16 
REMARK    7  A    between atoms: C21_21  and  N30_30 
REMARK    8  A    between atoms: N30_30  and  C31_31 
ROOT
ATOM      1  C19 LNH d   1      21.568  31.605   8.867  0.00  0.00     0.075 A 
ATOM      2  C20 LNH d   1      20.725  32.689   8.280  0.00  0.00    -0.010 A 
ATOM      3  C21 LNH d   1      19.794  32.447   7.351  0.00  0.00     0.129 A 
ATOM      4  N22 LNH d   1      19.621  31.154   6.920  0.00  0.00    -0.198 N 
ATOM      5  C23 LNH d   1      20.358  30.128   7.422  0.00  0.00     0.175 A 
ATOM      6  N24 LNH d   1      21.328  30.255   8.392  0.00  0.00    -0.227 NA
ATOM      7  C25 LNH d   1      19.973  28.964   6.796  0.00  0.00     0.111 A 
ATOM      8  C26 LNH d   1      18.951  29.353   5.909  0.00  0.00     0.046 A 
ATOM      9  N27 LNH d   1      18.758  30.682   5.992  0.00  0.00    -0.175 NA
ATOM     10  C28 LNH d   1      20.528  27.668   7.023  0.00  0.00     0.105 C 
ATOM     11  N29 LNH d   1      21.047  26.642   7.167  0.00  0.00    -0.191 NA
ATOM     12  H13 LNH d   1      20.874  33.713   8.620  0.00  0.00     0.093 H 
ATOM     13  H14 LNH d   1      18.400  28.680   5.254  0.00  0.00     0.120 H 
ENDROOT
BRANCH   3  14
ATOM     14  N30 LNH d   1      18.984  33.399   6.767  0.00  0.00    -0.370 N 
ATOM     15  H15 LNH d   1      18.259  33.128   6.088  0.00  0.00     0.161 HD
BRANCH  14  16
ATOM     16  C31 LNH d   1      19.179  34.815   7.137  0.00  0.00     0.011 A 
ATOM     17  C32 LNH d   1      18.643  35.892   6.228  0.00  0.00    -0.044 A 
ATOM     18  C33 LNH d   1      20.121  35.678   6.334  0.00  0.00    -0.044 A 
ATOM     19  H17 LNH d   1      18.187  36.796   6.657  0.00  0.00     0.036 H 
ATOM     20  H18 LNH d   1      18.113  35.617   5.304  0.00  0.00     0.036 H 
ATOM     21  H19 LNH d   1      20.676  35.246   5.488  0.00  0.00     0.036 H 
ATOM     22  H20 LNH d   1      20.749  36.425   6.841  0.00  0.00     0.036 H 
ATOM     23  H16 LNH d   1      19.120  34.927   8.230  0.00  0.00     0.072 H 
ENDBRANCH  14  16
ENDBRANCH   3  14
BRANCH   1  24
ATOM     24  C11 LNH d   1      22.618  31.854   9.879  0.00  0.00     0.021 A 
ATOM     25  C9  LNH d   1      23.403  30.872  10.559  0.00  0.00     0.007 A 
ATOM     26  C8  LNH d   1      24.271  31.523  11.424  0.00  0.00     0.045 A 
ATOM     27  C10 LNH d   1      23.433  29.490  10.496  0.00  0.00    -0.044 A 
ATOM     28  C7  LNH d   1      25.192  30.901  12.255  0.00  0.00    -0.054 A 
ATOM     29  N13 LNH d   1      24.011  32.859  11.251  0.00  0.00    -0.355 N 
ATOM     30  C6  LNH d   1      25.197  29.524  12.154  0.00  0.00    -0.055 A 
ATOM     31  H6  LNH d   1      25.848  31.447  12.923  0.00  0.00     0.087 H 
ATOM     32  C5  LNH d   1      24.341  28.832  11.303  0.00  0.00     0.035 A 
ATOM     33  H5  LNH d   1      25.895  28.960  12.762  0.00  0.00     0.087 H 
ATOM     34  C12 LNH d   1      23.017  33.090  10.331  0.00  0.00    -0.007 A 
ATOM     35  H8  LNH d   1      22.624  34.057  10.022  0.00  0.00     0.113 H 
ATOM     36  H7  LNH d   1      22.768  28.943   9.837  0.00  0.00     0.088 H 
BRANCH  32  37
ATOM     37  N4  LNH d   1      24.413  27.415  11.277  0.00  0.00    -0.327 N 
ATOM     38  C2  LNH d   1      24.290  26.588  10.156  0.00  0.00     0.218 C 
ATOM     39  O3  LNH d   1      24.108  25.383  10.233  0.00  0.00    -0.274 OA
ATOM     40  H4  LNH d   1      24.568  26.959  12.153  0.00  0.00     0.169 HD
BRANCH  38  41
ATOM     41  C1  LNH d   1      24.427  27.210   8.788  0.00  0.00    -0.003 C 
ATOM     42  H1  LNH d   1      24.585  28.294   8.892  0.00  0.00     0.040 H 
ATOM     43  H2  LNH d   1      23.510  27.027   8.209  0.00  0.00     0.040 H 
ATOM     44  H3  LNH d   1      25.286  26.763   8.266  0.00  0.00     0.040 H 
ENDBRANCH  38  41
ENDBRANCH  32  37
BRANCH  29  45
ATOM     45  C14 LNH d   1      24.696  33.912  11.999  0.00  0.00     0.009 C 
ATOM     46  H9  LNH d   1      24.457  34.901  11.582  0.00  0.00     0.065 H 
ATOM     47  H10 LNH d   1      25.785  33.758  11.976  0.00  0.00     0.065 H 
BRANCH  45  48
ATOM     48  C15 LNH d   1      24.166  33.788  13.426  0.00  0.00     0.031 C 
ATOM     49  H11 LNH d   1      24.225  32.741  13.759  0.00  0.00     0.051 H 
ATOM     50  H12 LNH d   1      23.121  34.129  13.470  0.00  0.00     0.051 H 
BRANCH  48  51
ATOM     51  C16 LNH d   1      25.039  34.668  14.314  0.00  0.00     0.174 C 
ATOM     52  O17 LNH d   1      26.252  34.877  14.005  0.00  0.00    -0.648 OA
ATOM     53  O18 LNH d   1      24.415  35.048  15.346  0.00  0.00    -0.648 OA
ENDBRANCH  48  51
ENDBRANCH  45  48
ENDBRANCH  29  45
ENDBRANCH   1  24
TORSDOF 8
