REMARK  10 active torsions:
REMARK  status: ('A' for Active; 'I' for Inactive)
REMARK    1  A    between atoms: CA_8  and  CB_11 
REMARK    2  A    between atoms: CB_11  and  CG_12 
REMARK    3  A    between atoms: CA_19  and  CB_22 
REMARK    4  A    between atoms: CB_22  and  CG_23 
REMARK    5  A    between atoms: C23_31  and  C31_33 
REMARK    6  A    between atoms: C31_33  and  C32_34 
REMARK    7  A    between atoms: C32_34  and  C33_35 
REMARK    8  A    between atoms: C33_35  and  N34_36 
REMARK       I    between atoms: N34_36  and  C35_37 
REMARK    9  A    between atoms: C35_37  and  C37_39 
REMARK   10  A    between atoms: CA_46  and  C_47 
ROOT
ATOM      1  C2  FUM d   1     -55.952  44.525   7.204  0.00  0.00     0.218 C 
ATOM      2  O3  FUM d   1     -56.284  44.284   6.030  0.00  0.00    -0.274 OA
ATOM      3  C4  FUM d   1     -56.610  45.837   7.507  0.00  0.00     0.017 C 
ATOM      4  C5  FUM d   1     -57.425  45.914   8.624  0.00  0.00     0.017 C 
ATOM      5  C6  FUM d   1     -58.592  44.985   8.847  0.00  0.00     0.218 C 
ATOM      6  O7  FUM d   1     -58.572  43.853   8.336  0.00  0.00    -0.274 OA
ATOM      7  H1  FUM d   1     -57.225  46.103   6.635  0.00  0.00     0.047 H 
ATOM      8  H2  FUM d   1     -55.811  46.582   7.634  0.00  0.00     0.047 H 
ATOM      9  H3  FUM d   1     -57.841  46.932   8.627  0.00  0.00     0.047 H 
ATOM     10  H4  FUM d   1     -56.763  45.785   9.493  0.00  0.00     0.047 H 
ATOM     11  N   ALC d   1     -55.386  43.454   7.739  0.00  0.00    -0.348 N 
ATOM     12  CA  ALC d   1     -54.763  42.358   7.062  0.00  0.00     0.089 C 
ATOM     13  C   ALC d   1     -55.207  41.144   7.799  0.00  0.00     0.241 C 
ATOM     14  O   ALC d   1     -56.071  40.584   7.112  0.00  0.00    -0.271 OA
ATOM     15  H5  ALC d   1     -55.395  43.405   8.738  0.00  0.00     0.163 HD
ATOM     16  H6  ALC d   1     -55.057  42.334   6.002  0.00  0.00     0.087 H 
ATOM     17  N   PHE d   1     -55.199  40.469   8.923  0.00  0.00    -0.346 N 
ATOM     18  CA  PHE d   1     -55.518  39.293   9.760  0.00  0.00     0.093 C 
ATOM     19  C   PHE d   1     -56.283  39.896  10.869  0.00  0.00     0.241 C 
ATOM     20  O   PHE d   1     -56.989  38.961  11.294  0.00  0.00    -0.271 OA
ATOM     21  H20 PHE d   1     -54.718  41.078   9.554  0.00  0.00     0.163 HD
ATOM     22  H21 PHE d   1     -56.153  38.589   9.201  0.00  0.00     0.088 H 
ATOM     23  C21 08M d   1     -58.366  42.604  12.233  0.00  0.00     0.240 C 
ATOM     24  O22 08M d   1     -57.582  43.451  11.754  0.00  0.00    -0.271 OA
ATOM     25  C23 08M d   1     -57.536  41.350  12.504  0.00  0.00     0.089 C 
ATOM     26  N24 08M d   1     -56.738  41.074  11.293  0.00  0.00    -0.346 N 
ATOM     27  H29 08M d   1     -58.207  40.502  12.708  0.00  0.00     0.087 H 
ATOM     28  H30 08M d   1     -56.512  41.865  10.724  0.00  0.00     0.163 HD
ATOM     29  N   DAB d   1     -59.630  45.031   9.665  0.00  0.00    -0.346 N 
ATOM     30  CA  DAB d   1     -60.591  43.966   9.883  0.00  0.00     0.097 C 
ATOM     31  CB  DAB d   1     -61.328  44.145  11.218  0.00  0.00    -0.022 C 
ATOM     32  CG  DAB d   1     -60.405  44.386  12.389  0.00  0.00    -0.003 C 
ATOM     33  ND  DAB d   1     -59.472  43.277  12.455  0.00  0.00    -0.359 N 
ATOM     34  H41 DAB d   1     -59.765  45.877  10.181  0.00  0.00     0.163 HD
ATOM     35  H42 DAB d   1     -60.056  43.005   9.887  0.00  0.00     0.089 H 
ATOM     36  H43 DAB d   1     -61.913  43.235  11.417  0.00  0.00     0.039 H 
ATOM     37  H44 DAB d   1     -62.008  45.005  11.128  0.00  0.00     0.039 H 
ATOM     38  H45 DAB d   1     -60.988  44.440  13.320  0.00  0.00     0.064 H 
ATOM     39  H46 DAB d   1     -59.856  45.328  12.245  0.00  0.00     0.064 H 
ATOM     40  H47 DAB d   1     -59.987  42.624  13.011  0.00  0.00     0.162 HD
ENDROOT
BRANCH  25  41
ATOM     41  C31 08M d   1     -56.634  41.548  13.673  0.00  0.00    -0.036 C 
ATOM     42  H31 08M d   1     -57.234  41.848  14.545  0.00  0.00     0.036 H 
ATOM     43  H32 08M d   1     -55.907  42.340  13.438  0.00  0.00     0.036 H 
BRANCH  41  44
ATOM     44  C32 08M d   1     -55.883  40.259  14.000  0.00  0.00    -0.048 C 
ATOM     45  H33 08M d   1     -55.013  40.152  13.335  0.00  0.00     0.035 H 
ATOM     46  H34 08M d   1     -56.550  39.393  13.874  0.00  0.00     0.035 H 
BRANCH  44  47
ATOM     47  C33 08M d   1     -55.428  40.353  15.431  0.00  0.00    -0.004 C 
ATOM     48  H35 08M d   1     -56.167  39.866  16.085  0.00  0.00     0.064 H 
ATOM     49  H36 08M d   1     -55.327  41.411  15.716  0.00  0.00     0.064 H 
BRANCH  47  50
ATOM     50  N34 08M d   1     -54.144  39.688  15.569  0.00  0.00    -0.356 N 
ATOM     51  C35 08M d   1     -53.839  38.863  16.737  0.00  0.00     0.271 C 
ATOM     52  O36 08M d   1     -54.543  38.889  17.707  0.00  0.00    -0.266 OA
ATOM     53  H37 08M d   1     -53.456  39.797  14.852  0.00  0.00     0.162 HD
BRANCH  51  54
ATOM     54  C37 08M d   1     -52.442  38.293  16.829  0.00  0.00     0.141 C 
ATOM     55  N38 08M d   1     -51.657  38.359  15.728  0.00  0.00    -0.253 NA
ATOM     56  C39 08M d   1     -50.487  37.744  15.791  0.00  0.00     0.020 C 
ATOM     57  C40 08M d   1     -49.913  37.500  17.027  0.00  0.00     0.019 C 
ATOM     58  H38 08M d   1     -49.983  37.434  14.883  0.00  0.00     0.117 H 
ATOM     59  N41 08M d   1     -50.682  37.424  18.104  0.00  0.00    -0.269 NA
ATOM     60  H39 08M d   1     -48.840  37.372  17.114  0.00  0.00     0.117 H 
ATOM     61  C42 08M d   1     -51.956  37.897  18.058  0.00  0.00     0.035 C 
ATOM     62  H40 08M d   1     -52.566  37.961  18.952  0.00  0.00     0.118 H 
ENDBRANCH  51  54
ENDBRANCH  47  50
ENDBRANCH  44  47
ENDBRANCH  41  44
ENDBRANCH  25  41
BRANCH  18  63
ATOM     63  CB  PHE d   1     -54.290  38.553  10.215  0.00  0.00    -0.014 C 
ATOM     64  H22 PHE d   1     -54.570  37.557  10.590  0.00  0.00     0.043 H 
ATOM     65  H23 PHE d   1     -53.787  39.117  11.014  0.00  0.00     0.043 H 
BRANCH  63  66
ATOM     66  CG  PHE d   1     -53.365  38.414   9.018  0.00  0.00    -0.056 A 
ATOM     67  CD1 PHE d   1     -52.260  39.267   8.876  0.00  0.00    -0.077 A 
ATOM     68  CE1 PHE d   1     -51.258  38.987   7.903  0.00  0.00    -0.082 A 
ATOM     69  H24 PHE d   1     -52.169  40.142   9.509  0.00  0.00     0.084 H 
ATOM     70  CZ  PHE d   1     -51.527  38.008   6.913  0.00  0.00    -0.083 A 
ATOM     71  H26 PHE d   1     -50.309  39.511   7.919  0.00  0.00     0.083 H 
ATOM     72  CE2 PHE d   1     -52.628  37.181   7.058  0.00  0.00    -0.082 A 
ATOM     73  H28 PHE d   1     -50.877  37.908   6.051  0.00  0.00     0.083 H 
ATOM     74  CD2 PHE d   1     -53.579  37.401   8.044  0.00  0.00    -0.077 A 
ATOM     75  H27 PHE d   1     -52.750  36.341   6.384  0.00  0.00     0.083 H 
ATOM     76  H25 PHE d   1     -54.482  36.802   8.072  0.00  0.00     0.084 H 
ENDBRANCH  63  66
ENDBRANCH  18  63
BRANCH  30  77
ATOM     77  C   DAB d   1     -61.629  43.953   8.812  0.00  0.00     0.196 C 
ATOM     78  O   DAB d   1     -62.465  43.019   8.855  0.00  0.00    -0.646 OA
ATOM     79  OXT DAB d   1     -61.972  45.058   8.300  0.00  0.00    -0.646 OA
ENDBRANCH  30  77
BRANCH  12  80
ATOM     80  CB  ALC d   1     -53.225  42.377   7.206  0.00  0.00    -0.035 C 
ATOM     81  H7  ALC d   1     -52.810  41.502   6.684  0.00  0.00     0.037 H 
ATOM     82  H8  ALC d   1     -52.969  42.322   8.274  0.00  0.00     0.037 H 
BRANCH  80  83
ATOM     83  CG  ALC d   1     -52.585  43.676   6.601  0.00  0.00    -0.052 C 
ATOM     84  CD2 ALC d   1     -51.131  43.736   6.983  0.00  0.00    -0.062 C 
ATOM     85  CE2 ALC d   1     -50.347  44.815   6.169  0.00  0.00    -0.065 C 
ATOM     86  H10 ALC d   1     -50.675  42.752   6.796  0.00  0.00     0.033 H 
ATOM     87  H11 ALC d   1     -51.056  43.977   8.054  0.00  0.00     0.033 H 
ATOM     88  CZ  ALC d   1     -50.614  44.807   4.708  0.00  0.00    -0.065 C 
ATOM     89  H12 ALC d   1     -49.271  44.644   6.321  0.00  0.00     0.033 H 
ATOM     90  H13 ALC d   1     -50.620  45.806   6.562  0.00  0.00     0.033 H 
ATOM     91  CE1 ALC d   1     -52.084  44.947   4.456  0.00  0.00    -0.065 C 
ATOM     92  H14 ALC d   1     -50.259  43.859   4.278  0.00  0.00     0.033 H 
ATOM     93  H15 ALC d   1     -50.082  45.646   4.236  0.00  0.00     0.033 H 
ATOM     94  CD1 ALC d   1     -52.785  43.750   5.070  0.00  0.00    -0.062 C 
ATOM     95  H16 ALC d   1     -52.275  44.976   3.373  0.00  0.00     0.033 H 
ATOM     96  H17 ALC d   1     -52.455  45.873   4.919  0.00  0.00     0.033 H 
ATOM     97  H18 ALC d   1     -53.862  43.823   4.857  0.00  0.00     0.033 H 
ATOM     98  H19 ALC d   1     -52.382  42.833   4.616  0.00  0.00     0.033 H 
ATOM     99  H9  ALC d   1     -53.091  44.546   7.045  0.00  0.00     0.040 H 
ENDBRANCH  80  83
ENDBRANCH  12  80
TORSDOF 10
