REMARK  12 active torsions:
REMARK  status: ('A' for Active; 'I' for Inactive)
REMARK    1  A    between atoms: C07_13  and  C04_10 
REMARK    2  A    between atoms: C08_14  and  C07_13 
REMARK    3  A    between atoms: C09_15  and  C08_14 
REMARK    4  A    between atoms: C10_16  and  C09_15 
REMARK    5  A    between atoms: CA_21  and  CB_24 
REMARK    6  A    between atoms: CB_24  and  CG_25 
REMARK    7  A    between atoms: C23_33  and  C31_35 
REMARK    8  A    between atoms: C31_35  and  C32_36 
REMARK    9  A    between atoms: C32_36  and  C33_37 
REMARK   10  A    between atoms: C33_37  and  N34_38 
REMARK       I    between atoms: N34_38  and  C35_39 
REMARK   11  A    between atoms: C35_39  and  C37_41 
REMARK   12  A    between atoms: CA_48  and  C_49 
REMARK       I    between atoms: C_49  and  N_54 
ROOT
ATOM      1  C2  FUM d   1     -18.424  24.199   8.325  0.00  0.00     0.242 C 
ATOM      2  O3  FUM d   1     -17.826  23.849   7.313  0.00  0.00    -0.269 OA
ATOM      3  C4  FUM d   1     -19.967  24.163   8.360  0.00  0.00    -0.013 C 
ATOM      4  C5  FUM d   1     -20.725  23.137   7.752  0.00  0.00    -0.013 C 
ATOM      5  C6  FUM d   1     -20.077  21.988   6.993  0.00  0.00     0.242 C 
ATOM      6  O7  FUM d   1     -19.131  22.195   6.276  0.00  0.00    -0.269 OA
ATOM      7  H   FUM d   1     -20.495  24.965   8.877  0.00  0.00     0.092 H 
ATOM      8  H   FUM d   1     -21.812  23.170   7.829  0.00  0.00     0.092 H 
ATOM      9  C10 P4E d   1     -21.703  20.197   7.894  0.00  0.00     0.089 C 
ATOM     10  C11 P4E d   1     -21.311  18.859   8.537  0.00  0.00     0.241 C 
ATOM     11  O12 P4E d   1     -21.827  18.472   9.578  0.00  0.00    -0.271 OA
ATOM     12  N32 P4E d   1     -20.567  20.629   7.078  0.00  0.00    -0.344 N 
ATOM     13  H   P4E d   1     -21.946  20.900   8.691  0.00  0.00     0.087 H 
ATOM     14  H   P4E d   1     -20.084  19.919   6.528  0.00  0.00     0.163 HD
ATOM     15  N   ALC d   1     -20.293  18.066   7.846  0.00  0.00    -0.346 N 
ATOM     16  CA  ALC d   1     -19.789  16.783   8.336  0.00  0.00     0.089 C 
ATOM     17  C   ALC d   1     -18.422  17.121   8.983  0.00  0.00     0.241 C 
ATOM     18  O   ALC d   1     -17.800  16.295   9.625  0.00  0.00    -0.271 OA
ATOM     19  H   ALC d   1     -19.913  18.429   6.972  0.00  0.00     0.163 HD
ATOM     20  H   ALC d   1     -20.485  16.334   9.044  0.00  0.00     0.087 H 
ATOM     21  C21 08M d   1     -16.715  20.393   9.825  0.00  0.00     0.240 C 
ATOM     22  O22 08M d   1     -17.804  20.942   9.927  0.00  0.00    -0.271 OA
ATOM     23  C23 08M d   1     -16.624  18.968   9.292  0.00  0.00     0.089 C 
ATOM     24  N24 08M d   1     -17.913  18.474   8.765  0.00  0.00    -0.346 N 
ATOM     25  H   08M d   1     -16.323  18.356  10.142  0.00  0.00     0.087 H 
ATOM     26  H   08M d   1     -18.483  19.117   8.215  0.00  0.00     0.163 HD
ATOM     27  N   DAB d   1     -17.699  24.653   9.507  0.00  0.00    -0.344 N 
ATOM     28  CA  DAB d   1     -16.217  24.726   9.612  0.00  0.00     0.091 C 
ATOM     29  CB  DAB d   1     -15.566  23.356   9.439  0.00  0.00    -0.023 C 
ATOM     30  CG  DAB d   1     -15.643  22.479  10.683  0.00  0.00    -0.003 C 
ATOM     31  ND  DAB d   1     -15.519  21.113  10.203  0.00  0.00    -0.359 N 
ATOM     32  H   DAB d   1     -18.247  24.940  10.318  0.00  0.00     0.163 HD
ATOM     33  H   DAB d   1     -15.993  25.051  10.628  0.00  0.00     0.087 H 
ATOM     34  H   DAB d   1     -14.511  23.522   9.222  0.00  0.00     0.039 H 
ATOM     35  H   DAB d   1     -16.101  22.839   8.643  0.00  0.00     0.039 H 
ATOM     36  H   DAB d   1     -16.579  22.630  11.221  0.00  0.00     0.064 H 
ATOM     37  H   DAB d   1     -14.855  22.725  11.395  0.00  0.00     0.064 H 
ATOM     38  H   DAB d   1     -14.603  20.669  10.134  0.00  0.00     0.162 HD
ENDROOT
BRANCH  23  39
ATOM     39  C31 08M d   1     -15.600  18.875   8.150  0.00  0.00    -0.036 C 
ATOM     40  H   08M d   1     -14.691  18.396   8.514  0.00  0.00     0.036 H 
ATOM     41  H   08M d   1     -15.362  19.876   7.792  0.00  0.00     0.036 H 
BRANCH  39  42
ATOM     42  C32 08M d   1     -16.196  18.042   6.996  0.00  0.00    -0.048 C 
ATOM     43  H   08M d   1     -17.267  18.236   6.946  0.00  0.00     0.035 H 
ATOM     44  H   08M d   1     -15.992  16.988   7.188  0.00  0.00     0.035 H 
BRANCH  42  45
ATOM     45  C33 08M d   1     -15.575  18.419   5.666  0.00  0.00    -0.004 C 
ATOM     46  H   08M d   1     -15.913  19.420   5.397  0.00  0.00     0.064 H 
ATOM     47  H   08M d   1     -15.879  17.684   4.921  0.00  0.00     0.064 H 
BRANCH  45  48
ATOM     48  N34 08M d   1     -14.109  18.426   5.743  0.00  0.00    -0.356 N 
ATOM     49  C35 08M d   1     -13.324  17.755   4.721  0.00  0.00     0.271 C 
ATOM     50  O36 08M d   1     -13.879  17.173   3.797  0.00  0.00    -0.266 OA
ATOM     51  H   08M d   1     -13.641  18.902   6.514  0.00  0.00     0.162 HD
BRANCH  49  52
ATOM     52  C37 08M d   1     -11.804  17.771   4.777  0.00  0.00     0.141 A 
ATOM     53  N38 08M d   1     -11.158  18.840   5.290  0.00  0.00    -0.253 NA
ATOM     54  C39 08M d   1      -9.799  18.854   5.329  0.00  0.00     0.020 A 
ATOM     55  C40 08M d   1      -9.082  17.773   4.837  0.00  0.00     0.019 A 
ATOM     56  H   08M d   1      -9.274  19.713   5.746  0.00  0.00     0.117 H 
ATOM     57  N41 08M d   1      -9.732  16.699   4.315  0.00  0.00    -0.269 NA
ATOM     58  H   08M d   1      -7.992  17.785   4.869  0.00  0.00     0.117 H 
ATOM     59  C42 08M d   1     -11.085  16.688   4.280  0.00  0.00     0.035 A 
ATOM     60  H   08M d   1     -11.612  15.830   3.862  0.00  0.00     0.118 H 
ENDBRANCH  49  52
ENDBRANCH  45  48
ENDBRANCH  42  45
ENDBRANCH  39  42
ENDBRANCH  23  39
BRANCH  16  61
ATOM     61  CB  ALC d   1     -19.660  15.707   7.230  0.00  0.00    -0.035 C 
ATOM     62  H   ALC d   1     -18.685  15.227   7.317  0.00  0.00     0.037 H 
ATOM     63  H   ALC d   1     -19.767  16.187   6.257  0.00  0.00     0.037 H 
BRANCH  61  64
ATOM     64  CG  ALC d   1     -20.750  14.645   7.381  0.00  0.00    -0.052 C 
ATOM     65  CD2 ALC d   1     -22.134  15.212   7.625  0.00  0.00    -0.062 C 
ATOM     66  CE2 ALC d   1     -23.237  14.178   7.642  0.00  0.00    -0.065 C 
ATOM     67  H   ALC d   1     -22.349  15.896   6.804  0.00  0.00     0.033 H 
ATOM     68  H   ALC d   1     -22.119  15.681   8.609  0.00  0.00     0.033 H 
ATOM     69  CZ  ALC d   1     -23.227  13.329   6.416  0.00  0.00    -0.065 C 
ATOM     70  H   ALC d   1     -24.193  14.700   7.687  0.00  0.00     0.033 H 
ATOM     71  H   ALC d   1     -23.084  13.531   8.506  0.00  0.00     0.033 H 
ATOM     72  CE1 ALC d   1     -21.878  12.728   6.163  0.00  0.00    -0.065 C 
ATOM     73  H   ALC d   1     -23.487  13.957   5.564  0.00  0.00     0.033 H 
ATOM     74  H   ALC d   1     -23.942  12.518   6.556  0.00  0.00     0.033 H 
ATOM     75  CD1 ALC d   1     -20.790  13.772   6.139  0.00  0.00    -0.062 C 
ATOM     76  H   ALC d   1     -21.901  12.237   5.190  0.00  0.00     0.033 H 
ATOM     77  H   ALC d   1     -21.660  12.027   6.969  0.00  0.00     0.033 H 
ATOM     78  H   ALC d   1     -19.837  13.246   6.080  0.00  0.00     0.033 H 
ATOM     79  H   ALC d   1     -20.985  14.425   5.289  0.00  0.00     0.033 H 
ATOM     80  H   ALC d   1     -20.484  14.067   8.266  0.00  0.00     0.040 H 
ENDBRANCH  61  64
ENDBRANCH  16  61
BRANCH  28  81
ATOM     81  C   DAB d   1     -15.613  25.784   8.705  0.00  0.00     0.238 C 
ATOM     82  O   DAB d   1     -14.968  25.465   7.732  0.00  0.00    -0.271 OA
ATOM     83  N   NH2 d   1     -15.800  27.180   9.008  0.00  0.00    -0.368 N 
ATOM     84  H   NH2 d   1     -15.390  27.892   8.404  0.00  0.00     0.159 HD
ATOM     85  H   NH2 d   1     -16.343  27.456   9.826  0.00  0.00     0.159 HD
ENDBRANCH  28  81
BRANCH   9  86
ATOM     86  C09 P4E d   1     -22.944  20.108   7.007  0.00  0.00    -0.037 C 
ATOM     87  H   P4E d   1     -22.823  20.773   6.152  0.00  0.00     0.036 H 
ATOM     88  H   P4E d   1     -23.067  19.081   6.664  0.00  0.00     0.036 H 
BRANCH  86  89
ATOM     89  C08 P4E d   1     -24.180  20.526   7.799  0.00  0.00    -0.059 C 
ATOM     90  H   P4E d   1     -24.313  19.746   8.549  0.00  0.00     0.033 H 
ATOM     91  H   P4E d   1     -23.972  21.543   8.132  0.00  0.00     0.033 H 
BRANCH  89  92
ATOM     92  C07 P4E d   1     -25.408  20.605   7.136  0.00  0.00    -0.041 C 
ATOM     93  H   P4E d   1     -25.159  20.453   6.086  0.00  0.00     0.040 H 
ATOM     94  H   P4E d   1     -26.044  19.890   7.658  0.00  0.00     0.040 H 
BRANCH  92  95
ATOM     95  C04 P4E d   1     -26.203  21.899   7.151  0.00  0.00    -0.058 A 
ATOM     96  C03 P4E d   1     -25.971  22.881   6.178  0.00  0.00    -0.077 A 
ATOM     97  C02 P4E d   1     -26.708  24.074   6.195  0.00  0.00    -0.082 A 
ATOM     98  H   P4E d   1     -25.217  22.717   5.408  0.00  0.00     0.084 H 
ATOM     99  C01 P4E d   1     -27.679  24.284   7.187  0.00  0.00    -0.083 A 
ATOM    100  H   P4E d   1     -26.527  24.838   5.439  0.00  0.00     0.083 H 
ATOM    101  C06 P4E d   1     -27.910  23.308   8.155  0.00  0.00    -0.082 A 
ATOM    102  H   P4E d   1     -28.253  25.211   7.200  0.00  0.00     0.083 H 
ATOM    103  C05 P4E d   1     -27.171  22.111   8.139  0.00  0.00    -0.077 A 
ATOM    104  H   P4E d   1     -28.664  23.472   8.925  0.00  0.00     0.083 H 
ATOM    105  H   P4E d   1     -27.352  21.349   8.896  0.00  0.00     0.084 H 
ENDBRANCH  92  95
ENDBRANCH  89  92
ENDBRANCH  86  89
ENDBRANCH   9  86
TORSDOF 12
