REMARK  6 active torsions:
REMARK  status: ('A' for Active; 'I' for Inactive)
REMARK    1  A    between atoms: N01_6  and  C01_5 
REMARK    2  A    between atoms: C03_10  and  N02_9 
REMARK    3  A    between atoms: C04_12  and  C05_14 
REMARK    4  A    between atoms: C07_16  and  C04_12 
REMARK    5  A    between atoms: N04_13  and  C11_20 
REMARK       I    between atoms: C13_22  and  N04_13 
REMARK    6  A    between atoms: C13_22  and  C14_23 
ROOT
ATOM      1  C07 18P d   1       5.862 -41.351  21.835  0.00  0.00    -0.019 A 
ATOM      2  C08 18P d   1       4.688 -40.678  21.423  0.00  0.00    -0.074 A 
ATOM      3  C09 18P d   1       3.598 -40.548  22.294  0.00  0.00    -0.080 A 
ATOM      4  C10 18P d   1       3.661 -41.079  23.591  0.00  0.00    -0.057 A 
ATOM      5  C11 18P d   1       4.828 -41.750  24.021  0.00  0.00     0.035 A 
ATOM      6  C12 18P d   1       5.916 -41.877  23.145  0.00  0.00    -0.048 A 
ATOM      7  H13 18P d   1       4.631 -40.259  20.425  0.00  0.00     0.084 H 
ATOM      8  H14 18P d   1       2.702 -40.035  21.964  0.00  0.00     0.083 H 
ATOM      9  H15 18P d   1       2.816 -40.975  24.262  0.00  0.00     0.086 H 
ATOM     10  H16 18P d   1       6.813 -42.387  23.479  0.00  0.00     0.087 H 
ENDROOT
BRANCH   1  11
ATOM     11  C04 18P d   1       7.053 -41.485  20.871  0.00  0.00     0.137 C 
ATOM     12  N03 18P d   1       8.313 -41.678  21.591  0.00  0.00    -0.356 N 
ATOM     13  C03 18P d   1       8.773 -42.876  21.966  0.00  0.00     0.111 C 
ATOM     14  H8  18P d   1       8.875 -40.846  21.821  0.00  0.00     0.162 HD
ATOM     15  C02 18P d   1       8.140 -44.140  21.476  0.00  0.00     0.051 C 
ATOM     16  N01 18P d   1       7.250 -43.924  20.321  0.00  0.00    -0.347 N 
ATOM     17  H5  18P d   1       8.936 -44.840  21.180  0.00  0.00     0.076 H 
ATOM     18  H6  18P d   1       7.552 -44.579  22.295  0.00  0.00     0.076 H 
ATOM     19  C06 18P d   1       6.748 -42.713  19.971  0.00  0.00     0.252 C 
ATOM     20  O01 18P d   1       6.039 -42.568  18.956  0.00  0.00    -0.270 OA
BRANCH  13  21
ATOM     21  N02 18P d   1       9.888 -42.914  22.699  0.00  0.00    -0.286 NA
ATOM     22  H7  18P d   1      10.307 -42.057  23.024  0.00  0.00     0.188 HD
ENDBRANCH  13  21
BRANCH  16  23
ATOM     23  C01 18P d   1       6.918 -45.125  19.548  0.00  0.00    -0.016 C 
ATOM     24  H2  18P d   1       7.421 -45.997  19.991  0.00  0.00     0.056 H 
ATOM     25  H3  18P d   1       7.254 -44.997  18.509  0.00  0.00     0.056 H 
ATOM     26  H4  18P d   1       5.829 -45.282  19.564  0.00  0.00     0.056 H 
ENDBRANCH  16  23
BRANCH  11  27
ATOM     27  C05 18P d   1       7.199 -40.171  20.058  0.00  0.00    -0.041 C 
ATOM     28  H10 18P d   1       6.272 -39.982  19.497  0.00  0.00     0.032 H 
ATOM     29  H11 18P d   1       8.040 -40.266  19.355  0.00  0.00     0.032 H 
ATOM     30  H12 18P d   1       7.388 -39.334  20.745  0.00  0.00     0.032 H 
ENDBRANCH  11  27
ENDBRANCH   1  11
BRANCH   5  31
ATOM     31  N04 18P d   1       4.993 -42.336  25.296  0.00  0.00    -0.322 N 
ATOM     32  C13 18P d   1       4.070 -42.712  26.191  0.00  0.00     0.274 C 
ATOM     33  O   18P d   1       2.846 -42.606  26.070  0.00  0.00    -0.266 OA
ATOM     34  H9  18P d   1       5.941 -42.494  25.572  0.00  0.00     0.169 HD
BRANCH  32  35
ATOM     35  C14 18P d   1       4.658 -43.335  27.421  0.00  0.00     0.124 A 
ATOM     36  N   18P d   1       3.834 -44.051  28.236  0.00  0.00    -0.254 NA
ATOM     37  C   18P d   1       4.373 -44.622  29.336  0.00  0.00     0.024 A 
ATOM     38  C17 18P d   1       5.736 -44.511  29.658  0.00  0.00     0.051 A 
ATOM     39  H1  18P d   1       3.727 -45.189  29.997  0.00  0.00     0.117 H 
ATOM     40 CL   18P d   1       6.398 -45.262  31.064  0.00  0.00    -0.083 Cl
ATOM     41  C16 18P d   1       6.576 -43.783  28.803  0.00  0.00    -0.058 A 
ATOM     42  C15 18P d   1       6.030 -43.195  27.663  0.00  0.00    -0.048 A 
ATOM     43  H18 18P d   1       7.632 -43.679  29.025  0.00  0.00     0.086 H 
ATOM     44  H17 18P d   1       6.657 -42.639  26.976  0.00  0.00     0.087 H 
ENDBRANCH  32  35
ENDBRANCH   5  31
TORSDOF 6
