REMARK  11 active torsions:
REMARK  status: ('A' for Active; 'I' for Inactive)
REMARK    1  A    between atoms: N3_2  and  C23_35 
REMARK    2  A    between atoms: C10_8  and  O1_26 
REMARK    3  A    between atoms: N2_30  and  C15_10 
REMARK    4  A    between atoms: C20_12  and  C22_14 
REMARK    5  A    between atoms: N4_36  and  C24_15 
REMARK    6  A    between atoms: O3_19  and  C11_18 
REMARK    7  A    between atoms: C2_20  and  O3_19 
REMARK    8  A    between atoms: C1_22  and  O2_23 
REMARK    9  A    between atoms: O2_23  and  C12_24 
REMARK   10  A    between atoms: O1_26  and  C9_25 
REMARK       I    between atoms: C18_31  and  N2_30 
REMARK   11  A    between atoms: C18_31  and  C19_33 
ROOT
ATOM      1  C10 03X d   1       7.705  -5.792  16.963  0.00  0.00     0.114 A 
ATOM      2  C13 03X d   1       8.617  -5.125  16.136  0.00  0.00     0.152 A 
ATOM      3  C15 03X d   1       6.799  -3.886  15.138  0.00  0.00     0.037 A 
ATOM      4  C17 03X d   1       6.343  -5.511  16.872  0.00  0.00    -0.045 A 
ATOM      5  C14 03X d   1       8.167  -4.164  15.224  0.00  0.00    -0.017 A 
ATOM      6  F1  03X d   1       9.935  -5.402  16.235  0.00  0.00    -0.203 F 
ATOM      7  C16 03X d   1       5.898  -4.561  15.961  0.00  0.00    -0.054 A 
ATOM      8  H4  03X d   1       5.635  -6.030  17.508  0.00  0.00     0.088 H 
ATOM      9  H17 03X d   1       8.873  -3.640  14.590  0.00  0.00     0.091 H 
ATOM     10  H18 03X d   1       4.839  -4.342  15.889  0.00  0.00     0.087 H 
ENDROOT
BRANCH   3  11
ATOM     11  N2  03X d   1       6.269  -2.988  14.309  0.00  0.00    -0.326 N 
ATOM     12  C18 03X d   1       6.700  -2.579  13.113  0.00  0.00     0.241 C 
ATOM     13  O4  03X d   1       7.717  -2.982  12.548  0.00  0.00    -0.272 OA
ATOM     14  H19 03X d   1       5.425  -2.557  14.629  0.00  0.00     0.169 HD
BRANCH  12  15
ATOM     15  C19 03X d   1       5.757  -1.540  12.482  0.00  0.00     0.140 A 
ATOM     16  C20 03X d   1       5.748  -0.984  11.217  0.00  0.00     0.025 A 
ATOM     17  N3  03X d   1       4.704  -0.139  11.159  0.00  0.00    -0.294 N 
ATOM     18  N4  03X d   1       4.080  -0.127  12.242  0.00  0.00    -0.222 N 
ATOM     19  C21 03X d   1       4.656  -0.975  13.101  0.00  0.00     0.262 A 
ATOM     20  O5  03X d   1       4.303  -1.204  14.256  0.00  0.00    -0.270 OA
ATOM     21  H20 03X d   1       6.438  -0.761  12.857  0.00  0.00     0.079 H 
BRANCH  16  22
ATOM     22  C22 03X d   1       6.760  -1.275  10.105  0.00  0.00    -0.038 C 
ATOM     23  H5  03X d   1       7.495  -2.012  10.461  0.00  0.00     0.035 H 
ATOM     24  H6  03X d   1       7.278  -0.345   9.829  0.00  0.00     0.035 H 
ATOM     25  H7  03X d   1       6.234  -1.677   9.226  0.00  0.00     0.035 H 
ENDBRANCH  16  22
BRANCH  17  26
ATOM     26  C23 03X d   1       4.358   0.665   9.954  0.00  0.00     0.001 C 
ATOM     27  H21 03X d   1       5.080   0.452   9.152  0.00  0.00     0.059 H 
ATOM     28  H22 03X d   1       4.394   1.735  10.205  0.00  0.00     0.059 H 
ATOM     29  H23 03X d   1       3.345   0.401   9.616  0.00  0.00     0.059 H 
ENDBRANCH  17  26
BRANCH  18  30
ATOM     30  C24 03X d   1       2.963   0.568  12.545  0.00  0.00     0.060 A 
ATOM     31  C25 03X d   1       2.957   1.589  13.495  0.00  0.00    -0.055 A 
ATOM     32  C26 03X d   1       1.771   2.265  13.795  0.00  0.00    -0.081 A 
ATOM     33  H24 03X d   1       3.876   1.859  14.003  0.00  0.00     0.087 H 
ATOM     34  C27 03X d   1       0.578   1.929  13.157  0.00  0.00    -0.083 A 
ATOM     35  H8  03X d   1       1.779   3.060  14.532  0.00  0.00     0.083 H 
ATOM     36  C28 03X d   1       0.573   0.905  12.213  0.00  0.00    -0.081 A 
ATOM     37  H25 03X d   1      -0.337   2.460  13.393  0.00  0.00     0.083 H 
ATOM     38  C29 03X d   1       1.759   0.228  11.919  0.00  0.00    -0.055 A 
ATOM     39  H9  03X d   1      -0.347   0.634  11.709  0.00  0.00     0.083 H 
ATOM     40  H26 03X d   1       1.746  -0.576  11.192  0.00  0.00     0.087 H 
ENDBRANCH  18  30
ENDBRANCH  12  15
ENDBRANCH   3  11
BRANCH   1  41
ATOM     41  O1  03X d   1       8.140  -6.725  17.860  0.00  0.00    -0.307 OA
BRANCH  41  42
ATOM     42  C9  03X d   1       8.320  -6.264  19.145  0.00  0.00     0.090 A 
ATOM     43  C5  03X d   1       8.238  -7.140  20.229  0.00  0.00     0.029 A 
ATOM     44  C4  03X d   1       7.967  -8.499  20.046  0.00  0.00    -0.033 A 
ATOM     45  C6  03X d   1       8.437  -6.641  21.523  0.00  0.00     0.072 A 
ATOM     46  C1  03X d   1       7.885  -9.356  21.153  0.00  0.00     0.102 A 
ATOM     47  H1  03X d   1       7.820  -8.891  19.046  0.00  0.00     0.089 H 
ATOM     48  C2  03X d   1       8.088  -8.857  22.441  0.00  0.00     0.103 A 
ATOM     49  C3  03X d   1       8.357  -7.496  22.617  0.00  0.00    -0.019 A 
ATOM     50  H13 03X d   1       8.505  -7.103  23.616  0.00  0.00     0.091 H 
ATOM     51  N1  03X d   1       8.704  -5.339  21.727  0.00  0.00    -0.260 NA
ATOM     52  C7  03X d   1       8.783  -4.485  20.717  0.00  0.00     0.005 A 
ATOM     53  C8  03X d   1       8.596  -4.918  19.407  0.00  0.00    -0.032 A 
ATOM     54  H2  03X d   1       8.995  -3.440  20.912  0.00  0.00     0.114 H 
ATOM     55  H3  03X d   1       8.664  -4.211  18.588  0.00  0.00     0.090 H 
BRANCH  46  56
ATOM     56  O2  03X d   1       7.621 -10.695  21.024  0.00  0.00    -0.353 OA
BRANCH  56  57
ATOM     57  C12 03X d   1       7.134 -11.116  19.737  0.00  0.00     0.010 C 
ATOM     58  H14 03X d   1       6.958 -12.202  19.749  0.00  0.00     0.066 H 
ATOM     59  H15 03X d   1       7.880 -10.874  18.966  0.00  0.00     0.066 H 
ATOM     60  H16 03X d   1       6.192 -10.594  19.513  0.00  0.00     0.066 H 
ENDBRANCH  56  57
ENDBRANCH  46  56
BRANCH  48  61
ATOM     61  O3  03X d   1       7.997  -9.722  23.503  0.00  0.00    -0.353 OA
BRANCH  61  62
ATOM     62  C11 03X d   1       8.662  -9.322  24.724  0.00  0.00     0.010 C 
ATOM     63  H10 03X d   1       8.515 -10.095  25.492  0.00  0.00     0.066 H 
ATOM     64  H11 03X d   1       8.239  -8.370  25.077  0.00  0.00     0.066 H 
ATOM     65  H12 03X d   1       9.738  -9.197  24.532  0.00  0.00     0.066 H 
ENDBRANCH  61  62
ENDBRANCH  48  61
ENDBRANCH  41  42
ENDBRANCH   1  41
TORSDOF 11
