REMARK  4 active torsions:
REMARK  status: ('A' for Active; 'I' for Inactive)
REMARK    1  A    between atoms: C1_2  and  C2_4 
REMARK    2  A    between atoms: C2_4  and  C3_5 
REMARK    3  A    between atoms: C3_5  and  C4_6 
REMARK    4  A    between atoms: C3_5  and  C5_7 
ROOT
ATOM      1  C3  KIV d   1     -25.345 -23.546 -29.335  0.00  0.00     0.008 C 
ATOM      2  H   KIV d   1     -24.960 -22.976 -30.181  0.00  0.00     0.051 H 
ENDROOT
BRANCH   1   3
ATOM      3  C2  KIV d   1     -25.947 -24.823 -29.898  0.00  0.00     0.228 C 
ATOM      4  O3  KIV d   1     -26.934 -25.375 -29.385  0.00  0.00    -0.285 OA
BRANCH   3   5
ATOM      5  C1  KIV d   1     -25.291 -25.439 -31.069  0.00  0.00     0.247 C 
ATOM      6  O1  KIV d   1     -24.227 -24.942 -31.527  0.00  0.00    -0.642 OA
ATOM      7  O2  KIV d   1     -25.808 -26.462 -31.580  0.00  0.00    -0.642 OA
ENDBRANCH   3   5
ENDBRANCH   1   3
BRANCH   1   8
ATOM      8  C4  KIV d   1     -26.374 -22.645 -28.658  0.00  0.00    -0.066 C 
ATOM      9  H   KIV d   1     -26.777 -23.151 -27.781  0.00  0.00     0.028 H 
ATOM     10  H   KIV d   1     -25.895 -21.714 -28.353  0.00  0.00     0.028 H 
ATOM     11  H   KIV d   1     -27.181 -22.428 -29.358  0.00  0.00     0.028 H 
ENDBRANCH   1   8
BRANCH   1  12
ATOM     12  C5  KIV d   1     -24.199 -23.875 -28.395  0.00  0.00    -0.066 C 
ATOM     13  H   KIV d   1     -23.706 -22.953 -28.089  0.00  0.00     0.028 H 
ATOM     14  H   KIV d   1     -24.588 -24.390 -27.516  0.00  0.00     0.028 H 
ATOM     15  H   KIV d   1     -23.484 -24.518 -28.907  0.00  0.00     0.028 H 
ENDBRANCH   1  12
TORSDOF 4
