REMARK  14 active torsions:
REMARK  status: ('A' for Active; 'I' for Inactive)
REMARK    1  A    between atoms: C_1  and  CA_4 
REMARK       I    between atoms: C_1  and  NAS_20 
REMARK    2  A    between atoms: CA_4  and  N_2 
REMARK       I    between atoms: N_2  and  CAG_9 
REMARK    3  A    between atoms: CA_4  and  CB_5 
REMARK    4  A    between atoms: CB_5  and  CAA_6 
REMARK    5  A    between atoms: CB_5  and  CAC_7 
REMARK    6  A    between atoms: CB_5  and  CAD_8 
REMARK       I    between atoms: CAG_9  and  NAI_11 
REMARK    7  A    between atoms: NAI_11  and  CAJ_12 
REMARK    8  A    between atoms: CAP_17  and  OAP_18 
REMARK    9  A    between atoms: OAP_18  and  CAQ_19 
REMARK   10  A    between atoms: NAS_20  and  CAT_21 
REMARK   11  A    between atoms: NAS_20  and  CAY_26 
REMARK   12  A    between atoms: CAT_21  and  CAU_22 
REMARK       I    between atoms: CAU_22  and  NAW_24 
REMARK   13  A    between atoms: NAW_24  and  OAX_25 
REMARK   14  A    between atoms: CAY_26  and  CAZ_27 
ROOT
ATOM      1  CA  MDB d   1     -17.093  85.670  70.033  0.00  0.00     0.097 C 
ATOM      2  H2  MDB d   1     -17.380  84.979  70.840  0.00  0.00     0.088 H 
ENDROOT
BRANCH   1   3
ATOM      3  C   MDB d   1     -16.739  84.879  68.791  0.00  0.00     0.243 C 
ATOM      4  O   MDB d   1     -15.990  85.415  67.982  0.00  0.00    -0.271 OA
ATOM      5  NAS MDB d   1     -17.197  83.629  68.568  0.00  0.00    -0.341 N 
BRANCH   5   6
ATOM      6  CAT MDB d   1     -16.791  82.962  67.333  0.00  0.00     0.073 C 
ATOM      7  H20 MDB d   1     -16.229  82.054  67.597  0.00  0.00     0.079 H 
ATOM      8  H21 MDB d   1     -16.140  83.644  66.767  0.00  0.00     0.079 H 
BRANCH   6   9
ATOM      9  CAU MDB d   1     -17.958  82.564  66.444  0.00  0.00     0.258 C 
ATOM     10  OAV MDB d   1     -18.958  83.261  66.310  0.00  0.00    -0.270 OA
ATOM     11  NAW MDB d   1     -17.788  81.406  65.817  0.00  0.00    -0.236 N 
ATOM     12  H22 MDB d   1     -16.950  80.887  65.983  0.00  0.00     0.197 HD
BRANCH  11  13
ATOM     13  OAX MDB d   1     -18.733  80.889  64.938  0.00  0.00    -0.287 OA
ATOM     14  H23 MDB d   1     -18.425  80.058  64.597  0.00  0.00     0.244 HD
ENDBRANCH  11  13
ENDBRANCH   6   9
ENDBRANCH   5   6
BRANCH   5  15
ATOM     15  CAY MDB d   1     -18.086  82.835  69.429  0.00  0.00     0.002 C 
ATOM     16  H24 MDB d   1     -18.681  82.150  68.808  0.00  0.00     0.065 H 
ATOM     17  H25 MDB d   1     -18.759  83.508  69.980  0.00  0.00     0.065 H 
BRANCH  15  18
ATOM     18  CAZ MDB d   1     -17.252  82.026  70.422  0.00  0.00    -0.038 C 
ATOM     19  CBA MDB d   1     -18.151  81.489  71.538  0.00  0.00    -0.060 C 
ATOM     20  CBB MDB d   1     -17.549  80.160  71.985  0.00  0.00    -0.065 C 
ATOM     21  H27 MDB d   1     -19.173  81.335  71.160  0.00  0.00     0.033 H 
ATOM     22  H28 MDB d   1     -18.174  82.197  72.380  0.00  0.00     0.033 H 
ATOM     23  CBC MDB d   1     -16.518  79.756  70.943  0.00  0.00    -0.065 C 
ATOM     24  H29 MDB d   1     -18.336  79.394  72.052  0.00  0.00     0.033 H 
ATOM     25  H30 MDB d   1     -17.066  80.277  72.966  0.00  0.00     0.033 H 
ATOM     26  CBD MDB d   1     -16.615  80.784  69.812  0.00  0.00    -0.060 C 
ATOM     27  H31 MDB d   1     -16.739  78.749  70.561  0.00  0.00     0.033 H 
ATOM     28  H32 MDB d   1     -15.509  79.768  71.382  0.00  0.00     0.033 H 
ATOM     29  H33 MDB d   1     -15.613  81.020  69.424  0.00  0.00     0.033 H 
ATOM     30  H34 MDB d   1     -17.242  80.395  68.996  0.00  0.00     0.033 H 
ATOM     31  H26 MDB d   1     -16.470  82.678  70.838  0.00  0.00     0.042 H 
ENDBRANCH  15  18
ENDBRANCH   5  15
ENDBRANCH   1   3
BRANCH   1  32
ATOM     32  N   MDB d   1     -15.844  86.327  70.367  0.00  0.00    -0.329 N 
ATOM     33  CAG MDB d   1     -15.135  86.077  71.466  0.00  0.00     0.321 C 
ATOM     34  OAH MDB d   1     -15.522  85.285  72.313  0.00  0.00    -0.247 OA
ATOM     35  NAI MDB d   1     -13.997  86.765  71.559  0.00  0.00    -0.306 N 
ATOM     36  H12 MDB d   1     -13.794  87.383  70.799  0.00  0.00     0.171 HD
ATOM     37  H1  MDB d   1     -15.492  87.013  69.730  0.00  0.00     0.165 HD
BRANCH  35  38
ATOM     38  CAJ MDB d   1     -13.074  86.728  72.567  0.00  0.00     0.069 A 
ATOM     39  CAK MDB d   1     -13.222  85.928  73.700  0.00  0.00    -0.054 A 
ATOM     40  CAL MDB d   1     -12.249  85.933  74.705  0.00  0.00    -0.081 A 
ATOM     41  H13 MDB d   1     -14.098  85.297  73.802  0.00  0.00     0.087 H 
ATOM     42  CAM MDB d   1     -11.121  86.744  74.584  0.00  0.00    -0.080 A 
ATOM     43  H14 MDB d   1     -12.372  85.305  75.580  0.00  0.00     0.083 H 
ATOM     44  CAN MDB d   1     -10.967  87.544  73.449  0.00  0.00    -0.049 A 
ATOM     45  H15 MDB d   1     -10.369  86.754  75.365  0.00  0.00     0.083 H 
ATOM     46  CAP MDB d   1     -11.946  87.533  72.447  0.00  0.00     0.095 A 
ATOM     47  H16 MDB d   1     -10.090  88.173  73.344  0.00  0.00     0.087 H 
BRANCH  46  48
ATOM     48  OAP MDB d   1     -11.795  88.315  71.333  0.00  0.00    -0.354 OA
BRANCH  48  49
ATOM     49  CAQ MDB d   1     -10.580  88.248  70.583  0.00  0.00     0.010 C 
ATOM     50  H17 MDB d   1     -10.637  88.939  69.729  0.00  0.00     0.066 H 
ATOM     51  H18 MDB d   1     -10.433  87.222  70.215  0.00  0.00     0.066 H 
ATOM     52  H19 MDB d   1      -9.735  88.531  71.228  0.00  0.00     0.066 H 
ENDBRANCH  48  49
ENDBRANCH  46  48
ENDBRANCH  35  38
ENDBRANCH   1  32
BRANCH   1  53
ATOM     53  CB  MDB d   1     -18.249  86.664  69.837  0.00  0.00    -0.022 C 
BRANCH  53  54
ATOM     54  CAA MDB d   1     -18.586  87.340  71.168  0.00  0.00    -0.067 C 
ATOM     55  H3  MDB d   1     -19.413  88.049  71.020  0.00  0.00     0.028 H 
ATOM     56  H4  MDB d   1     -17.702  87.880  71.539  0.00  0.00     0.028 H 
ATOM     57  H5  MDB d   1     -18.884  86.577  71.902  0.00  0.00     0.028 H 
ENDBRANCH  53  54
BRANCH  53  58
ATOM     58  CAC MDB d   1     -17.900  87.785  68.854  0.00  0.00    -0.067 C 
ATOM     59  H6  MDB d   1     -17.648  87.350  67.876  0.00  0.00     0.028 H 
ATOM     60  H7  MDB d   1     -17.038  88.352  69.235  0.00  0.00     0.028 H 
ATOM     61  H8  MDB d   1     -18.763  88.459  68.745  0.00  0.00     0.028 H 
ENDBRANCH  53  58
BRANCH  53  62
ATOM     62  CAD MDB d   1     -19.509  85.945  69.359  0.00  0.00    -0.067 C 
ATOM     63  H9  MDB d   1     -19.761  85.139  70.064  0.00  0.00     0.028 H 
ATOM     64  H10 MDB d   1     -19.331  85.517  68.362  0.00  0.00     0.028 H 
ATOM     65  H11 MDB d   1     -20.342  86.661  69.307  0.00  0.00     0.028 H 
ENDBRANCH  53  62
ENDBRANCH   1  53
TORSDOF 14
