REMARK  15 active torsions:
REMARK  status: ('A' for Active; 'I' for Inactive)
REMARK    1  A    between atoms: CA_4  and  C_1 
REMARK    2  A    between atoms: C_1  and  CAY_24 
REMARK    3  A    between atoms: N_2  and  CA_4 
REMARK       I    between atoms: CAT_21  and  N_2 
REMARK    4  A    between atoms: CA_4  and  CB_5 
REMARK    5  A    between atoms: CB_5  and  CG1_26 
REMARK    6  A    between atoms: CB_5  and  CG2_27 
REMARK    7  A    between atoms: CAM_15  and  CAA_6 
REMARK    8  A    between atoms: CAV_22  and  CAB_7 
REMARK    9  A    between atoms: NBA_25  and  OAH_10 
REMARK       I    between atoms: NBA_25  and  CAI_11 
REMARK   10  A    between atoms: CAN_16  and  CAM_15 
REMARK   11  A    between atoms: CAO_17  and  CAN_16 
REMARK   12  A    between atoms: CAY_24  and  CAO_17 
REMARK   13  A    between atoms: CAY_24  and  CAP_18 
REMARK   14  A    between atoms: CAP_18  and  NBA_25 
REMARK       I    between atoms: NAR_20  and  CAT_21 
REMARK   15  A    between atoms: NAR_20  and  CAW_23 
ROOT
ATOM      1  CA  UHF d   1     -17.534 145.422  46.094  0.00  0.00     0.074 C 
ATOM      2  H2  UHF d   1     -17.498 144.712  46.933  0.00  0.00     0.085 H 
ENDROOT
BRANCH   1   3
ATOM      3  C   UHF d   1     -16.958 144.767  44.829  0.00  0.00     0.155 C 
ATOM      4  O   UHF d   1     -15.815 144.966  44.447  0.00  0.00    -0.295 OA
BRANCH   3   5
ATOM      5  CAY UHF d   1     -17.903 143.878  44.042  0.00  0.00     0.024 C 
ATOM      6  H24 UHF d   1     -18.918 143.974  44.455  0.00  0.00     0.054 H 
BRANCH   5   7
ATOM      7  CAO UHF d   1     -17.470 142.408  44.117  0.00  0.00    -0.054 C 
ATOM      8  H19 UHF d   1     -18.312 141.766  43.819  0.00  0.00     0.034 H 
ATOM      9  H20 UHF d   1     -16.624 142.243  43.434  0.00  0.00     0.034 H 
BRANCH   7  10
ATOM     10  CAN UHF d   1     -17.046 142.055  45.538  0.00  0.00    -0.065 C 
ATOM     11  H17 UHF d   1     -16.012 142.389  45.706  0.00  0.00     0.033 H 
ATOM     12  H18 UHF d   1     -17.714 142.555  46.255  0.00  0.00     0.033 H 
BRANCH  10  13
ATOM     13  CAM UHF d   1     -17.130 140.557  45.730  0.00  0.00    -0.069 C 
ATOM     14  H15 UHF d   1     -18.142 140.205  45.481  0.00  0.00     0.032 H 
ATOM     15  H16 UHF d   1     -16.397 140.055  45.081  0.00  0.00     0.032 H 
BRANCH  13  16
ATOM     16  CAA UHF d   1     -16.823 140.256  47.178  0.00  0.00    -0.077 C 
ATOM     17  H4  UHF d   1     -16.877 139.170  47.346  0.00  0.00     0.027 H 
ATOM     18  H5  UHF d   1     -17.556 140.764  47.822  0.00  0.00     0.027 H 
ATOM     19  H6  UHF d   1     -15.812 140.615  47.421  0.00  0.00     0.027 H 
ENDBRANCH  13  16
ENDBRANCH  10  13
ENDBRANCH   7  10
ENDBRANCH   5   7
BRANCH   5  20
ATOM     20  CAP UHF d   1     -17.900 144.332  42.590  0.00  0.00     0.033 C 
ATOM     21  H21 UHF d   1     -16.866 144.398  42.222  0.00  0.00     0.069 H 
ATOM     22  H22 UHF d   1     -18.382 145.317  42.506  0.00  0.00     0.069 H 
BRANCH  20  23
ATOM     23  NBA UHF d   1     -18.638 143.355  41.813  0.00  0.00    -0.235 N 
ATOM     24  CAI UHF d   1     -18.063 142.238  41.322  0.00  0.00     0.193 C 
ATOM     25  OAE UHF d   1     -18.589 141.352  40.666  0.00  0.00    -0.281 OA
ATOM     26  H11 UHF d   1     -17.003 142.111  41.536  0.00  0.00     0.183 H 
BRANCH  23  27
ATOM     27  OAH UHF d   1     -19.925 143.613  41.629  0.00  0.00    -0.285 OA
ATOM     28  H10 UHF d   1     -20.106 143.668  40.698  0.00  0.00     0.245 HD
ENDBRANCH  23  27
ENDBRANCH  20  23
ENDBRANCH   5  20
ENDBRANCH   3   5
ENDBRANCH   1   3
BRANCH   1  29
ATOM     29  N   UHF d   1     -16.767 146.621  46.412  0.00  0.00    -0.331 N 
ATOM     30  CAT UHF d   1     -15.568 146.574  46.973  0.00  0.00     0.322 C 
ATOM     31  OAF UHF d   1     -15.059 145.510  47.273  0.00  0.00    -0.247 OA
ATOM     32  NAR UHF d   1     -14.955 147.729  47.196  0.00  0.00    -0.293 N 
ATOM     33  H23 UHF d   1     -15.396 148.597  46.968  0.00  0.00     0.172 HD
ATOM     34  H1  UHF d   1     -17.162 147.514  46.198  0.00  0.00     0.165 HD
BRANCH  32  35
ATOM     35  CAW UHF d   1     -13.755 147.701  47.723  0.00  0.00     0.131 A 
ATOM     36  CAK UHF d   1     -13.453 146.884  48.793  0.00  0.00    -0.038 A 
ATOM     37  CAJ UHF d   1     -12.169 146.886  49.311  0.00  0.00    -0.072 A 
ATOM     38  H13 UHF d   1     -14.215 146.245  49.225  0.00  0.00     0.089 H 
ATOM     39  CAV UHF d   1     -11.201 147.704  48.752  0.00  0.00    -0.044 A 
ATOM     40  H12 UHF d   1     -11.922 146.249  50.152  0.00  0.00     0.084 H 
ATOM     41  CAL UHF d   1     -11.530 148.508  47.682  0.00  0.00     0.010 A 
ATOM     42  NAQ UHF d   1     -12.825 148.483  47.184  0.00  0.00    -0.243 NA
ATOM     43  H14 UHF d   1     -10.784 149.154  47.233  0.00  0.00     0.115 H 
BRANCH  39  44
ATOM     44  CAB UHF d   1      -9.910 147.724  49.251  0.00  0.00    -0.050 C 
ATOM     45  H7  UHF d   1      -9.833 147.025  50.097  0.00  0.00     0.033 H 
ATOM     46  H8  UHF d   1      -9.664 148.740  49.592  0.00  0.00     0.033 H 
ATOM     47  H9  UHF d   1      -9.207 147.422  48.461  0.00  0.00     0.033 H 
ENDBRANCH  39  44
ENDBRANCH  32  35
ENDBRANCH   1  29
BRANCH   1  48
ATOM     48  CB  UHF d   1     -18.964 145.855  45.832  0.00  0.00    -0.035 C 
ATOM     49  H3  UHF d   1     -19.502 145.078  45.269  0.00  0.00     0.042 H 
BRANCH  48  50
ATOM     50  CG1 UHF d   1     -18.933 147.156  45.041  0.00  0.00    -0.071 C 
ATOM     51  H25 UHF d   1     -19.962 147.488  44.840  0.00  0.00     0.028 H 
ATOM     52  H26 UHF d   1     -18.408 146.994  44.088  0.00  0.00     0.028 H 
ATOM     53  H27 UHF d   1     -18.407 147.927  45.623  0.00  0.00     0.028 H 
ENDBRANCH  48  50
BRANCH  48  54
ATOM     54  CG2 UHF d   1     -19.649 146.109  47.163  0.00  0.00    -0.071 C 
ATOM     55  H28 UHF d   1     -19.678 145.176  47.745  0.00  0.00     0.028 H 
ATOM     56  H29 UHF d   1     -20.675 146.462  46.986  0.00  0.00     0.028 H 
ATOM     57  H30 UHF d   1     -19.090 146.873  47.723  0.00  0.00     0.028 H 
ENDBRANCH  48  54
ENDBRANCH   1  48
TORSDOF 15
