REMARK  16 active torsions:
REMARK  status: ('A' for Active; 'I' for Inactive)
REMARK    1  A    between atoms: C2_2  and  N1_1 
REMARK    2  A    between atoms: S8_8  and  C5_5 
REMARK    3  A    between atoms: N11_11  and  S8_8 
REMARK    4  A    between atoms: N11_11  and  C12_12 
REMARK    5  A    between atoms: C16_16  and  N11_11 
REMARK    6  A    between atoms: C12_12  and  C13_13 
REMARK    7  A    between atoms: C13_13  and  C14_14 
REMARK    8  A    between atoms: C13_13  and  C15_15 
REMARK    9  A    between atoms: C17_17  and  C16_16 
REMARK   10  A    between atoms: C17_17  and  O18_18 
REMARK   11  A    between atoms: C19_19  and  C17_17 
REMARK   12  A    between atoms: C19_19  and  N20_20 
REMARK   13  A    between atoms: C32_32  and  C19_19 
REMARK       I    between atoms: N20_20  and  C21_21 
REMARK   14  A    between atoms: C21_21  and  O23_23 
REMARK   15  A    between atoms: O23_23  and  C24_24 
REMARK   16  A    between atoms: C38_38  and  C32_32 
ROOT
ATOM      1  C19 017 d   1      -8.869  17.589  26.388  0.00  0.00     0.044 C 
ATOM      2  H20 017 d   1      -8.592  16.547  26.604  0.00  0.00     0.077 H 
ENDROOT
BRANCH   1   3
ATOM      3  C17 017 d   1     -10.270  17.898  26.941  0.00  0.00     0.067 C 
ATOM      4  H18 017 d   1     -10.992  17.277  26.391  0.00  0.00     0.088 H 
BRANCH   3   5
ATOM      5  C16 017 d   1     -10.366  17.510  28.427  0.00  0.00     0.019 C 
ATOM      6  H16 017 d   1      -9.503  17.910  28.979  0.00  0.00     0.061 H 
ATOM      7  H17 017 d   1     -11.295  17.907  28.862  0.00  0.00     0.061 H 
BRANCH   5   8
ATOM      8  N11 017 d   1     -10.367  16.031  28.486  0.00  0.00    -0.204 NA
BRANCH   8   9
ATOM      9  S8  017 d   1      -9.200  15.411  29.429  0.00  0.00     0.243 S 
ATOM     10  O9  017 d   1      -8.020  16.228  29.392  0.00  0.00    -0.206 OA
ATOM     11  O10 017 d   1      -8.913  14.115  28.864  0.00  0.00    -0.206 OA
BRANCH   9  12
ATOM     12  C5  017 d   1      -9.623  15.172  30.964  0.00  0.00     0.074 A 
ATOM     13  C4  017 d   1      -9.606  16.199  31.909  0.00  0.00    -0.059 A 
ATOM     14  C3  017 d   1      -9.979  15.935  33.238  0.00  0.00    -0.056 A 
ATOM     15  H4  017 d   1      -9.305  17.199  31.618  0.00  0.00     0.086 H 
ATOM     16  C2  017 d   1     -10.355  14.644  33.630  0.00  0.00     0.025 A 
ATOM     17  H3  017 d   1      -9.976  16.738  33.966  0.00  0.00     0.086 H 
ATOM     18  C7  017 d   1     -10.354  13.622  32.689  0.00  0.00    -0.056 A 
ATOM     19  C6  017 d   1      -9.995  13.890  31.365  0.00  0.00    -0.059 A 
ATOM     20  H6  017 d   1     -10.632  12.616  32.982  0.00  0.00     0.086 H 
ATOM     21  H5  017 d   1     -10.006  13.087  30.637  0.00  0.00     0.086 H 
BRANCH  16  22
ATOM     22  N1  017 d   1     -10.718  14.363  34.915  0.00  0.00    -0.399 N 
ATOM     23  H1  017 d   1     -10.724  15.110  35.624  0.00  0.00     0.156 HD
ATOM     24  H2  017 d   1     -10.986  13.403  35.176  0.00  0.00     0.156 HD
ENDBRANCH  16  22
ENDBRANCH   9  12
ENDBRANCH   8   9
BRANCH   8  25
ATOM     25  C12 017 d   1     -11.698  15.443  28.761  0.00  0.00    -0.004 C 
ATOM     26  H7  017 d   1     -12.273  16.126  29.404  0.00  0.00     0.058 H 
ATOM     27  H8  017 d   1     -11.572  14.477  29.272  0.00  0.00     0.058 H 
BRANCH  25  28
ATOM     28  C13 017 d   1     -12.457  15.226  27.440  0.00  0.00    -0.049 C 
ATOM     29  H9  017 d   1     -12.600  16.216  26.983  0.00  0.00     0.040 H 
BRANCH  28  30
ATOM     30  C14 017 d   1     -11.688  14.365  26.447  0.00  0.00    -0.072 C 
ATOM     31  H10 017 d   1     -12.281  14.248  25.528  0.00  0.00     0.028 H 
ATOM     32  H11 017 d   1     -11.498  13.376  26.890  0.00  0.00     0.028 H 
ATOM     33  H12 017 d   1     -10.730  14.849  26.206  0.00  0.00     0.028 H 
ENDBRANCH  28  30
BRANCH  28  34
ATOM     34  C15 017 d   1     -13.826  14.614  27.663  0.00  0.00    -0.072 C 
ATOM     35  H13 017 d   1     -14.390  15.229  28.380  0.00  0.00     0.028 H 
ATOM     36  H14 017 d   1     -13.712  13.596  28.064  0.00  0.00     0.028 H 
ATOM     37  H15 017 d   1     -14.369  14.573  26.707  0.00  0.00     0.028 H 
ENDBRANCH  28  34
ENDBRANCH  25  28
ENDBRANCH   8  25
ENDBRANCH   5   8
ENDBRANCH   3   5
BRANCH   3  38
ATOM     38  O18 017 d   1     -10.621  19.277  26.708  0.00  0.00    -0.392 OA
ATOM     39  H19 017 d   1     -11.514  19.428  26.994  0.00  0.00     0.210 HD
ENDBRANCH   3  38
ENDBRANCH   1   3
BRANCH   1  40
ATOM     40  N20 017 d   1      -8.904  17.839  24.948  0.00  0.00    -0.329 N 
ATOM     41  C21 017 d   1      -8.822  16.881  24.012  0.00  0.00     0.361 C 
ATOM     42  O22 017 d   1      -8.727  15.674  24.247  0.00  0.00    -0.238 OA
ATOM     43  H21 017 d   1      -8.995  18.786  24.640  0.00  0.00     0.165 HD
BRANCH  41  44
ATOM     44  O23 017 d   1      -8.863  17.342  22.633  0.00  0.00    -0.296 OA
BRANCH  44  45
ATOM     45  C24 017 d   1      -8.453  16.459  21.588  0.00  0.00     0.078 C 
ATOM     46  C25 017 d   1      -9.382  16.776  20.432  0.00  0.00     0.048 C 
ATOM     47  O26 017 d   1      -8.823  17.950  19.844  0.00  0.00    -0.358 OA
ATOM     48  H23 017 d   1     -10.403  16.969  20.794  0.00  0.00     0.078 H 
ATOM     49  H24 017 d   1      -9.400  15.948  19.708  0.00  0.00     0.078 H 
ATOM     50  C27 017 d   1      -7.403  17.980  20.037  0.00  0.00     0.137 C 
ATOM     51  O28 017 d   1      -6.988  19.206  20.645  0.00  0.00    -0.361 OA
ATOM     52  C31 017 d   1      -7.099  16.868  21.029  0.00  0.00     0.023 C 
ATOM     53  H25 017 d   1      -6.877  17.826  19.083  0.00  0.00     0.129 H 
ATOM     54  C29 017 d   1      -6.126  18.959  21.757  0.00  0.00     0.023 C 
ATOM     55  C30 017 d   1      -6.109  17.457  22.020  0.00  0.00    -0.035 C 
ATOM     56  H26 017 d   1      -6.502  19.488  22.645  0.00  0.00     0.074 H 
ATOM     57  H27 017 d   1      -5.109  19.308  21.525  0.00  0.00     0.074 H 
ATOM     58  H28 017 d   1      -6.423  17.242  23.052  0.00  0.00     0.037 H 
ATOM     59  H29 017 d   1      -5.103  17.047  21.850  0.00  0.00     0.037 H 
ATOM     60  H30 017 d   1      -6.637  16.003  20.532  0.00  0.00     0.051 H 
ATOM     61  H22 017 d   1      -8.478  15.406  21.904  0.00  0.00     0.088 H 
ENDBRANCH  44  45
ENDBRANCH  41  44
ENDBRANCH   1  40
BRANCH   1  62
ATOM     62  C32 017 d   1      -7.838  18.550  26.974  0.00  0.00    -0.020 C 
ATOM     63  H31 017 d   1      -7.773  18.393  28.061  0.00  0.00     0.043 H 
ATOM     64  H32 017 d   1      -8.151  19.585  26.771  0.00  0.00     0.043 H 
BRANCH  62  65
ATOM     65  C38 017 d   1      -6.483  18.312  26.357  0.00  0.00    -0.056 A 
ATOM     66  C33 017 d   1      -6.029  19.183  25.361  0.00  0.00    -0.077 A 
ATOM     67  C34 017 d   1      -4.776  18.969  24.794  0.00  0.00    -0.082 A 
ATOM     68  H33 017 d   1      -6.645  20.014  25.035  0.00  0.00     0.084 H 
ATOM     69  C35 017 d   1      -3.988  17.904  25.217  0.00  0.00    -0.083 A 
ATOM     70  H34 017 d   1      -4.413  19.635  24.020  0.00  0.00     0.083 H 
ATOM     71  C36 017 d   1      -4.445  17.039  26.215  0.00  0.00    -0.082 A 
ATOM     72  H35 017 d   1      -3.014  17.744  24.770  0.00  0.00     0.083 H 
ATOM     73  C37 017 d   1      -5.698  17.244  26.790  0.00  0.00    -0.077 A 
ATOM     74  H36 017 d   1      -3.826  16.211  26.541  0.00  0.00     0.083 H 
ATOM     75  H37 017 d   1      -6.059  16.579  27.567  0.00  0.00     0.084 H 
ENDBRANCH  62  65
ENDBRANCH   1  62
TORSDOF 16
