REMARK  1 active torsions:
REMARK  status: ('A' for Active; 'I' for Inactive)
REMARK    1  A    between atoms: C2_2  and  N2_8 
ROOT
ATOM      1  N2  09R d   1     -31.732  76.609 -28.269  0.00  0.00    -0.378 N 
ATOM      2  C6  09R d   1     -30.827  77.511 -27.547  0.00  0.00     0.018 C 
ATOM      3  C7  09R d   1     -29.907  78.259 -28.520  0.00  0.00     0.096 C 
ATOM      4  N3  09R d   1     -30.671  79.214 -29.331  0.00  0.00    -0.074 N 
ATOM      5  C8  09R d   1     -31.170  78.739 -30.655  0.00  0.00     0.083 C 
ATOM      6  C9  09R d   1     -31.594  77.259 -30.831  0.00  0.00    -0.028 C 
ATOM      7  C10 09R d   1     -31.337  76.271 -29.656  0.00  0.00    -0.003 C 
ATOM      8  H4  09R d   1     -30.212  76.922 -26.851  0.00  0.00     0.066 H 
ATOM      9  H5  09R d   1     -31.423  78.242 -26.981  0.00  0.00     0.066 H 
ATOM     10  H6  09R d   1     -29.418  77.532 -29.185  0.00  0.00     0.078 H 
ATOM     11  H7  09R d   1     -29.142  78.804 -27.947  0.00  0.00     0.078 H 
ATOM     12  H8  09R d   1     -30.078  80.012 -29.499  0.00  0.00     0.277 HD
ATOM     13  H9  09R d   1     -31.472  79.499 -28.790  0.00  0.00     0.277 HD
ATOM     14  H10 09R d   1     -30.369  78.930 -31.385  0.00  0.00     0.075 H 
ATOM     15  H11 09R d   1     -32.047  79.354 -30.904  0.00  0.00     0.075 H 
ATOM     16  H12 09R d   1     -31.056  76.869 -31.708  0.00  0.00     0.037 H 
ATOM     17  H13 09R d   1     -32.676  77.252 -31.031  0.00  0.00     0.037 H 
ATOM     18  H14 09R d   1     -31.863  75.339 -29.912  0.00  0.00     0.064 H 
ATOM     19  H15 09R d   1     -30.253  76.087 -29.635  0.00  0.00     0.064 H 
ENDROOT
BRANCH   1  20
ATOM     20  C2  09R d   1     -32.982  76.334 -27.767  0.00  0.00     0.048 A 
ATOM     21  C1  09R d   1     -33.188  76.537 -26.382  0.00  0.00     0.029 A 
ATOM     22  N1  09R d   1     -34.342  76.305 -25.730  0.00  0.00    -0.251 NA
ATOM     23  H1  09R d   1     -32.351  76.908 -25.801  0.00  0.00     0.118 H 
ATOM     24  C5  09R d   1     -35.401  75.838 -26.411  0.00  0.00     0.102 A 
ATOM     25  C4  09R d   1     -35.337  75.588 -27.809  0.00  0.00    -0.046 A 
ATOM     26 BR1  09R d   1     -36.782  75.532 -25.417  0.00  0.00    -0.029 Br
ATOM     27  C3  09R d   1     -34.127  75.848 -28.500  0.00  0.00    -0.053 A 
ATOM     28  H3  09R d   1     -36.201  75.204 -28.339  0.00  0.00     0.087 H 
ATOM     29  H2  09R d   1     -34.062  75.683 -29.570  0.00  0.00     0.087 H 
ENDBRANCH   1  20
TORSDOF 1
