REMARK  6 active torsions:
REMARK  status: ('A' for Active; 'I' for Inactive)
REMARK    1  A    between atoms: C22_3  and  N5_4 
REMARK       I    between atoms: N5_4  and  C21_5 
REMARK    2  A    between atoms: C21_5  and  C11_7 
REMARK    3  A    between atoms: C14_11  and  C20_12 
REMARK    4  A    between atoms: N4_18  and  C7_19 
REMARK    5  A    between atoms: C7_19  and  C8_20 
REMARK    6  A    between atoms: C2_25  and  C6_26 
ROOT
ATOM      1  C11 09J d   1       5.111 -28.108 -28.959  0.00  0.00     0.032 A 
ATOM      2  C10 09J d   1       3.924 -28.773 -29.271  0.00  0.00    -0.056 A 
ATOM      3  C12 09J d   1       6.226 -28.292 -29.780  0.00  0.00    -0.067 A 
ATOM      4  C13 09J d   1       6.142 -29.136 -30.890  0.00  0.00    -0.075 A 
ATOM      5  C14 09J d   1       4.950 -29.800 -31.196  0.00  0.00    -0.051 A 
ATOM      6  C9  09J d   1       3.822 -29.621 -30.377  0.00  0.00    -0.013 A 
ATOM      7  C4  09J d   1       2.570 -30.230 -30.578  0.00  0.00     0.048 A 
ATOM      8  C5  09J d   1       2.264 -31.442 -29.966  0.00  0.00    -0.019 A 
ATOM      9  C3  09J d   1       1.572 -29.623 -31.348  0.00  0.00     0.273 A 
ATOM     10  O1  09J d   1       1.811 -28.543 -31.893  0.00  0.00    -0.266 OA
ATOM     11  N4  09J d   1       0.291 -30.258 -31.515  0.00  0.00    -0.247 N 
ATOM     12  N3  09J d   1       0.033 -31.351 -30.963  0.00  0.00    -0.210 N 
ATOM     13  C1  09J d   1       0.999 -32.000 -30.167  0.00  0.00     0.174 A 
ATOM     14  N1  09J d   1       0.454 -33.134 -29.720  0.00  0.00    -0.128 NA
ATOM     15  N2  09J d   1      -0.702 -33.269 -30.131  0.00  0.00    -0.127 NA
ATOM     16  C2  09J d   1      -1.069 -32.243 -30.893  0.00  0.00     0.188 A 
ATOM     17  H7  09J d   1       3.057 -28.628 -28.637  0.00  0.00     0.086 H 
ATOM     18  H8  09J d   1       7.155 -27.781 -29.556  0.00  0.00     0.085 H 
ATOM     19  H9  09J d   1       7.011 -29.278 -31.522  0.00  0.00     0.084 H 
ATOM     20  H13 09J d   1       2.999 -31.947 -29.341  0.00  0.00     0.091 H 
ENDROOT
BRANCH   5  21
ATOM     21  C20 09J d   1       4.924 -30.706 -32.430  0.00  0.00    -0.050 C 
ATOM     22  H10 09J d   1       5.911 -30.694 -32.915  0.00  0.00     0.033 H 
ATOM     23  H11 09J d   1       4.164 -30.341 -33.137  0.00  0.00     0.033 H 
ATOM     24  H12 09J d   1       4.678 -31.734 -32.125  0.00  0.00     0.033 H 
ENDBRANCH   5  21
BRANCH  11  25
ATOM     25  C7  09J d   1      -0.727 -29.565 -32.357  0.00  0.00     0.016 C 
ATOM     26  H14 09J d   1      -0.604 -28.478 -32.244  0.00  0.00     0.066 H 
ATOM     27  H15 09J d   1      -1.731 -29.858 -32.016  0.00  0.00     0.066 H 
BRANCH  25  28
ATOM     28  C8  09J d   1      -0.578 -29.931 -33.838  0.00  0.00    -0.059 C 
ATOM     29  H16 09J d   1      -1.343 -29.402 -34.425  0.00  0.00     0.029 H 
ATOM     30  H17 09J d   1      -0.706 -31.017 -33.962  0.00  0.00     0.029 H 
ATOM     31  H18 09J d   1       0.422 -29.637 -34.190  0.00  0.00     0.029 H 
ENDBRANCH  25  28
ENDBRANCH  11  25
BRANCH   1  32
ATOM     32  C21 09J d   1       5.137 -27.185 -27.721  0.00  0.00     0.252 C 
ATOM     33  N5  09J d   1       6.154 -26.311 -27.645  0.00  0.00    -0.352 N 
ATOM     34  H6  09J d   1       6.837 -26.322 -28.375  0.00  0.00     0.163 HD
ATOM     35  O2  09J d   1       4.248 -27.282 -26.878  0.00  0.00    -0.268 OA
BRANCH  33  36
ATOM     36  C22 09J d   1       6.328 -25.330 -26.545  0.00  0.00     0.012 A 
ATOM     37  C23 09J d   1       7.705 -25.273 -25.872  0.00  0.00    -0.044 A 
ATOM     38  C24 09J d   1       6.520 -25.887 -25.130  0.00  0.00    -0.044 A 
ATOM     39  H1  09J d   1       8.521 -25.917 -26.233  0.00  0.00     0.036 H 
ATOM     40  H2  09J d   1       8.117 -24.307 -25.545  0.00  0.00     0.036 H 
ATOM     41  H3  09J d   1       6.080 -25.363 -24.269  0.00  0.00     0.036 H 
ATOM     42  H4  09J d   1       6.483 -26.973 -24.957  0.00  0.00     0.036 H 
ATOM     43  H5  09J d   1       5.739 -24.419 -26.728  0.00  0.00     0.072 H 
ENDBRANCH  33  36
ENDBRANCH   1  32
BRANCH  16  44
ATOM     44  C6  09J d   1      -2.327 -32.100 -31.501  0.00  0.00     0.074 A 
ATOM     45  C15 09J d   1      -3.368 -31.421 -30.851  0.00  0.00     0.051 A 
ATOM     46 CL1  09J d   1      -3.141 -30.706 -29.293  0.00  0.00    -0.083 Cl
ATOM     47  C16 09J d   1      -4.619 -31.288 -31.460  0.00  0.00    -0.061 A 
ATOM     48  C17 09J d   1      -4.851 -31.842 -32.715  0.00  0.00    -0.078 A 
ATOM     49  H19 09J d   1      -5.412 -30.751 -30.952  0.00  0.00     0.086 H 
ATOM     50  C18 09J d   1      -3.824 -32.525 -33.363  0.00  0.00    -0.045 A 
ATOM     51  H20 09J d   1      -5.823 -31.743 -33.185  0.00  0.00     0.083 H 
ATOM     52  C19 09J d   1      -2.576 -32.657 -32.755  0.00  0.00     0.132 A 
ATOM     53  H21 09J d   1      -3.996 -32.955 -34.343  0.00  0.00     0.088 H 
ATOM     54  F1  09J d   1      -1.596 -33.312 -33.394  0.00  0.00    -0.205 F 
ENDBRANCH  16  44
TORSDOF 6
