REMARK  2 active torsions:
REMARK  status: ('A' for Active; 'I' for Inactive)
REMARK    1  A    between atoms: C23_7  and  O4_1 
REMARK    2  A    between atoms: C30_14  and  O6_4 
ROOT
ATOM      1  O5  04G d   1      45.165  -4.994  39.768  0.00  0.00    -0.306 OA
ATOM      2  N6  04G d   1      47.015  -4.086  37.880  0.00  0.00    -0.352 N 
ATOM      3  C21 04G d   1      48.004  -2.647  39.615  0.00  0.00    -0.052 A 
ATOM      4  C22 04G d   1      48.016  -2.178  40.928  0.00  0.00    -0.049 A 
ATOM      5  C23 04G d   1      47.079  -2.647  41.859  0.00  0.00     0.068 A 
ATOM      6  C24 04G d   1      46.127  -3.587  41.470  0.00  0.00    -0.016 A 
ATOM      7  C25 04G d   1      46.111  -4.070  40.124  0.00  0.00     0.105 A 
ATOM      8  C26 04G d   1      47.030  -3.609  39.217  0.00  0.00     0.067 A 
ATOM      9  C27 04G d   1      46.024  -5.043  37.539  0.00  0.00     0.067 A 
ATOM     10  C28 04G d   1      45.128  -5.472  38.485  0.00  0.00     0.105 A 
ATOM     11  C29 04G d   1      44.130  -6.435  38.139  0.00  0.00    -0.016 A 
ATOM     12  C30 04G d   1      44.069  -6.938  36.840  0.00  0.00     0.068 A 
ATOM     13  C31 04G d   1      44.986  -6.500  35.874  0.00  0.00    -0.049 A 
ATOM     14  C32 04G d   1      45.961  -5.559  36.210  0.00  0.00    -0.052 A 
ATOM     15  H   04G d   1      47.690  -3.754  37.191  0.00  0.00     0.166 HD
ATOM     16  H   04G d   1      48.736  -2.280  38.896  0.00  0.00     0.087 H 
ATOM     17  H   04G d   1      48.759  -1.441  41.233  0.00  0.00     0.087 H 
ATOM     18  H   04G d   1      45.396  -3.954  42.190  0.00  0.00     0.092 H 
ATOM     19  H   04G d   1      43.417  -6.776  38.890  0.00  0.00     0.092 H 
ATOM     20  H   04G d   1      44.938  -6.895  34.859  0.00  0.00     0.087 H 
ATOM     21  H   04G d   1      46.673  -5.219  35.458  0.00  0.00     0.087 H 
ENDROOT
BRANCH   5  22
ATOM     22  O4  04G d   1      47.101  -2.177  43.153  0.00  0.00    -0.361 OA
ATOM     23  H   04G d   1      46.399  -2.596  43.656  0.00  0.00     0.217 HD
ENDBRANCH   5  22
BRANCH  12  24
ATOM     24  O6  04G d   1      43.109  -7.866  36.508  0.00  0.00    -0.361 OA
ATOM     25  H   04G d   1      43.204  -8.107  35.584  0.00  0.00     0.217 HD
ENDBRANCH  12  24
TORSDOF 2
