REMARK  4 active torsions:
REMARK  status: ('A' for Active; 'I' for Inactive)
REMARK    1  A    between atoms: C04_4  and  N13_13 
REMARK    2  A    between atoms: C05_5  and  N07_7 
REMARK       I    between atoms: N13_13  and  C14_14 
REMARK    3  A    between atoms: C14_14  and  C16_16 
REMARK    4  A    between atoms: C18_18  and  C21_21 
ROOT
ATOM      1  C01 09H d   1       6.932  -5.232  12.284  0.00  0.00    -0.081 A 
ATOM      2  C02 09H d   1       6.282  -4.266  11.565  0.00  0.00    -0.081 A 
ATOM      3  C03 09H d   1       6.991  -3.343  10.812  0.00  0.00    -0.055 A 
ATOM      4  C04 09H d   1       8.376  -3.389  10.794  0.00  0.00     0.056 A 
ATOM      5  C05 09H d   1       9.064  -4.392  11.533  0.00  0.00     0.037 A 
ATOM      6  C06 09H d   1       8.321  -5.289  12.289  0.00  0.00    -0.060 A 
ATOM      7  H1  09H d   1       6.361  -5.957  12.853  0.00  0.00     0.083 H 
ATOM      8  H2  09H d   1       5.199  -4.222  11.585  0.00  0.00     0.083 H 
ATOM      9  H3  09H d   1       6.464  -2.588  10.239  0.00  0.00     0.087 H 
ATOM     10  H4  09H d   1       8.827  -6.038  12.887  0.00  0.00     0.086 H 
ENDROOT
BRANCH   4  11
ATOM     11  N13 09H d   1       9.176  -2.507  10.047  0.00  0.00    -0.320 N 
ATOM     12  C14 09H d   1       8.885  -1.313   9.433  0.00  0.00     0.275 C 
ATOM     13  O15 09H d   1       7.871  -0.645   9.537  0.00  0.00    -0.266 OA
ATOM     14  H15 09H d   1      10.126  -2.801   9.944  0.00  0.00     0.169 HD
BRANCH  12  15
ATOM     15  C16 09H d   1       9.993  -0.861   8.612  0.00  0.00     0.132 A 
ATOM     16  N17 09H d   1      11.231  -1.558   8.583  0.00  0.00    -0.235 NA
ATOM     17  C18 09H d   1      12.084  -0.965   7.762  0.00  0.00     0.108 A 
ATOM     18  S19 09H d   1      11.474   0.452   7.028  0.00  0.00    -0.079 SA
ATOM     19  C20 09H d   1       9.956   0.261   7.820  0.00  0.00    -0.010 A 
ATOM     20  H16 09H d   1       9.101   0.926   7.710  0.00  0.00     0.099 H 
BRANCH  17  21
ATOM     21  C21 09H d   1      13.476  -1.402   7.537  0.00  0.00     0.001 A 
ATOM     22  C22 09H d   1      14.393  -0.658   6.739  0.00  0.00    -0.068 A 
ATOM     23  C23 09H d   1      15.719  -1.060   6.575  0.00  0.00    -0.049 A 
ATOM     24  H17 09H d   1      14.051   0.245   6.246  0.00  0.00     0.085 H 
ATOM     25  C24 09H d   1      16.121  -2.204   7.235  0.00  0.00     0.085 A 
ATOM     26  H18 09H d   1      16.406  -0.497   5.954  0.00  0.00     0.087 H 
ATOM     27  C25 09H d   1      15.259  -2.939   8.032  0.00  0.00     0.000 A 
ATOM     28  O27 09H d   1      17.395  -2.729   7.165  0.00  0.00    -0.322 OA
ATOM     29  C26 09H d   1      13.933  -2.545   8.198  0.00  0.00    -0.058 A 
ATOM     30  C29 09H d   1      15.973  -4.119   8.591  0.00  0.00    -0.049 C 
ATOM     31  H19 09H d   1      13.265  -3.117   8.831  0.00  0.00     0.086 H 
ATOM     32  C28 09H d   1      17.415  -3.760   8.210  0.00  0.00     0.020 C 
ATOM     33  H21 09H d   1      15.584  -4.988   9.119  0.00  0.00     0.087 H 
ATOM     34  H20 09H d   1      18.311  -4.200   8.645  0.00  0.00     0.123 H 
ENDBRANCH  17  21
ENDBRANCH  12  15
ENDBRANCH   4  11
BRANCH   5  35
ATOM     35  N07 09H d   1      10.464  -4.387  11.555  0.00  0.00    -0.278 NA
ATOM     36  C08 09H d   1      11.125  -5.705  11.686  0.00  0.00     0.006 C 
ATOM     37  C09 09H d   1      12.662  -5.533  11.582  0.00  0.00     0.093 C 
ATOM     38  H5  09H d   1      10.777  -6.370  10.882  0.00  0.00     0.058 H 
ATOM     39  H6  09H d   1      10.872  -6.145  12.662  0.00  0.00     0.058 H 
ATOM     40  N10 09H d   1      13.236  -4.561  12.561  0.00  0.00    -0.073 N 
ATOM     41  H7  09H d   1      12.902  -5.183  10.567  0.00  0.00     0.077 H 
ATOM     42  H8  09H d   1      13.131  -6.513  11.753  0.00  0.00     0.077 H 
ATOM     43  C11 09H d   1      12.570  -3.270  12.365  0.00  0.00     0.093 C 
ATOM     44  H9  09H d   1      14.227  -4.462  12.403  0.00  0.00     0.277 HD
ATOM     45  H10 09H d   1      13.077  -4.888  13.501  0.00  0.00     0.277 HD
ATOM     46  C12 09H d   1      11.038  -3.351  12.497  0.00  0.00     0.006 C 
ATOM     47  H11 09H d   1      12.815  -2.900  11.359  0.00  0.00     0.077 H 
ATOM     48  H12 09H d   1      12.949  -2.563  13.118  0.00  0.00     0.077 H 
ATOM     49  H13 09H d   1      10.780  -3.624  13.531  0.00  0.00     0.058 H 
ATOM     50  H14 09H d   1      10.604  -2.369  12.258  0.00  0.00     0.058 H 
ENDBRANCH   5  35
TORSDOF 4
