REMARK  7 active torsions:
REMARK  status: ('A' for Active; 'I' for Inactive)
REMARK       I    between atoms: C36_2  and  N38_3 
REMARK    1  A    between atoms: C36_2  and  C33_5 
REMARK    2  A    between atoms: N38_3  and  C40_4 
REMARK    3  A    between atoms: N29_9  and  C6_10 
REMARK    4  A    between atoms: N16_15  and  N19_16 
REMARK    5  A    between atoms: N19_16  and  S21_17 
REMARK    6  A    between atoms: S21_17  and  C24_19 
REMARK    7  A    between atoms: C5_26  and  C2_27 
ROOT
ATOM      1  C6  08W d   1      44.744  36.442  10.853  0.00  0.00     0.056 A 
ATOM      2  C7  08W d   1      45.769  35.944  10.043  0.00  0.00    -0.038 A 
ATOM      3  C9  08W d   1      46.212  36.669   8.932  0.00  0.00     0.063 A 
ATOM      4  C17 08W d   1      47.309  36.188   8.033  0.00  0.00     0.283 A 
ATOM      5  O18 08W d   1      47.843  35.118   8.282  0.00  0.00    -0.265 OA
ATOM      6  N16 08W d   1      47.672  36.951   6.975  0.00  0.00    -0.158 N 
ATOM      7  C15 08W d   1      47.082  38.149   6.681  0.00  0.00     0.349 A 
ATOM      8  O28 08W d   1      47.432  38.808   5.714  0.00  0.00    -0.244 OA
ATOM      9  N13 08W d   1      46.092  38.615   7.468  0.00  0.00    -0.306 N 
ATOM     10  C10 08W d   1      45.633  37.892   8.606  0.00  0.00     0.053 A 
ATOM     11  C11 08W d   1      44.606  38.395   9.406  0.00  0.00    -0.039 A 
ATOM     12  C5  08W d   1      44.141  37.674  10.528  0.00  0.00     0.077 A 
ATOM     13  H7  08W d   1      46.224  34.989  10.278  0.00  0.00     0.088 H 
ATOM     14  H12 08W d   1      45.668  39.493   7.247  0.00  0.00     0.171 HD
ATOM     15  H13 08W d   1      44.159  39.352   9.163  0.00  0.00     0.088 H 
ENDROOT
BRANCH   1  16
ATOM     16  N29 08W d   1      44.424  35.618  11.887  0.00  0.00    -0.313 N 
ATOM     17  C30 08W d   1      45.091  35.398  12.989  0.00  0.00     0.071 A 
ATOM     18  N32 08W d   1      44.506  34.482  13.645  0.00  0.00    -0.237 NA
ATOM     19  H5  08W d   1      45.999  35.915  13.294  0.00  0.00     0.144 H 
ATOM     20  C33 08W d   1      43.348  34.006  12.937  0.00  0.00     0.141 A 
ATOM     21  C34 08W d   1      43.398  34.782  11.819  0.00  0.00     0.019 A 
ATOM     22  H6  08W d   1      42.696  34.724  10.989  0.00  0.00     0.116 H 
BRANCH  20  23
ATOM     23  C36 08W d   1      42.404  32.936  13.352  0.00  0.00     0.271 C 
ATOM     24  O37 08W d   1      42.851  31.968  13.967  0.00  0.00    -0.266 OA
ATOM     25  N38 08W d   1      41.092  33.030  13.016  0.00  0.00    -0.360 N 
ATOM     26  H1  08W d   1      40.778  33.820  12.489  0.00  0.00     0.162 HD
BRANCH  25  27
ATOM     27  C40 08W d   1      40.124  32.001  13.408  0.00  0.00    -0.018 C 
ATOM     28  H2  08W d   1      39.126  32.275  13.034  0.00  0.00     0.056 H 
ATOM     29  H3  08W d   1      40.096  31.923  14.505  0.00  0.00     0.056 H 
ATOM     30  H4  08W d   1      40.423  31.034  12.979  0.00  0.00     0.056 H 
ENDBRANCH  25  27
ENDBRANCH  20  23
ENDBRANCH   1  16
BRANCH  12  31
ATOM     31  C2  08W d   1      43.038  38.248  11.420  0.00  0.00     0.419 C 
ATOM     32  F1  08W d   1      42.044  37.362  11.572  0.00  0.00    -0.166 F 
ATOM     33  F3  08W d   1      43.539  38.554  12.663  0.00  0.00    -0.166 F 
ATOM     34  F4  08W d   1      42.523  39.381  10.874  0.00  0.00    -0.166 F 
ENDBRANCH  12  31
BRANCH   6  35
ATOM     35  N19 08W d   1      48.750  36.448   6.154  0.00  0.00    -0.213 N 
ATOM     36  H8  08W d   1      48.598  35.810   5.399  0.00  0.00     0.200 HD
BRANCH  35  37
ATOM     37  S21 08W d   1      50.272  37.013   6.561  0.00  0.00     0.240 S 
ATOM     38  O23 08W d   1      50.288  38.397   7.000  0.00  0.00    -0.205 OA
ATOM     39  O22 08W d   1      51.256  36.701   5.542  0.00  0.00    -0.205 OA
BRANCH  37  40
ATOM     40  C24 08W d   1      50.746  36.113   8.064  0.00  0.00     0.034 C 
ATOM     41  H9  08W d   1      51.745  36.440   8.387  0.00  0.00     0.051 H 
ATOM     42  H10 08W d   1      50.764  35.033   7.855  0.00  0.00     0.051 H 
ATOM     43  H11 08W d   1      50.017  36.320   8.861  0.00  0.00     0.051 H 
ENDBRANCH  37  40
ENDBRANCH  35  37
ENDBRANCH   6  35
TORSDOF 7
