REMARK  2 active torsions:
REMARK  status: ('A' for Active; 'I' for Inactive)
REMARK    1  A    between atoms: CAE_10  and  NAK_11 
REMARK       I    between atoms: NAK_11  and  CAL_12 
REMARK    2  A    between atoms: CAL_12  and  CAN_14 
ROOT
ATOM      1  CAN IWR d   1       4.295  -4.651   8.775  0.00  0.00     0.032 A 
ATOM      2  CAS IWR d   1       5.373  -5.517   8.817  0.00  0.00    -0.066 A 
ATOM      3  CAO IWR d   1       5.217  -6.856   9.169  0.00  0.00    -0.056 A 
ATOM      4  CAR IWR d   1       3.040  -5.148   9.069  0.00  0.00    -0.066 A 
ATOM      5  CAQ IWR d   1       2.870  -6.487   9.434  0.00  0.00    -0.056 A 
ATOM      6  CAP IWR d   1       3.958  -7.338   9.489  0.00  0.00     0.045 A 
ATOM      7  NAT IWR d   1       3.803  -8.611   9.806  0.00  0.00    -0.252 N 
ATOM      8  CAW IWR d   1       3.734  -9.113  11.027  0.00  0.00     0.236 C 
ATOM      9  OBE IWR d   1       3.798  -8.452  12.044  0.00  0.00    -0.272 OA
ATOM     10  CAV IWR d   1       3.557 -10.614  11.005  0.00  0.00     0.040 C 
ATOM     11  CBB IWR d   1       4.826 -11.350  11.439  0.00  0.00    -0.041 C 
ATOM     12  CBC IWR d   1       4.638 -12.643  10.650  0.00  0.00    -0.057 C 
ATOM     13  CBA IWR d   1       6.100 -10.820  10.761  0.00  0.00    -0.060 C 
ATOM     14  CAZ IWR d   1       5.975 -11.314   9.315  0.00  0.00    -0.060 C 
ATOM     15  CAY IWR d   1       4.612 -11.985   9.297  0.00  0.00    -0.041 C 
ATOM     16  CAU IWR d   1       3.487 -10.952   9.520  0.00  0.00     0.040 C 
ATOM     17  CAX IWR d   1       3.761  -9.590   8.885  0.00  0.00     0.236 C 
ATOM     18  OBD IWR d   1       3.798  -9.420   7.671  0.00  0.00    -0.272 OA
ATOM     19  H8  IWR d   1       6.361  -5.146   8.570  0.00  0.00     0.085 H 
ATOM     20  H9  IWR d   1       6.076  -7.517   9.192  0.00  0.00     0.087 H 
ATOM     21  H10 IWR d   1       2.178  -4.493   9.016  0.00  0.00     0.085 H 
ATOM     22  H11 IWR d   1       1.881  -6.859   9.675  0.00  0.00     0.087 H 
ATOM     23  H12 IWR d   1       2.674 -10.932  11.579  0.00  0.00     0.056 H 
ATOM     24  H13 IWR d   1       4.922 -11.451  12.530  0.00  0.00     0.041 H 
ATOM     25  H14 IWR d   1       3.697 -13.158  10.892  0.00  0.00     0.034 H 
ATOM     26  H15 IWR d   1       5.479 -13.342  10.769  0.00  0.00     0.034 H 
ATOM     27  H16 IWR d   1       7.000 -11.233  11.240  0.00  0.00     0.033 H 
ATOM     28  H17 IWR d   1       6.136  -9.721  10.798  0.00  0.00     0.033 H 
ATOM     29  H18 IWR d   1       6.772 -12.032   9.073  0.00  0.00     0.033 H 
ATOM     30  H19 IWR d   1       6.011 -10.474   8.606  0.00  0.00     0.033 H 
ATOM     31  H20 IWR d   1       4.448 -12.646   8.433  0.00  0.00     0.041 H 
ATOM     32  H21 IWR d   1       2.513 -11.357   9.207  0.00  0.00     0.056 H 
ENDROOT
BRANCH   1  33
ATOM     33  CAL IWR d   1       4.489  -3.208   8.347  0.00  0.00     0.256 C 
ATOM     34  NAK IWR d   1       5.234  -3.036   7.245  0.00  0.00    -0.321 N 
ATOM     35  H7  IWR d   1       5.679  -3.843   6.856  0.00  0.00     0.169 HD
ATOM     36  OAM IWR d   1       3.946  -2.305   8.948  0.00  0.00    -0.267 OA
BRANCH  34  37
ATOM     37  CAE IWR d   1       5.427  -1.855   6.623  0.00  0.00     0.064 A 
ATOM     38  CAF IWR d   1       5.936  -1.878   5.326  0.00  0.00     0.093 A 
ATOM     39  NAG IWR d   1       6.283  -3.061   4.758  0.00  0.00    -0.258 NA
ATOM     40  CAA IWR d   1       6.119  -0.670   4.622  0.00  0.00    -0.005 A 
ATOM     41  CAH IWR d   1       6.788  -3.129   3.529  0.00  0.00     0.003 A 
ATOM     42  CAI IWR d   1       6.999  -1.952   2.792  0.00  0.00    -0.065 A 
ATOM     43  H1  IWR d   1       7.036  -4.092   3.097  0.00  0.00     0.114 H 
ATOM     44  CAJ IWR d   1       6.660  -0.707   3.336  0.00  0.00    -0.069 A 
ATOM     45  H2  IWR d   1       7.426  -2.008   1.797  0.00  0.00     0.085 H 
ATOM     46  H3  IWR d   1       6.814   0.206   2.772  0.00  0.00     0.085 H 
ATOM     47  CAB IWR d   1       5.773   0.545   5.201  0.00  0.00    -0.071 A 
ATOM     48  CAC IWR d   1       5.235   0.579   6.476  0.00  0.00    -0.080 A 
ATOM     49  H4  IWR d   1       5.925   1.468   4.653  0.00  0.00     0.084 H 
ATOM     50  CAD IWR d   1       5.069  -0.616   7.176  0.00  0.00    -0.055 A 
ATOM     51  H5  IWR d   1       4.946   1.522   6.925  0.00  0.00     0.083 H 
ATOM     52  H6  IWR d   1       4.651  -0.587   8.176  0.00  0.00     0.087 H 
ENDBRANCH  34  37
ENDBRANCH   1  33
TORSDOF 2
