REMARK  31 active torsions:
REMARK  status: ('A' for Active; 'I' for Inactive)
REMARK    1  A    between atoms: N_1  and  CA_2 
REMARK    2  A    between atoms: CA_2  and  C_3 
REMARK    3  A    between atoms: CA_2  and  CB_5 
REMARK       I    between atoms: C_3  and  N_12 
REMARK    4  A    between atoms: CB_5  and  CG_6 
REMARK    5  A    between atoms: CG_6  and  CD_7 
REMARK    6  A    between atoms: CD_7  and  NE_8 
REMARK       I    between atoms: NE_8  and  CZ_9 
REMARK       I    between atoms: CZ_9  and  NH1_10 
REMARK       I    between atoms: CZ_9  and  NH2_11 
REMARK    7  A    between atoms: N_12  and  CA_13 
REMARK    8  A    between atoms: CA_13  and  C_14 
REMARK    9  A    between atoms: CA_13  and  CB_16 
REMARK       I    between atoms: C_14  and  N_18 
REMARK   10  A    between atoms: CB_16  and  OG_17 
REMARK   11  A    between atoms: N_18  and  CA_19 
REMARK   12  A    between atoms: CA_19  and  C_20 
REMARK   13  A    between atoms: CA_19  and  CB_22 
REMARK       I    between atoms: C_20  and  N_29 
REMARK   14  A    between atoms: CB_22  and  CG_23 
REMARK   15  A    between atoms: N_29  and  CA_30 
REMARK   16  A    between atoms: CA_30  and  CB_31 
REMARK   17  A    between atoms: CA_30  and  C_33 
REMARK   18  A    between atoms: CB_31  and  OG_32 
REMARK   19  A    between atoms: OG_32  and  P_35 
REMARK       I    between atoms: C_33  and  N_39 
REMARK   20  A    between atoms: N_39  and  CA_40 
REMARK   21  A    between atoms: CA_40  and  C_41 
REMARK   22  A    between atoms: CA_40  and  CB_43 
REMARK       I    between atoms: C_41  and  N_48 
REMARK   23  A    between atoms: CB_43  and  CG_44 
REMARK   24  A    between atoms: CG_44  and  CD_45 
REMARK   25  A    between atoms: CA_49  and  C_50 
REMARK       I    between atoms: C_50  and  N_55 
REMARK   26  A    between atoms: N_55  and  CA_56 
REMARK   27  A    between atoms: CA_56  and  C_57 
REMARK   28  A    between atoms: CA_56  and  CB_59 
REMARK       I    between atoms: C_57  and  N_66 
REMARK   29  A    between atoms: CB_59  and  CG_60 
REMARK   30  A    between atoms: N_66  and  CA_67 
REMARK   31  A    between atoms: CA_67  and  C_68 
ROOT
ATOM      1  CA  SEP d   1     -18.743  -1.899  23.508  0.00  0.00     0.110 C 
ATOM      2  H31 SEP d   1     -19.777  -2.263  23.595  0.00  0.00     0.090 H 
ENDROOT
BRANCH   1   3
ATOM      3  N   SEP d   1     -17.903  -2.658  24.425  0.00  0.00    -0.344 N 
ATOM      4  C   PHE d   1     -18.459  -3.725  24.954  0.00  0.00     0.241 C 
ATOM      5  O   PHE d   1     -19.659  -3.986  24.886  0.00  0.00    -0.271 OA
ATOM      6  H30 SEP d   1     -16.965  -2.385  24.638  0.00  0.00     0.163 HD
BRANCH   4   7
ATOM      7  CA  PHE d   1     -17.524  -4.650  25.675  0.00  0.00     0.093 C 
ATOM      8  H22 PHE d   1     -16.519  -4.207  25.738  0.00  0.00     0.088 H 
BRANCH   7   9
ATOM      9  N   PHE d   1     -18.036  -4.865  26.997  0.00  0.00    -0.346 N 
ATOM     10  C   SER d   1     -17.499  -4.175  28.025  0.00  0.00     0.243 C 
ATOM     11  O   SER d   1     -16.626  -3.293  27.871  0.00  0.00    -0.271 OA
ATOM     12  H21 PHE d   1     -18.779  -5.516  27.155  0.00  0.00     0.163 HD
BRANCH  10  13
ATOM     13  CA  SER d   1     -18.087  -4.421  29.397  0.00  0.00     0.109 C 
ATOM     14  H17 SER d   1     -18.269  -5.496  29.542  0.00  0.00     0.090 H 
BRANCH  13  15
ATOM     15  N   SER d   1     -17.173  -3.933  30.435  0.00  0.00    -0.344 N 
ATOM     16  C   ARG d   1     -16.052  -4.606  30.683  0.00  0.00     0.249 C 
ATOM     17  O   ARG d   1     -15.851  -5.720  30.200  0.00  0.00    -0.271 OA
ATOM     18  H16 SER d   1     -17.390  -3.104  30.951  0.00  0.00     0.163 HD
BRANCH  16  19
ATOM     19  CA  ARG d   1     -15.000  -3.949  31.586  0.00  0.00     0.176 C 
ATOM     20  H4  ARG d   1     -14.030  -4.046  31.076  0.00  0.00     0.099 H 
BRANCH  19  21
ATOM     21  N   ARG d   1     -15.245  -2.468  31.785  0.00  0.00    -0.067 N 
ATOM     22  H1  ARG d   1     -14.529  -2.086  32.383  0.00  0.00     0.275 HD
ATOM     23  H2  ARG d   1     -16.148  -2.331  32.212  0.00  0.00     0.275 HD
ATOM     24  H3  ARG d   1     -15.221  -2.001  30.892  0.00  0.00     0.275 HD
ENDBRANCH  19  21
BRANCH  19  25
ATOM     25  CB  ARG d   1     -14.890  -4.690  32.904  0.00  0.00    -0.029 C 
ATOM     26  H5  ARG d   1     -15.902  -4.990  33.215  0.00  0.00     0.036 H 
ATOM     27  H6  ARG d   1     -14.466  -4.002  33.651  0.00  0.00     0.036 H 
BRANCH  25  28
ATOM     28  CG  ARG d   1     -14.005  -5.954  32.856  0.00  0.00    -0.047 C 
ATOM     29  H7  ARG d   1     -12.971  -5.672  32.608  0.00  0.00     0.035 H 
ATOM     30  H8  ARG d   1     -14.390  -6.645  32.092  0.00  0.00     0.035 H 
BRANCH  28  31
ATOM     31  CD  ARG d   1     -14.037  -6.639  34.235  0.00  0.00     0.009 C 
ATOM     32  H9  ARG d   1     -15.063  -6.987  34.425  0.00  0.00     0.064 H 
ATOM     33  H10 ARG d   1     -13.754  -5.897  34.997  0.00  0.00     0.064 H 
BRANCH  31  34
ATOM     34  NE  ARG d   1     -13.129  -7.790  34.350  0.00  0.00    -0.227 N 
ATOM     35  CZ  ARG d   1     -13.051  -8.572  35.429  0.00  0.00     0.665 C 
ATOM     36  NH1 ARG d   1     -13.834  -8.337  36.493  0.00  0.00    -0.235 N 
ATOM     37  NH2 ARG d   1     -12.199  -9.597  35.452  0.00  0.00    -0.235 N 
ATOM     38  H12 ARG d   1     -13.770  -8.943  37.323  0.00  0.00     0.174 HD
ATOM     39  H13 ARG d   1     -14.499  -7.550  36.480  0.00  0.00     0.174 HD
ATOM     40  H14 ARG d   1     -11.595  -9.783  34.639  0.00  0.00     0.174 HD
ATOM     41  H15 ARG d   1     -12.145 -10.203  36.283  0.00  0.00     0.174 HD
ATOM     42  H11 ARG d   1     -12.517  -8.006  33.550  0.00  0.00     0.177 HD
ENDBRANCH  31  34
ENDBRANCH  28  31
ENDBRANCH  25  28
ENDBRANCH  19  25
ENDBRANCH  16  19
ENDBRANCH  13  15
BRANCH  13  43
ATOM     43  CB  SER d   1     -19.394  -3.656  29.466  0.00  0.00     0.044 C 
ATOM     44  H18 SER d   1     -20.078  -4.024  28.687  0.00  0.00     0.077 H 
ATOM     45  H19 SER d   1     -19.203  -2.584  29.310  0.00  0.00     0.077 H 
BRANCH  43  46
ATOM     46  OG  SER d   1     -19.970  -3.853  30.731  0.00  0.00    -0.398 OA
ATOM     47  H20 SER d   1     -19.376  -3.536  31.401  0.00  0.00     0.209 HD
ENDBRANCH  43  46
ENDBRANCH  13  43
ENDBRANCH  10  13
ENDBRANCH   7   9
BRANCH   7  48
ATOM     48  CB  PHE d   1     -17.465  -5.952  24.872  0.00  0.00    -0.014 C 
ATOM     49  H23 PHE d   1     -17.103  -5.733  23.857  0.00  0.00     0.043 H 
ATOM     50  H24 PHE d   1     -18.474  -6.386  24.815  0.00  0.00     0.043 H 
BRANCH  48  51
ATOM     51  CG  PHE d   1     -16.546  -6.935  25.517  0.00  0.00    -0.056 A 
ATOM     52  CD1 PHE d   1     -17.034  -7.846  26.451  0.00  0.00    -0.077 A 
ATOM     53  CE1 PHE d   1     -16.126  -8.720  27.146  0.00  0.00    -0.082 A 
ATOM     54  H25 PHE d   1     -18.098  -7.897  26.654  0.00  0.00     0.084 H 
ATOM     55  CZ  PHE d   1     -14.806  -8.629  26.873  0.00  0.00    -0.083 A 
ATOM     56  H27 PHE d   1     -16.493  -9.436  27.873  0.00  0.00     0.083 H 
ATOM     57  CE2 PHE d   1     -14.307  -7.716  25.970  0.00  0.00    -0.082 A 
ATOM     58  H29 PHE d   1     -14.118  -9.295  27.380  0.00  0.00     0.083 H 
ATOM     59  CD2 PHE d   1     -15.177  -6.833  25.299  0.00  0.00    -0.077 A 
ATOM     60  H28 PHE d   1     -13.241  -7.676  25.775  0.00  0.00     0.083 H 
ATOM     61  H26 PHE d   1     -14.783  -6.084  24.622  0.00  0.00     0.084 H 
ENDBRANCH  48  51
ENDBRANCH   7  48
ENDBRANCH   4   7
ENDBRANCH   1   3
BRANCH   1  62
ATOM     62  CB  SEP d   1     -18.702  -0.413  23.930  0.00  0.00     0.059 C 
ATOM     63  H32 SEP d   1     -18.958  -0.309  24.995  0.00  0.00     0.079 H 
ATOM     64  H33 SEP d   1     -19.405   0.177  23.325  0.00  0.00     0.079 H 
BRANCH  62  65
ATOM     65  OG  SEP d   1     -17.351   0.020  23.694  0.00  0.00    -0.280 OA
BRANCH  65  66
ATOM     66  P   SEP d   1     -17.069   1.564  24.145  0.00  0.00     0.422 P 
ATOM     67  O1P SEP d   1     -17.326   1.698  25.649  0.00  0.00    -0.617 OA
ATOM     68  O2P SEP d   1     -17.884   2.515  23.252  0.00  0.00    -0.617 OA
ATOM     69  O3P SEP d   1     -15.527   1.708  23.809  0.00  0.00    -0.617 OA
ENDBRANCH  65  66
ENDBRANCH  62  65
ENDBRANCH   1  62
BRANCH   1  70
ATOM     70  C   SEP d   1     -18.299  -2.076  22.059  0.00  0.00     0.243 C 
ATOM     71  O   SEP d   1     -17.377  -2.866  21.728  0.00  0.00    -0.271 OA
ATOM     72  N   GLU d   1     -18.953  -1.384  21.139  0.00  0.00    -0.346 N 
ATOM     73  H34 GLU d   1     -19.608  -0.678  21.409  0.00  0.00     0.163 HD
BRANCH  72  74
ATOM     74  CA  GLU d   1     -18.711  -1.659  19.734  0.00  0.00     0.090 C 
ATOM     75  H35 GLU d   1     -18.939  -2.713  19.516  0.00  0.00     0.087 H 
BRANCH  74  76
ATOM     76  C   GLU d   1     -17.213  -1.369  19.353  0.00  0.00     0.243 C 
ATOM     77  O   GLU d   1     -16.646  -0.328  19.677  0.00  0.00    -0.271 OA
ATOM     78  N   PRO d   1     -16.570  -2.322  18.684  0.00  0.00    -0.337 N 
ATOM     79  CA  PRO d   1     -15.133  -2.145  18.466  0.00  0.00     0.091 C 
ATOM     80  CD  PRO d   1     -17.077  -3.676  18.341  0.00  0.00    -0.001 C 
ATOM     81  CB  PRO d   1     -14.594  -3.602  18.367  0.00  0.00    -0.036 C 
ATOM     82  H40 PRO d   1     -14.686  -1.668  19.351  0.00  0.00     0.087 H 
ATOM     83  CG  PRO d   1     -15.785  -4.402  17.880  0.00  0.00    -0.048 C 
ATOM     84  H41 PRO d   1     -14.257  -3.962  19.350  0.00  0.00     0.036 H 
ATOM     85  H42 PRO d   1     -13.762  -3.663  17.650  0.00  0.00     0.036 H 
ATOM     86  H43 PRO d   1     -15.754  -5.415  18.308  0.00  0.00     0.035 H 
ATOM     87  H44 PRO d   1     -15.766  -4.467  16.782  0.00  0.00     0.035 H 
ATOM     88  H45 PRO d   1     -17.820  -3.631  17.531  0.00  0.00     0.064 H 
ATOM     89  H46 PRO d   1     -17.521  -4.170  19.218  0.00  0.00     0.064 H 
BRANCH  79  90
ATOM     90  C   PRO d   1     -14.840  -1.220  17.261  0.00  0.00     0.241 C 
ATOM     91  O   PRO d   1     -15.756  -0.808  16.569  0.00  0.00    -0.271 OA
ATOM     92  N   PHE d   1     -13.573  -0.843  17.056  0.00  0.00    -0.346 N 
ATOM     93  H47 PHE d   1     -12.854  -1.180  17.663  0.00  0.00     0.163 HD
BRANCH  92  94
ATOM     94  CA  PHE d   1     -13.227   0.053  15.959  0.00  0.00     0.093 C 
ATOM     95  H48 PHE d   1     -13.973  -0.047  15.157  0.00  0.00     0.088 H 
BRANCH  94  96
ATOM     96  C   PHE d   1     -11.861  -0.343  15.443  0.00  0.00     0.241 C 
ATOM     97  O   PHE d   1     -11.125  -1.051  16.156  0.00  0.00    -0.271 OA
ATOM     98  N   GLY d   1     -11.512   0.215  14.283  0.00  0.00    -0.349 N 
ATOM     99  H56 GLY d   1     -11.911   1.101  14.044  0.00  0.00     0.163 HD
BRANCH  98 100
ATOM    100  CA  GLY d   1     -10.578  -0.400  13.343  0.00  0.00     0.075 C 
ATOM    101  H57 GLY d   1     -10.194  -1.357  13.727  0.00  0.00     0.080 H 
ATOM    102  H58 GLY d   1      -9.735   0.270  13.118  0.00  0.00     0.080 H 
BRANCH 100 103
ATOM    103  C   GLY d   1     -11.471  -0.608  12.114  0.00  0.00     0.191 C 
ATOM    104  O   GLY d   1     -11.145  -0.158  10.986  0.00  0.00    -0.647 OA
ATOM    105  OXT GLY d   1     -12.558  -1.235  12.195  0.00  0.00    -0.647 OA
ENDBRANCH 100 103
ENDBRANCH  98 100
ENDBRANCH  94  96
BRANCH  94 106
ATOM    106  CB  PHE d   1     -13.182   1.487  16.416  0.00  0.00    -0.014 C 
ATOM    107  H49 PHE d   1     -14.206   1.795  16.676  0.00  0.00     0.043 H 
ATOM    108  H50 PHE d   1     -12.816   2.101  15.580  0.00  0.00     0.043 H 
BRANCH 106 109
ATOM    109  CG  PHE d   1     -12.283   1.751  17.630  0.00  0.00    -0.056 A 
ATOM    110  CD1 PHE d   1     -12.808   1.608  18.938  0.00  0.00    -0.077 A 
ATOM    111  CE1 PHE d   1     -12.022   1.909  20.088  0.00  0.00    -0.082 A 
ATOM    112  H51 PHE d   1     -13.828   1.263  19.067  0.00  0.00     0.084 H 
ATOM    113  CZ  PHE d   1     -10.671   2.419  19.904  0.00  0.00    -0.083 A 
ATOM    114  H53 PHE d   1     -12.424   1.761  21.084  0.00  0.00     0.083 H 
ATOM    115  CE2 PHE d   1     -10.148   2.531  18.600  0.00  0.00    -0.082 A 
ATOM    116  H55 PHE d   1     -10.074   2.709  20.761  0.00  0.00     0.083 H 
ATOM    117  CD2 PHE d   1     -10.963   2.239  17.472  0.00  0.00    -0.077 A 
ATOM    118  H54 PHE d   1      -9.119   2.841  18.456  0.00  0.00     0.083 H 
ATOM    119  H52 PHE d   1     -10.567   2.393  16.474  0.00  0.00     0.084 H 
ENDBRANCH 106 109
ENDBRANCH  94 106
ENDBRANCH  92  94
ENDBRANCH  79  90
ENDBRANCH  74  76
BRANCH  74 120
ATOM    120  CB  GLU d   1     -19.654  -0.744  18.936  0.00  0.00    -0.029 C 
ATOM    121  H36 GLU d   1     -19.472   0.294  19.253  0.00  0.00     0.037 H 
ATOM    122  H37 GLU d   1     -20.689  -1.026  19.178  0.00  0.00     0.037 H 
BRANCH 120 123
ATOM    123  CG  GLU d   1     -19.492  -0.811  17.472  0.00  0.00     0.018 C 
ATOM    124  H38 GLU d   1     -19.954  -1.735  17.094  0.00  0.00     0.049 H 
ATOM    125  H39 GLU d   1     -18.421  -0.808  17.222  0.00  0.00     0.049 H 
BRANCH 123 126
ATOM    126  CD  GLU d   1     -20.176   0.411  16.818  0.00  0.00     0.172 C 
ATOM    127  OE1 GLU d   1     -19.716   1.584  17.012  0.00  0.00    -0.648 OA
ATOM    128  OE2 GLU d   1     -21.142   0.162  16.084  0.00  0.00    -0.648 OA
ENDBRANCH 123 126
ENDBRANCH 120 123
ENDBRANCH  74 120
ENDBRANCH  72  74
ENDBRANCH   1  70
TORSDOF 31
