REMARK WARNING: 32 MAX_TORS EXCEEDED!!!
REMARK  78 active torsions:
REMARK  status: ('A' for Active; 'I' for Inactive)
REMARK    1  A    between atoms: N_1  and  CA_2 
REMARK    2  A    between atoms: CA_2  and  C_3 
REMARK    3  A    between atoms: CA_2  and  CB_5 
REMARK       I    between atoms: C_3  and  N_12 
REMARK    4  A    between atoms: CB_5  and  CG_6 
REMARK    5  A    between atoms: CG_6  and  CD_7 
REMARK    6  A    between atoms: CD_7  and  NE_8 
REMARK       I    between atoms: NE_8  and  CZ_9 
REMARK       I    between atoms: CZ_9  and  NH1_10 
REMARK       I    between atoms: CZ_9  and  NH2_11 
REMARK    7  A    between atoms: N_12  and  CA_13 
REMARK    8  A    between atoms: CA_13  and  C_14 
REMARK    9  A    between atoms: CA_13  and  CB_16 
REMARK       I    between atoms: C_14  and  N_23 
REMARK   10  A    between atoms: CB_16  and  CG_17 
REMARK   11  A    between atoms: CG_17  and  CD_18 
REMARK   12  A    between atoms: CD_18  and  NE_19 
REMARK       I    between atoms: NE_19  and  CZ_20 
REMARK       I    between atoms: CZ_20  and  NH1_21 
REMARK   13  A    between atoms: N_23  and  CA_24 
REMARK   14  A    between atoms: CA_24  and  C_25 
REMARK   15  A    between atoms: CA_24  and  CB_27 
REMARK       I    between atoms: C_25  and  N_33 
REMARK   16  A    between atoms: CB_27  and  CG_28 
REMARK   17  A    between atoms: N_33  and  CA_34 
REMARK   18  A    between atoms: CA_34  and  CB_35 
REMARK   19  A    between atoms: CA_34  and  C_37 
REMARK   20  A    between atoms: CB_35  and  OG_36 
REMARK   21  A    between atoms: OG_36  and  P_39 
REMARK       I    between atoms: C_37  and  N_43 
REMARK   22  A    between atoms: N_43  and  CA_44 
REMARK   23  A    between atoms: CA_44  and  C_45 
REMARK   24  A    between atoms: CA_44  and  CB_47 
REMARK       I    between atoms: C_45  and  N_51 
REMARK   25  A    between atoms: CB_47  and  CG_48 
REMARK   26  A    between atoms: CG_48  and  SD_49 
REMARK   27  A    between atoms: SD_49  and  CE_50 
REMARK   28  A    between atoms: N_51  and  CA_52 
REMARK   29  A    between atoms: CA_52  and  C_53 
REMARK   30  A    between atoms: CA_52  and  CB_55 
REMARK       I    between atoms: C_53  and  N_56 
REMARK   31  A    between atoms: N_56  and  CA_57 
REMARK   32  A    between atoms: CA_57  and  C_58 
REMARK   33  A    between atoms: CA_57  and  CB_60 
REMARK       I    between atoms: C_58  and  N_64 
REMARK   34  A    between atoms: CB_60  and  CG_61 
REMARK       I    between atoms: CG_61  and  ND2_63 
REMARK   35  A    between atoms: N_64  and  CA_65 
REMARK   36  A    between atoms: CA_65  and  C_66 
REMARK   37  A    between atoms: CA_65  and  CB_68 
REMARK       I    between atoms: C_66  and  N_72 
REMARK   38  A    between atoms: CB_68  and  CG_69 
REMARK   39  A    between atoms: CG_69  and  CD1_70 
REMARK   40  A    between atoms: CG_69  and  CD2_71 
REMARK   41  A    between atoms: N_72  and  CA_73 
REMARK   42  A    between atoms: CA_73  and  C_74 
REMARK   43  A    between atoms: CA_73  and  CB_76 
REMARK       I    between atoms: C_74  and  N_81 
REMARK   44  A    between atoms: CB_76  and  CG_77 
REMARK   45  A    between atoms: CG_77  and  CD_78 
REMARK   46  A    between atoms: N_81  and  CA_82 
REMARK   47  A    between atoms: CA_82  and  C_83 
REMARK   48  A    between atoms: CA_82  and  CB_85 
REMARK       I    between atoms: C_83  and  N_89 
REMARK   49  A    between atoms: CB_85  and  CG_86 
REMARK   50  A    between atoms: CG_86  and  CD1_87 
REMARK   51  A    between atoms: CG_86  and  CD2_88 
REMARK   52  A    between atoms: N_89  and  CA_90 
REMARK   53  A    between atoms: CA_90  and  C_91 
REMARK   54  A    between atoms: CA_90  and  CB_93 
REMARK       I    between atoms: C_91  and  N_97 
REMARK   55  A    between atoms: CB_93  and  CG_94 
REMARK   56  A    between atoms: CG_94  and  SD_95 
REMARK   57  A    between atoms: SD_95  and  CE_96 
REMARK   58  A    between atoms: N_97  and  CA_98 
REMARK   59  A    between atoms: CA_98  and  C_99 
REMARK   60  A    between atoms: CA_98  and  CB_101 
REMARK       I    between atoms: C_99  and  N_106 
REMARK   61  A    between atoms: CB_101  and  CG_102 
REMARK   62  A    between atoms: CG_102  and  CD_103 
REMARK   63  A    between atoms: CD_103  and  CE_104 
REMARK   64  A    between atoms: CE_104  and  NZ_105 
REMARK   65  A    between atoms: N_106  and  CA_107 
REMARK   66  A    between atoms: CA_107  and  C_108 
REMARK   67  A    between atoms: CA_107  and  CB_110 
REMARK       I    between atoms: C_108  and  N_114 
REMARK   68  A    between atoms: CB_110  and  CG_111 
REMARK   69  A    between atoms: CG_111  and  CD1_112 
REMARK   70  A    between atoms: CG_111  and  CD2_113 
REMARK   71  A    between atoms: N_114  and  CA_115 
REMARK   72  A    between atoms: CA_115  and  C_116 
REMARK   73  A    between atoms: CA_115  and  CB_118 
REMARK       I    between atoms: C_116  and  N_121 
REMARK   74  A    between atoms: CB_118  and  OG1_119 
REMARK   75  A    between atoms: CB_118  and  CG2_120 
REMARK   76  A    between atoms: N_121  and  CA_122 
REMARK   77  A    between atoms: CA_122  and  C_123 
REMARK   78  A    between atoms: CA_122  and  CB_125 
ROOT
ATOM      1  CA  LEU d   1      -7.970  -2.263   3.834  0.00  0.00     0.089 C 
ATOM      2  H   LEU d   1      -8.489  -1.329   3.617  0.00  0.00     0.087 H 
ENDROOT
BRANCH   1   3
ATOM      3  N   LEU d   1      -8.900  -3.351   3.556  0.00  0.00    -0.346 N 
ATOM      4  C   ASN d   1     -10.214  -3.164   3.542  0.00  0.00     0.241 C 
ATOM      5  O   ASN d   1     -10.732  -2.067   3.730  0.00  0.00    -0.271 OA
ATOM      6  H   LEU d   1      -8.530  -4.283   3.367  0.00  0.00     0.163 HD
BRANCH   4   7
ATOM      7  CA  ASN d   1     -11.073  -4.381   3.239  0.00  0.00     0.097 C 
ATOM      8  H   ASN d   1     -10.416  -5.202   2.952  0.00  0.00     0.088 H 
BRANCH   7   9
ATOM      9  N   ASN d   1     -11.827  -4.819   4.407  0.00  0.00    -0.346 N 
ATOM     10  C   GLU d   1     -11.699  -6.043   4.912  0.00  0.00     0.240 C 
ATOM     11  O   GLU d   1     -10.996  -6.913   4.398  0.00  0.00    -0.271 OA
ATOM     12  H   ASN d   1     -12.473  -4.167   4.851  0.00  0.00     0.163 HD
BRANCH  10  13
ATOM     13  CA  GLU d   1     -12.489  -6.329   6.187  0.00  0.00     0.086 C 
ATOM     14  H   GLU d   1     -11.988  -7.131   6.729  0.00  0.00     0.086 H 
BRANCH  13  15
ATOM     15  N   GLU d   1     -12.521  -5.153   7.056  0.00  0.00    -0.346 N 
ATOM     16  C   MET d   1     -11.401  -4.579   7.489  0.00  0.00     0.241 C 
ATOM     17  O   MET d   1     -10.281  -5.006   7.207  0.00  0.00    -0.271 OA
ATOM     18  H   GLU d   1     -13.421  -4.764   7.336  0.00  0.00     0.163 HD
BRANCH  16  19
ATOM     19  CA  MET d   1     -11.560  -3.337   8.368  0.00  0.00     0.090 C 
ATOM     20  H   MET d   1     -10.686  -2.701   8.230  0.00  0.00     0.087 H 
BRANCH  19  21
ATOM     21  N   MET d   1     -12.735  -2.574   7.971  0.00  0.00    -0.346 N 
ATOM     22  C   SEP d   1     -12.747  -1.873   6.844  0.00  0.00     0.243 C 
ATOM     23  O   SEP d   1     -11.774  -1.791   6.099  0.00  0.00    -0.271 OA
ATOM     24  H   MET d   1     -13.562  -2.578   8.568  0.00  0.00     0.163 HD
BRANCH  22  25
ATOM     25  CA  SEP d   1     -14.044  -1.153   6.503  0.00  0.00     0.110 C 
ATOM     26  H   SEP d   1     -14.088  -1.058   5.418  0.00  0.00     0.090 H 
BRANCH  25  27
ATOM     27  N   SEP d   1     -15.228  -1.909   6.905  0.00  0.00    -0.344 N 
ATOM     28  C   HIS d   1     -15.417  -3.160   6.498  0.00  0.00     0.241 C 
ATOM     29  O   HIS d   1     -14.589  -3.774   5.828  0.00  0.00    -0.271 OA
ATOM     30  H   SEP d   1     -15.922  -1.469   7.509  0.00  0.00     0.163 HD
BRANCH  28  31
ATOM     31  CA  HIS d   1     -16.732  -3.819   6.903  0.00  0.00     0.094 C 
ATOM     32  H   HIS d   1     -16.636  -4.886   6.704  0.00  0.00     0.088 H 
BRANCH  31  33
ATOM     33  N   HIS d   1     -17.010  -3.689   8.328  0.00  0.00    -0.346 N 
ATOM     34  C   ARG d   1     -16.236  -4.271   9.239  0.00  0.00     0.241 C 
ATOM     35  O   ARG d   1     -15.208  -4.883   8.953  0.00  0.00    -0.271 OA
ATOM     36  H   HIS d   1     -17.814  -3.141   8.632  0.00  0.00     0.163 HD
BRANCH  34  37
ATOM     37  CA  ARG d   1     -16.678  -4.135  10.689  0.00  0.00     0.089 C 
ATOM     38  H   ARG d   1     -17.521  -3.445  10.722  0.00  0.00     0.087 H 
BRANCH  37  39
ATOM     39  N   ARG d   1     -17.120  -5.417  11.228  0.00  0.00    -0.346 N 
ATOM     40  C   ARG d   1     -18.408  -5.727  11.358  0.00  0.00     0.248 C 
ATOM     41  O   ARG d   1     -18.790  -6.798  11.828  0.00  0.00    -0.271 OA
ATOM     42  H   ARG d   1     -16.418  -6.099  11.515  0.00  0.00     0.163 HD
BRANCH  40  43
ATOM     43  CA  ARG d   1     -19.415  -4.680  10.887  0.00  0.00     0.176 C 
ATOM     44  H   ARG d   1     -19.022  -4.240   9.970  0.00  0.00     0.099 H 
BRANCH  43  45
ATOM     45  N   ARG d   1     -20.710  -5.277  10.575  0.00  0.00    -0.067 N 
ATOM     46  H   ARG d   1     -20.586  -6.009   9.876  0.00  0.00     0.275 HD
ATOM     47  H   ARG d   1     -21.111  -5.679  11.422  0.00  0.00     0.275 HD
ATOM     48  H   ARG d   1     -21.335  -4.559  10.210  0.00  0.00     0.275 HD
ENDBRANCH  43  45
BRANCH  43  49
ATOM     49  CB  ARG d   1     -19.578  -3.578  11.935  0.00  0.00    -0.029 C 
ATOM     50  H   ARG d   1     -18.584  -3.320  12.299  0.00  0.00     0.036 H 
ATOM     51  H   ARG d   1     -20.237  -3.960  12.715  0.00  0.00     0.036 H 
BRANCH  49  52
ATOM     52  CG  ARG d   1     -20.207  -2.313  11.383  0.00  0.00    -0.047 C 
ATOM     53  H   ARG d   1     -20.418  -1.640  12.214  0.00  0.00     0.035 H 
ATOM     54  H   ARG d   1     -21.118  -2.583  10.849  0.00  0.00     0.035 H 
BRANCH  52  55
ATOM     55  CD  ARG d   1     -19.270  -1.605  10.413  0.00  0.00     0.009 C 
ATOM     56  H   ARG d   1     -19.889  -1.220   9.603  0.00  0.00     0.064 H 
ATOM     57  H   ARG d   1     -18.518  -2.335  10.113  0.00  0.00     0.064 H 
BRANCH  55  58
ATOM     58  NE  ARG d   1     -18.546  -0.458  10.973  0.00  0.00    -0.227 N 
ATOM     59  CZ  ARG d   1     -18.674   0.026  12.209  0.00  0.00     0.665 C 
ATOM     60  NH1 ARG d   1     -19.504  -0.519  13.086  0.00  0.00    -0.235 N 
ATOM     61  NH2 ARG d   1     -17.957   1.077  12.575  0.00  0.00    -0.235 N 
ATOM     62  H   ARG d   1     -20.065  -1.329  12.822  0.00  0.00     0.174 HD
ATOM     63  H   ARG d   1     -19.582  -0.129  14.025  0.00  0.00     0.174 HD
ATOM     64  H   ARG d   1     -17.313   1.510  11.914  0.00  0.00     0.174 HD
ATOM     65  H   ARG d   1     -18.049   1.454  13.518  0.00  0.00     0.174 HD
ATOM     66  H   ARG d   1     -17.882   0.014  10.359  0.00  0.00     0.177 HD
ENDBRANCH  55  58
ENDBRANCH  52  55
ENDBRANCH  49  52
ENDBRANCH  43  49
ENDBRANCH  40  43
ENDBRANCH  37  39
BRANCH  37  67
ATOM     67  CB  ARG d   1     -15.536  -3.575  11.536  0.00  0.00    -0.036 C 
ATOM     68  H   ARG d   1     -15.240  -2.624  11.093  0.00  0.00     0.036 H 
ATOM     69  H   ARG d   1     -14.743  -4.323  11.546  0.00  0.00     0.036 H 
BRANCH  67  70
ATOM     70  CG  ARG d   1     -15.918  -3.302  12.978  0.00  0.00    -0.048 C 
ATOM     71  H   ARG d   1     -16.470  -4.160  13.361  0.00  0.00     0.035 H 
ATOM     72  H   ARG d   1     -16.526  -2.398  13.013  0.00  0.00     0.035 H 
BRANCH  70  73
ATOM     73  CD  ARG d   1     -14.686  -3.093  13.839  0.00  0.00     0.009 C 
ATOM     74  H   ARG d   1     -14.110  -2.273  13.410  0.00  0.00     0.064 H 
ATOM     75  H   ARG d   1     -14.127  -4.028  13.860  0.00  0.00     0.064 H 
BRANCH  73  76
ATOM     76  NE  ARG d   1     -15.021  -2.737  15.216  0.00  0.00    -0.227 N 
ATOM     77  CZ  ARG d   1     -15.199  -3.616  16.199  0.00  0.00     0.665 C 
ATOM     78  NH1 ARG d   1     -15.079  -4.916  15.964  0.00  0.00    -0.235 N 
ATOM     79  NH2 ARG d   1     -15.498  -3.195  17.422  0.00  0.00    -0.235 N 
ATOM     80  H   ARG d   1     -14.849  -5.246  15.027  0.00  0.00     0.174 HD
ATOM     81  H   ARG d   1     -15.216  -5.586  16.721  0.00  0.00     0.174 HD
ATOM     82  H   ARG d   1     -15.591  -2.197  17.609  0.00  0.00     0.174 HD
ATOM     83  H   ARG d   1     -15.634  -3.870  18.175  0.00  0.00     0.174 HD
ATOM     84  H   ARG d   1     -15.126  -1.747  15.439  0.00  0.00     0.177 HD
ENDBRANCH  73  76
ENDBRANCH  70  73
ENDBRANCH  67  70
ENDBRANCH  37  67
ENDBRANCH  34  37
ENDBRANCH  31  33
BRANCH  31  85
ATOM     85  CB  HIS d   1     -17.882  -3.250   6.068  0.00  0.00     0.004 C 
ATOM     86  H   HIS d   1     -17.965  -2.190   6.307  0.00  0.00     0.046 H 
ATOM     87  H   HIS d   1     -18.776  -3.825   6.309  0.00  0.00     0.046 H 
BRANCH  85  88
ATOM     88  CG  HIS d   1     -17.664  -3.360   4.590  0.00  0.00     0.053 A 
ATOM     89  ND1 HIS d   1     -17.755  -4.555   3.910  0.00  0.00    -0.247 NA
ATOM     90  CE1 HIS d   1     -17.512  -4.351   2.628  0.00  0.00     0.064 A 
ATOM     91  NE2 HIS d   1     -17.263  -3.065   2.451  0.00  0.00    -0.359 N 
ATOM     92  H   HIS d   1     -17.516  -5.113   1.849  0.00  0.00     0.143 H 
ATOM     93  CD2 HIS d   1     -17.351  -2.423   3.663  0.00  0.00     0.002 A 
ATOM     94  H   HIS d   1     -17.041  -2.621   1.560  0.00  0.00     0.166 HD
ATOM     95  H   HIS d   1     -17.198  -1.359   3.844  0.00  0.00     0.114 H 
ENDBRANCH  85  88
ENDBRANCH  31  85
ENDBRANCH  28  31
ENDBRANCH  25  27
BRANCH  25  96
ATOM     96  CB  SEP d   1     -14.051   0.236   7.134  0.00  0.00     0.059 C 
ATOM     97  H   SEP d   1     -13.128   0.753   6.871  0.00  0.00     0.079 H 
ATOM     98  H   SEP d   1     -14.129   0.137   8.217  0.00  0.00     0.079 H 
BRANCH  96  99
ATOM     99  OG  SEP d   1     -15.151   0.979   6.657  0.00  0.00    -0.280 OA
BRANCH  99 100
ATOM    100  P   SEP d   1     -16.007   1.494   7.910  0.00  0.00     0.422 P 
ATOM    101  O1P SEP d   1     -17.435   2.010   7.371  0.00  0.00    -0.617 OA
ATOM    102  O2P SEP d   1     -16.205   0.295   8.972  0.00  0.00    -0.617 OA
ATOM    103  O3P SEP d   1     -15.195   2.692   8.613  0.00  0.00    -0.617 OA
ENDBRANCH  99 100
ENDBRANCH  96  99
ENDBRANCH  25  96
ENDBRANCH  22  25
ENDBRANCH  19  21
BRANCH  19 104
ATOM    104  CB  MET d   1     -11.630  -3.731   9.849  0.00  0.00    -0.030 C 
ATOM    105  H   MET d   1     -10.703  -4.257  10.079  0.00  0.00     0.037 H 
ATOM    106  H   MET d   1     -12.538  -4.321   9.975  0.00  0.00     0.037 H 
BRANCH 104 107
ATOM    107  CG  MET d   1     -11.726  -2.559  10.827  0.00  0.00    -0.021 C 
ATOM    108  H   MET d   1     -11.772  -2.991  11.827  0.00  0.00     0.049 H 
ATOM    109  H   MET d   1     -12.597  -1.976  10.529  0.00  0.00     0.049 H 
BRANCH 107 110
ATOM    110  SD  MET d   1     -10.316  -1.423  10.820  0.00  0.00    -0.173 SA
BRANCH 110 111
ATOM    111  CE  MET d   1      -8.982  -2.453  11.419  0.00  0.00    -0.035 C 
ATOM    112  H   MET d   1      -9.226  -2.818  12.417  0.00  0.00     0.041 H 
ATOM    113  H   MET d   1      -8.847  -3.299  10.745  0.00  0.00     0.041 H 
ATOM    114  H   MET d   1      -8.063  -1.868  11.459  0.00  0.00     0.041 H 
ENDBRANCH 110 111
ENDBRANCH 107 110
ENDBRANCH 104 107
ENDBRANCH  19 104
ENDBRANCH  16  19
ENDBRANCH  13  15
BRANCH  13 115
ATOM    115  CB  GLU d   1     -13.908  -6.793   5.842  0.00  0.00    -0.049 C 
ATOM    116  H   GLU d   1     -14.438  -7.049   6.759  0.00  0.00     0.030 H 
ATOM    117  H   GLU d   1     -14.436  -5.990   5.327  0.00  0.00     0.030 H 
ATOM    118  H   GLU d   1     -13.855  -7.669   5.195  0.00  0.00     0.030 H 
ENDBRANCH  13 115
ENDBRANCH  10  13
ENDBRANCH   7   9
BRANCH   7 119
ATOM    119  CB  ASN d   1     -12.026  -4.044   2.097  0.00  0.00     0.036 C 
ATOM    120  H   ASN d   1     -11.719  -4.618   1.223  0.00  0.00     0.051 H 
ATOM    121  H   ASN d   1     -11.981  -2.968   1.929  0.00  0.00     0.051 H 
BRANCH 119 122
ATOM    122  CG  ASN d   1     -13.459  -4.406   2.411  0.00  0.00     0.217 C 
ATOM    123  OD1 ASN d   1     -14.143  -3.699   3.151  0.00  0.00    -0.274 OA
ATOM    124  ND2 ASN d   1     -13.926  -5.512   1.845  0.00  0.00    -0.370 N 
ATOM    125  H   ASN d   1     -14.887  -5.806   2.017  0.00  0.00     0.159 HD
ATOM    126  H   ASN d   1     -13.323  -6.068   1.238  0.00  0.00     0.159 HD
ENDBRANCH 119 122
ENDBRANCH   7 119
ENDBRANCH   4   7
ENDBRANCH   1   3
BRANCH   1 127
ATOM    127  C   LEU d   1      -6.730  -2.387   2.970  0.00  0.00     0.241 C 
ATOM    128  O   LEU d   1      -6.272  -3.492   2.693  0.00  0.00    -0.271 OA
ATOM    129  N   GLU d   1      -6.171  -1.254   2.560  0.00  0.00    -0.346 N 
ATOM    130  H   GLU d   1      -6.662  -0.369   2.686  0.00  0.00     0.163 HD
BRANCH 129 131
ATOM    131  CA  GLU d   1      -4.862  -1.274   1.933  0.00  0.00     0.090 C 
ATOM    132  H   GLU d   1      -4.699  -2.226   1.427  0.00  0.00     0.087 H 
BRANCH 131 133
ATOM    133  C   GLU d   1      -3.844  -1.051   3.034  0.00  0.00     0.241 C 
ATOM    134  O   GLU d   1      -3.707   0.057   3.554  0.00  0.00    -0.271 OA
ATOM    135  N   LEU d   1      -3.110  -2.105   3.371  0.00  0.00    -0.346 N 
ATOM    136  H   LEU d   1      -3.196  -2.968   2.833  0.00  0.00     0.163 HD
BRANCH 135 137
ATOM    137  CA  LEU d   1      -2.185  -2.052   4.493  0.00  0.00     0.089 C 
ATOM    138  H   LEU d   1      -2.716  -1.601   5.331  0.00  0.00     0.087 H 
BRANCH 137 139
ATOM    139  C   LEU d   1      -0.975  -1.192   4.177  0.00  0.00     0.241 C 
ATOM    140  O   LEU d   1      -0.559  -1.086   3.023  0.00  0.00    -0.271 OA
ATOM    141  N   MET d   1      -0.413  -0.581   5.211  0.00  0.00    -0.346 N 
ATOM    142  H   MET d   1      -0.845  -0.658   6.132  0.00  0.00     0.163 HD
BRANCH 141 143
ATOM    143  CA  MET d   1       0.806   0.196   5.060  0.00  0.00     0.090 C 
ATOM    144  H   MET d   1       1.014   0.293   3.994  0.00  0.00     0.087 H 
BRANCH 143 145
ATOM    145  C   MET d   1       1.970  -0.507   5.734  0.00  0.00     0.241 C 
ATOM    146  O   MET d   1       1.826  -1.062   6.822  0.00  0.00    -0.271 OA
ATOM    147  N   LYS d   1       3.122  -0.489   5.075  0.00  0.00    -0.346 N 
ATOM    148  H   LYS d   1       3.148  -0.122   4.124  0.00  0.00     0.163 HD
BRANCH 147 149
ATOM    149  CA  LYS d   1       4.345  -0.981   5.681  0.00  0.00     0.089 C 
ATOM    150  H   LYS d   1       4.228  -2.029   5.958  0.00  0.00     0.087 H 
BRANCH 149 151
ATOM    151  C   LYS d   1       4.629  -0.129   6.909  0.00  0.00     0.241 C 
ATOM    152  O   LYS d   1       4.301   1.062   6.939  0.00  0.00    -0.271 OA
ATOM    153  N   LEU d   1       5.231  -0.738   7.925  0.00  0.00    -0.346 N 
ATOM    154  H   LEU d   1       5.462  -1.729   7.851  0.00  0.00     0.163 HD
BRANCH 153 155
ATOM    155  CA  LEU d   1       5.567  -0.012   9.144  0.00  0.00     0.089 C 
ATOM    156  H   LEU d   1       5.292   1.031   8.991  0.00  0.00     0.087 H 
BRANCH 155 157
ATOM    157  C   LEU d   1       7.067  -0.072   9.426  0.00  0.00     0.241 C 
ATOM    158  O   LEU d   1       7.776  -0.931   8.897  0.00  0.00    -0.271 OA
ATOM    159  N   THR d   1       7.543   0.851  10.254  0.00  0.00    -0.344 N 
ATOM    160  H   THR d   1       6.902   1.532  10.660  0.00  0.00     0.163 HD
BRANCH 159 161
ATOM    161  CA  THR d   1       8.959   0.916  10.598  0.00  0.00     0.113 C 
ATOM    162  H   THR d   1       9.525   0.812   9.672  0.00  0.00     0.091 H 
BRANCH 161 163
ATOM    163  C   THR d   1       9.348  -0.221  11.539  0.00  0.00     0.243 C 
ATOM    164  O   THR d   1       8.532  -0.647  12.363  0.00  0.00    -0.271 OA
ATOM    165  N   PRO d   1      10.590  -0.725  11.410  0.00  0.00    -0.345 N 
ATOM    166  H   PRO d   1      11.201  -0.354  10.682  0.00  0.00     0.163 HD
BRANCH 165 167
ATOM    167  CA  PRO d   1      11.091  -1.789  12.283  0.00  0.00     0.093 C 
ATOM    168  H   PRO d   1      10.575  -2.738  12.140  0.00  0.00     0.089 H 
BRANCH 167 169
ATOM    169  C   PRO d   1      10.898  -1.425  13.751  0.00  0.00     0.196 C 
ATOM    170  O   PRO d   1      11.890  -1.153  14.439  0.00  0.00    -0.646 OA
ATOM    171  O   PRO d   1       9.744  -1.401  14.257  0.00  0.00    -0.646 OA
ENDBRANCH 167 169
BRANCH 167 172
ATOM    172  CB  PRO d   1      12.577  -1.845  11.937  0.00  0.00    -0.048 C 
ATOM    173  H   PRO d   1      12.694  -2.080  10.879  0.00  0.00     0.030 H 
ATOM    174  H   PRO d   1      13.035  -0.878  12.148  0.00  0.00     0.030 H 
ATOM    175  H   PRO d   1      13.060  -2.616  12.537  0.00  0.00     0.030 H 
ENDBRANCH 167 172
ENDBRANCH 165 167
ENDBRANCH 161 163
BRANCH 161 176
ATOM    176  CB  THR d   1       9.309   2.270  11.244  0.00  0.00     0.060 C 
ATOM    177  H   THR d   1       8.598   2.466  12.047  0.00  0.00     0.086 H 
BRANCH 176 178
ATOM    178  OG1 THR d   1       9.229   3.306  10.255  0.00  0.00    -0.393 OA
ATOM    179  H   THR d   1       9.447   4.149  10.658  0.00  0.00     0.210 HD
ENDBRANCH 176 178
BRANCH 176 180
ATOM    180  CG2 THR d   1      10.711   2.241  11.833  0.00  0.00    -0.050 C 
ATOM    181  H   THR d   1      10.768   1.463  12.594  0.00  0.00     0.031 H 
ATOM    182  H   THR d   1      11.432   2.031  11.043  0.00  0.00     0.031 H 
ATOM    183  H   THR d   1      10.935   3.208  12.283  0.00  0.00     0.031 H 
ENDBRANCH 176 180
ENDBRANCH 161 176
ENDBRANCH 159 161
ENDBRANCH 155 157
BRANCH 155 184
ATOM    184  CB  LEU d   1       4.772  -0.545  10.343  0.00  0.00    -0.035 C 
ATOM    185  H   LEU d   1       4.904   0.197  11.130  0.00  0.00     0.037 H 
ATOM    186  H   LEU d   1       5.153  -1.551  10.518  0.00  0.00     0.037 H 
BRANCH 184 187
ATOM    187  CG  LEU d   1       3.253  -0.707  10.188  0.00  0.00    -0.059 C 
ATOM    188  H   LEU d   1       3.078  -1.561   9.534  0.00  0.00     0.038 H 
BRANCH 187 189
ATOM    189  CD1 LEU d   1       2.606  -0.982  11.538  0.00  0.00    -0.073 C 
ATOM    190  H   LEU d   1       3.020  -1.899  11.958  0.00  0.00     0.028 H 
ATOM    191  H   LEU d   1       2.807  -0.149  12.212  0.00  0.00     0.028 H 
ATOM    192  H   LEU d   1       1.530  -1.094  11.408  0.00  0.00     0.028 H 
ENDBRANCH 187 189
BRANCH 187 193
ATOM    193  CD2 LEU d   1       2.618   0.514   9.528  0.00  0.00    -0.073 C 
ATOM    194  H   LEU d   1       2.808   1.396  10.139  0.00  0.00     0.028 H 
ATOM    195  H   LEU d   1       3.051   0.656   8.538  0.00  0.00     0.028 H 
ATOM    196  H   LEU d   1       1.543   0.358   9.437  0.00  0.00     0.028 H 
ENDBRANCH 187 193
ENDBRANCH 184 187
ENDBRANCH 155 184
ENDBRANCH 153 155
ENDBRANCH 149 151
BRANCH 149 197
ATOM    197  CB  LYS d   1       5.514  -0.889   4.697  0.00  0.00    -0.038 C 
ATOM    198  H   LYS d   1       6.254  -0.225   5.144  0.00  0.00     0.036 H 
ATOM    199  H   LYS d   1       5.104  -0.541   3.749  0.00  0.00     0.036 H 
BRANCH 197 200
ATOM    200  CG  LYS d   1       6.215  -2.211   4.419  0.00  0.00    -0.061 C 
ATOM    201  H   LYS d   1       5.870  -2.597   3.460  0.00  0.00     0.033 H 
ATOM    202  H   LYS d   1       5.982  -2.909   5.223  0.00  0.00     0.033 H 
BRANCH 200 203
ATOM    203  CD  LYS d   1       7.727  -2.020   4.357  0.00  0.00    -0.043 C 
ATOM    204  H   LYS d   1       8.089  -1.843   5.370  0.00  0.00     0.035 H 
ATOM    205  H   LYS d   1       7.937  -1.180   3.694  0.00  0.00     0.035 H 
BRANCH 203 206
ATOM    206  CE  LYS d   1       8.437  -3.250   3.806  0.00  0.00     0.080 C 
ATOM    207  H   LYS d   1       8.037  -4.129   4.312  0.00  0.00     0.075 H 
ATOM    208  H   LYS d   1       9.507  -3.130   3.977  0.00  0.00     0.075 H 
BRANCH 206 209
ATOM    209  NZ  LYS d   1       8.216  -3.416   2.339  0.00  0.00    -0.079 N 
ATOM    210  H   LYS d   1       8.708  -4.249   2.014  0.00  0.00     0.274 HD
ATOM    211  H   LYS d   1       7.218  -3.516   2.156  0.00  0.00     0.274 HD
ATOM    212  H   LYS d   1       8.572  -2.596   1.848  0.00  0.00     0.274 HD
ENDBRANCH 206 209
ENDBRANCH 203 206
ENDBRANCH 200 203
ENDBRANCH 197 200
ENDBRANCH 149 197
ENDBRANCH 147 149
ENDBRANCH 143 145
BRANCH 143 213
ATOM    213  CB  MET d   1       0.635   1.589   5.661  0.00  0.00    -0.030 C 
ATOM    214  H   MET d   1       1.618   2.061   5.657  0.00  0.00     0.037 H 
ATOM    215  H   MET d   1       0.200   1.458   6.652  0.00  0.00     0.037 H 
BRANCH 213 216
ATOM    216  CG  MET d   1      -0.295   2.498   4.886  0.00  0.00    -0.021 C 
ATOM    217  H   MET d   1      -1.157   1.917   4.557  0.00  0.00     0.049 H 
ATOM    218  H   MET d   1       0.248   2.909   4.035  0.00  0.00     0.049 H 
BRANCH 216 219
ATOM    219  SD  MET d   1      -0.874   3.859   5.913  0.00  0.00    -0.173 SA
BRANCH 219 220
ATOM    220  CE  MET d   1       0.681   4.505   6.539  0.00  0.00    -0.035 C 
ATOM    221  H   MET d   1       1.197   3.726   7.100  0.00  0.00     0.041 H 
ATOM    222  H   MET d   1       1.303   4.825   5.703  0.00  0.00     0.041 H 
ATOM    223  H   MET d   1       0.483   5.355   7.192  0.00  0.00     0.041 H 
ENDBRANCH 219 220
ENDBRANCH 216 219
ENDBRANCH 213 216
ENDBRANCH 143 213
ENDBRANCH 141 143
ENDBRANCH 137 139
BRANCH 137 224
ATOM    224  CB  LEU d   1      -1.731  -3.458   4.885  0.00  0.00    -0.035 C 
ATOM    225  H   LEU d   1      -1.010  -3.334   5.693  0.00  0.00     0.037 H 
ATOM    226  H   LEU d   1      -1.351  -3.923   3.975  0.00  0.00     0.037 H 
BRANCH 224 227
ATOM    227  CG  LEU d   1      -2.821  -4.387   5.420  0.00  0.00    -0.059 C 
ATOM    228  H   LEU d   1      -3.532  -4.594   4.620  0.00  0.00     0.038 H 
BRANCH 227 229
ATOM    229  CD1 LEU d   1      -2.209  -5.696   5.871  0.00  0.00    -0.073 C 
ATOM    230  H   LEU d   1      -1.712  -6.173   5.026  0.00  0.00     0.028 H 
ATOM    231  H   LEU d   1      -1.482  -5.503   6.660  0.00  0.00     0.028 H 
ATOM    232  H   LEU d   1      -2.994  -6.351   6.250  0.00  0.00     0.028 H 
ENDBRANCH 227 229
BRANCH 227 233
ATOM    233  CD2 LEU d   1      -3.579  -3.722   6.559  0.00  0.00    -0.073 C 
ATOM    234  H   LEU d   1      -2.886  -3.487   7.367  0.00  0.00     0.028 H 
ATOM    235  H   LEU d   1      -4.042  -2.804   6.198  0.00  0.00     0.028 H 
ATOM    236  H   LEU d   1      -4.350  -4.400   6.925  0.00  0.00     0.028 H 
ENDBRANCH 227 233
ENDBRANCH 224 227
ENDBRANCH 137 224
ENDBRANCH 135 137
ENDBRANCH 131 133
BRANCH 131 237
ATOM    237  CB  GLU d   1      -4.741  -0.175   0.878  0.00  0.00    -0.029 C 
ATOM    238  H   GLU d   1      -3.679  -0.050   0.669  0.00  0.00     0.037 H 
ATOM    239  H   GLU d   1      -5.230   0.711   1.283  0.00  0.00     0.037 H 
BRANCH 237 240
ATOM    240  CG  GLU d   1      -5.419  -0.491  -0.443  0.00  0.00     0.018 C 
ATOM    241  H   GLU d   1      -6.479  -0.651  -0.248  0.00  0.00     0.049 H 
ATOM    242  H   GLU d   1      -4.937  -1.371  -0.867  0.00  0.00     0.049 H 
BRANCH 240 243
ATOM    243  CD  GLU d   1      -5.292   0.643  -1.445  0.00  0.00     0.172 C 
ATOM    244  OE1 GLU d   1      -5.147   1.807  -1.013  0.00  0.00    -0.648 OA
ATOM    245  OE2 GLU d   1      -5.334   0.371  -2.664  0.00  0.00    -0.648 OA
ENDBRANCH 240 243
ENDBRANCH 237 240
ENDBRANCH 131 237
ENDBRANCH 129 131
ENDBRANCH   1 127
BRANCH   1 246
ATOM    246  CB  LEU d   1      -7.527  -2.289   5.298  0.00  0.00    -0.035 C 
ATOM    247  H   LEU d   1      -6.688  -1.594   5.339  0.00  0.00     0.037 H 
ATOM    248  H   LEU d   1      -7.375  -3.346   5.516  0.00  0.00     0.037 H 
BRANCH 246 249
ATOM    249  CG  LEU d   1      -8.471  -1.808   6.395  0.00  0.00    -0.059 C 
ATOM    250  H   LEU d   1      -9.301  -2.507   6.494  0.00  0.00     0.038 H 
BRANCH 249 251
ATOM    251  CD1 LEU d   1      -7.712  -1.738   7.706  0.00  0.00    -0.073 C 
ATOM    252  H   LEU d   1      -7.331  -2.728   7.957  0.00  0.00     0.028 H 
ATOM    253  H   LEU d   1      -6.880  -1.041   7.606  0.00  0.00     0.028 H 
ATOM    254  H   LEU d   1      -8.382  -1.395   8.494  0.00  0.00     0.028 H 
ENDBRANCH 249 251
BRANCH 249 255
ATOM    255  CD2 LEU d   1      -9.037  -0.449   6.041  0.00  0.00    -0.073 C 
ATOM    256  H   LEU d   1      -8.221   0.266   5.933  0.00  0.00     0.028 H 
ATOM    257  H   LEU d   1      -9.587  -0.519   5.103  0.00  0.00     0.028 H 
ATOM    258  H   LEU d   1      -9.709  -0.119   6.833  0.00  0.00     0.028 H 
ENDBRANCH 249 255
ENDBRANCH 246 249
ENDBRANCH   1 246
TORSDOF 78
