REMARK WARNING: 32 MAX_TORS EXCEEDED!!!
REMARK  44 active torsions:
REMARK  status: ('A' for Active; 'I' for Inactive)
REMARK    1  A    between atoms: CAR_1  and  CAQ_2 
REMARK    2  A    between atoms: CAQ_2  and  CAP_3 
REMARK    3  A    between atoms: CAP_3  and  CAO_4 
REMARK    4  A    between atoms: CAO_4  and  CAN_5 
REMARK    5  A    between atoms: CAN_5  and  CAM_6 
REMARK    6  A    between atoms: CAM_6  and  CAL_7 
REMARK    7  A    between atoms: CAL_7  and  CAK_8 
REMARK    8  A    between atoms: CAK_8  and  CAJ_9 
REMARK    9  A    between atoms: CAJ_9  and  CAI_10 
REMARK   10  A    between atoms: CAI_10  and  CAH_11 
REMARK   11  A    between atoms: CAH_11  and  CAG_12 
REMARK   12  A    between atoms: CAG_12  and  CAF_13 
REMARK   13  A    between atoms: CAF_13  and  CAE_14 
REMARK   14  A    between atoms: CAE_14  and  CAD_15 
REMARK   15  A    between atoms: CAD_15  and  OAX_16 
REMARK   16  A    between atoms: CAD_15  and  CAC_17 
REMARK   17  A    between atoms: CAC_17  and  OAV_18 
REMARK   18  A    between atoms: CAC_17  and  CAB_19 
REMARK   19  A    between atoms: CAB_19  and  CAA_20 
REMARK   20  A    between atoms: CAB_19  and  NAS_33 
REMARK   21  A    between atoms: CAA_20  and  O1_21 
REMARK   22  A    between atoms: O1_21  and  C1_22 
REMARK   23  A    between atoms: C5_24  and  C6_25 
REMARK   24  A    between atoms: C6_25  and  O6_26 
REMARK   25  A    between atoms: C4_27  and  O4_28 
REMARK   26  A    between atoms: C3_29  and  O3_30 
REMARK   27  A    between atoms: C2_31  and  O2_32 
REMARK       I    between atoms: NAS_33  and  CAT_34 
REMARK   28  A    between atoms: CAT_34  and  CAU_36 
REMARK   29  A    between atoms: CAU_36  and  CAY_37 
REMARK   30  A    between atoms: CAY_37  and  CAZ_38 
REMARK   31  A    between atoms: CAZ_38  and  CBA_39 
REMARK   32  A    between atoms: CBA_39  and  CBB_40 
REMARK   33  A    between atoms: CBB_40  and  CBC_41 
REMARK   34  A    between atoms: CBC_41  and  CBD_42 
REMARK   35  A    between atoms: CBD_42  and  CBE_43 
REMARK   36  A    between atoms: CBE_43  and  CBF_44 
REMARK   37  A    between atoms: CBF_44  and  CBG_45 
REMARK   38  A    between atoms: CBJ_46  and  CBH_47 
REMARK   39  A    between atoms: CBH_47  and  CBI_48 
REMARK   40  A    between atoms: CBP_49  and  CBK_50 
REMARK   41  A    between atoms: CBK_50  and  CBL_51 
REMARK   42  A    between atoms: CBL_51  and  CBM_52 
REMARK   43  A    between atoms: CBM_52  and  CBN_53 
REMARK   44  A    between atoms: CBN_53  and  CBO_54 
ROOT
ATOM      1  CAB 09N d   1     -48.517 -84.563  33.888  0.00  0.00     0.060 C 
ATOM      2  H34 09N d   1     -48.912 -85.133  34.742  0.00  0.00     0.080 H 
ENDROOT
BRANCH   1   3
ATOM      3  CAC 09N d   1     -47.765 -83.336  34.426  0.00  0.00     0.081 C 
ATOM      4  H32 09N d   1     -47.216 -82.886  33.586  0.00  0.00     0.090 H 
BRANCH   3   5
ATOM      5  CAD 09N d   1     -48.683 -82.247  35.013  0.00  0.00     0.062 C 
ATOM      6  H30 09N d   1     -49.471 -82.021  34.280  0.00  0.00     0.086 H 
BRANCH   5   7
ATOM      7  CAE 09N d   1     -49.361 -82.653  36.335  0.00  0.00    -0.039 C 
ATOM      8  H28 09N d   1     -50.156 -83.381  36.115  0.00  0.00     0.036 H 
ATOM      9  H29 09N d   1     -48.609 -83.118  36.989  0.00  0.00     0.036 H 
BRANCH   7  10
ATOM     10  CAF 09N d   1     -49.977 -81.459  37.067  0.00  0.00    -0.063 C 
ATOM     11  H26 09N d   1     -50.097 -81.716  38.130  0.00  0.00     0.033 H 
ATOM     12  H27 09N d   1     -49.302 -80.596  36.972  0.00  0.00     0.033 H 
BRANCH  10  13
ATOM     13  CAG 09N d   1     -51.354 -81.082  36.486  0.00  0.00    -0.065 C 
ATOM     14  H24 09N d   1     -51.202 -80.421  35.620  0.00  0.00     0.033 H 
ATOM     15  H25 09N d   1     -51.863 -82.001  36.161  0.00  0.00     0.033 H 
BRANCH  13  16
ATOM     16  CAH 09N d   1     -52.249 -80.358  37.507  0.00  0.00    -0.065 C 
ATOM     17  H22 09N d   1     -53.295 -80.442  37.178  0.00  0.00     0.033 H 
ATOM     18  H23 09N d   1     -52.132 -80.847  38.485  0.00  0.00     0.033 H 
BRANCH  16  19
ATOM     19  CAI 09N d   1     -51.902 -78.868  37.660  0.00  0.00    -0.065 C 
ATOM     20  H20 09N d   1     -50.842 -78.717  37.407  0.00  0.00     0.033 H 
ATOM     21  H21 09N d   1     -52.530 -78.279  36.975  0.00  0.00     0.033 H 
BRANCH  19  22
ATOM     22  CAJ 09N d   1     -52.148 -78.396  39.097  0.00  0.00    -0.065 C 
ATOM     23  H18 09N d   1     -53.052 -78.890  39.483  0.00  0.00     0.033 H 
ATOM     24  H19 09N d   1     -51.283 -78.678  39.716  0.00  0.00     0.033 H 
BRANCH  22  25
ATOM     25  CAK 09N d   1     -52.341 -76.877  39.181  0.00  0.00    -0.065 C 
ATOM     26  H16 09N d   1     -52.566 -76.492  38.175  0.00  0.00     0.033 H 
ATOM     27  H17 09N d   1     -53.186 -76.664  39.852  0.00  0.00     0.033 H 
BRANCH  25  28
ATOM     28  CAL 09N d   1     -51.092 -76.162  39.716  0.00  0.00    -0.065 C 
ATOM     29  H14 09N d   1     -50.197 -76.650  39.302  0.00  0.00     0.033 H 
ATOM     30  H15 09N d   1     -51.118 -75.111  39.394  0.00  0.00     0.033 H 
BRANCH  28  31
ATOM     31  CAM 09N d   1     -51.020 -76.210  41.248  0.00  0.00    -0.065 C 
ATOM     32  H12 09N d   1     -52.040 -76.303  41.649  0.00  0.00     0.033 H 
ATOM     33  H13 09N d   1     -50.427 -77.086  41.549  0.00  0.00     0.033 H 
BRANCH  31  34
ATOM     34  CAN 09N d   1     -50.370 -74.946  41.831  0.00  0.00    -0.065 C 
ATOM     35  H10 09N d   1     -50.367 -74.159  41.063  0.00  0.00     0.033 H 
ATOM     36  H11 09N d   1     -50.957 -74.610  42.698  0.00  0.00     0.033 H 
BRANCH  34  37
ATOM     37  CAO 09N d   1     -48.927 -75.210  42.279  0.00  0.00    -0.065 C 
ATOM     38  H8  09N d   1     -48.565 -76.126  41.789  0.00  0.00     0.033 H 
ATOM     39  H9  09N d   1     -48.300 -74.359  41.975  0.00  0.00     0.033 H 
BRANCH  37  40
ATOM     40  CAP 09N d   1     -48.821 -75.385  43.794  0.00  0.00    -0.065 C 
ATOM     41  H6  09N d   1     -49.698 -74.927  44.274  0.00  0.00     0.033 H 
ATOM     42  H7  09N d   1     -48.790 -76.458  44.034  0.00  0.00     0.033 H 
BRANCH  40  43
ATOM     43  CAQ 09N d   1     -47.546 -74.712  44.320  0.00  0.00    -0.069 C 
ATOM     44  H4  09N d   1     -46.965 -74.341  43.463  0.00  0.00     0.032 H 
ATOM     45  H5  09N d   1     -47.834 -73.866  44.961  0.00  0.00     0.032 H 
BRANCH  43  46
ATOM     46  CAR 09N d   1     -46.661 -75.670  45.137  0.00  0.00    -0.077 C 
ATOM     47  H1  09N d   1     -45.766 -75.134  45.486  0.00  0.00     0.027 H 
ATOM     48  H2  09N d   1     -46.358 -76.518  44.505  0.00  0.00     0.027 H 
ATOM     49  H3  09N d   1     -47.227 -76.043  46.004  0.00  0.00     0.027 H 
ENDBRANCH  43  46
ENDBRANCH  40  43
ENDBRANCH  37  40
ENDBRANCH  34  37
ENDBRANCH  31  34
ENDBRANCH  28  31
ENDBRANCH  25  28
ENDBRANCH  22  25
ENDBRANCH  19  22
ENDBRANCH  16  19
ENDBRANCH  13  16
ENDBRANCH  10  13
ENDBRANCH   7  10
ENDBRANCH   5   7
BRANCH   5  50
ATOM     50  OAX 09N d   1     -47.887 -81.091  35.222  0.00  0.00    -0.393 OA
ATOM     51  H31 09N d   1     -47.222 -81.279  35.874  0.00  0.00     0.210 HD
ENDBRANCH   5  50
ENDBRANCH   3   5
BRANCH   3  52
ATOM     52  OAV 09N d   1     -46.816 -83.766  35.408  0.00  0.00    -0.391 OA
ATOM     53  H33 09N d   1     -46.286 -83.026  35.680  0.00  0.00     0.210 HD
ENDBRANCH   3  52
ENDBRANCH   1   3
BRANCH   1  54
ATOM     54  CAA 09N d   1     -47.552 -85.458  33.113  0.00  0.00     0.044 C 
ATOM     55  H35 09N d   1     -48.100 -86.325  32.714  0.00  0.00     0.077 H 
ATOM     56  H36 09N d   1     -46.756 -85.806  33.788  0.00  0.00     0.077 H 
BRANCH  54  57
ATOM     57  O1  09N d   1     -46.968 -84.727  32.029  0.00  0.00    -0.356 OA
BRANCH  57  58
ATOM     58  C1  09N d   1     -46.278 -85.618  31.125  0.00  0.00     0.158 C 
ATOM     59  O5  09N d   1     -47.186 -86.600  30.501  0.00  0.00    -0.348 OA
ATOM     60  C5  09N d   1     -48.103 -86.097  29.490  0.00  0.00     0.089 C 
ATOM     61  C4  09N d   1     -47.350 -85.321  28.404  0.00  0.00     0.090 C 
ATOM     62  H38 09N d   1     -48.827 -85.419  29.966  0.00  0.00     0.090 H 
ATOM     63  C3  09N d   1     -46.522 -84.215  29.068  0.00  0.00     0.092 C 
ATOM     64  H42 09N d   1     -48.080 -84.857  27.724  0.00  0.00     0.091 H 
ATOM     65  C2  09N d   1     -45.532 -84.809  30.052  0.00  0.00     0.110 C 
ATOM     66  H44 09N d   1     -47.204 -83.537  29.602  0.00  0.00     0.091 H 
ATOM     67  H46 09N d   1     -44.848 -85.483  29.515  0.00  0.00     0.094 H 
ATOM     68  H37 09N d   1     -45.533 -86.178  31.710  0.00  0.00     0.133 H 
BRANCH  60  69
ATOM     69  C6  09N d   1     -48.850 -87.286  28.891  0.00  0.00     0.043 C 
ATOM     70  H39 09N d   1     -48.630 -88.192  29.476  0.00  0.00     0.078 H 
ATOM     71  H40 09N d   1     -48.530 -87.435  27.849  0.00  0.00     0.078 H 
BRANCH  69  72
ATOM     72  O6  09N d   1     -50.246 -87.023  28.927  0.00  0.00    -0.398 OA
ATOM     73  H41 09N d   1     -50.716 -87.760  28.555  0.00  0.00     0.209 HD
ENDBRANCH  69  72
ENDBRANCH  60  69
BRANCH  61  74
ATOM     74  O4  09N d   1     -46.515 -86.213  27.639  0.00  0.00    -0.390 OA
ATOM     75  H43 09N d   1     -46.055 -85.719  26.971  0.00  0.00     0.210 HD
ENDBRANCH  61  74
BRANCH  63  76
ATOM     76  O3  09N d   1     -45.793 -83.478  28.107  0.00  0.00    -0.390 OA
ATOM     77  H45 09N d   1     -45.290 -82.801  28.544  0.00  0.00     0.210 HD
ENDBRANCH  63  76
BRANCH  65  78
ATOM     78  O2  09N d   1     -44.777 -83.750  30.629  0.00  0.00    -0.388 OA
ATOM     79  H47 09N d   1     -45.363 -83.153  31.079  0.00  0.00     0.210 HD
ENDBRANCH  65  78
ENDBRANCH  57  58
ENDBRANCH  54  57
ENDBRANCH   1  54
BRANCH   1  80
ATOM     80  NAS 09N d   1     -49.652 -84.154  33.041  0.00  0.00    -0.352 N 
ATOM     81  CAT 09N d   1     -50.672 -84.954  32.737  0.00  0.00     0.218 C 
ATOM     82  OAW 09N d   1     -50.757 -86.131  33.081  0.00  0.00    -0.274 OA
ATOM     83  H48 09N d   1     -49.656 -83.224  32.674  0.00  0.00     0.163 HD
BRANCH  81  84
ATOM     84  CAU 09N d   1     -51.768 -84.314  31.880  0.00  0.00     0.009 C 
ATOM     85  H49 09N d   1     -51.660 -84.664  30.843  0.00  0.00     0.047 H 
ATOM     86  H50 09N d   1     -51.653 -83.221  31.912  0.00  0.00     0.047 H 
BRANCH  84  87
ATOM     87  CAY 09N d   1     -53.169 -84.683  32.387  0.00  0.00    -0.057 C 
ATOM     88  H51 09N d   1     -53.136 -85.691  32.827  0.00  0.00     0.033 H 
ATOM     89  H52 09N d   1     -53.869 -84.677  31.538  0.00  0.00     0.033 H 
BRANCH  87  90
ATOM     90  CAZ 09N d   1     -53.661 -83.699  33.441  0.00  0.00    -0.065 C 
ATOM     91  H53 09N d   1     -53.677 -82.687  33.010  0.00  0.00     0.033 H 
ATOM     92  H54 09N d   1     -52.977 -83.720  34.302  0.00  0.00     0.033 H 
BRANCH  90  93
ATOM     93  CBA 09N d   1     -55.072 -84.067  33.912  0.00  0.00    -0.065 C 
ATOM     94  H55 09N d   1     -55.082 -85.122  34.225  0.00  0.00     0.033 H 
ATOM     95  H56 09N d   1     -55.777 -83.924  33.079  0.00  0.00     0.033 H 
BRANCH  93  96
ATOM     96  CBB 09N d   1     -55.511 -83.188  35.097  0.00  0.00    -0.065 C 
ATOM     97  H57 09N d   1     -55.166 -82.159  34.919  0.00  0.00     0.033 H 
ATOM     98  H58 09N d   1     -55.047 -83.577  36.016  0.00  0.00     0.033 H 
BRANCH  96  99
ATOM     99  CBC 09N d   1     -57.033 -83.171  35.284  0.00  0.00    -0.065 C 
ATOM    100  H59 09N d   1     -57.508 -83.576  34.378  0.00  0.00     0.033 H 
ATOM    101  H60 09N d   1     -57.362 -82.133  35.438  0.00  0.00     0.033 H 
BRANCH  99 102
ATOM    102  CBD 09N d   1     -57.466 -84.012  36.489  0.00  0.00    -0.065 C 
ATOM    103  H61 09N d   1     -56.585 -84.215  37.115  0.00  0.00     0.033 H 
ATOM    104  H62 09N d   1     -57.885 -84.962  36.127  0.00  0.00     0.033 H 
BRANCH 102 105
ATOM    105  CBE 09N d   1     -58.530 -83.293  37.344  0.00  0.00    -0.062 C 
ATOM    106  H63 09N d   1     -59.503 -83.362  36.835  0.00  0.00     0.033 H 
ATOM    107  H64 09N d   1     -58.247 -82.236  37.451  0.00  0.00     0.033 H 
BRANCH 105 108
ATOM    108  CBF 09N d   1     -58.653 -83.923  38.748  0.00  0.00    -0.050 C 
ATOM    109  H65 09N d   1     -58.527 -83.132  39.502  0.00  0.00     0.038 H 
ATOM    110  H66 09N d   1     -57.859 -84.674  38.869  0.00  0.00     0.038 H 
BRANCH 108 111
ATOM    111  CBG 09N d   1     -59.891 -84.542  38.949  0.00  0.00    -0.106 C 
ATOM    112  CBJ 09N d   1     -60.092 -85.931  39.003  0.00  0.00    -0.103 C 
ATOM    113  H68 09N d   1     -61.105 -86.281  39.196  0.00  0.00     0.076 H 
ATOM    114  H67 09N d   1     -60.762 -83.900  39.073  0.00  0.00     0.076 H 
BRANCH 112 115
ATOM    115  CBH 09N d   1     -59.100 -86.904  38.830  0.00  0.00    -0.035 C 
ATOM    116  H69 09N d   1     -58.175 -86.568  39.321  0.00  0.00     0.044 H 
ATOM    117  H70 09N d   1     -58.915 -87.044  37.755  0.00  0.00     0.044 H 
BRANCH 115 118
ATOM    118  CBI 09N d   1     -59.501 -88.126  39.391  0.00  0.00    -0.103 C 
ATOM    119  CBP 09N d   1     -60.379 -89.064  38.812  0.00  0.00    -0.106 C 
ATOM    120  H72 09N d   1     -60.585 -89.974  39.373  0.00  0.00     0.076 H 
ATOM    121  H71 09N d   1     -59.094 -88.374  40.370  0.00  0.00     0.076 H 
BRANCH 119 122
ATOM    122  CBK 09N d   1     -61.005 -88.914  37.573  0.00  0.00    -0.050 C 
ATOM    123  H73 09N d   1     -60.235 -88.737  36.808  0.00  0.00     0.038 H 
ATOM    124  H74 09N d   1     -61.680 -88.047  37.622  0.00  0.00     0.038 H 
BRANCH 122 125
ATOM    125  CBL 09N d   1     -61.822 -90.151  37.171  0.00  0.00    -0.062 C 
ATOM    126  H75 09N d   1     -62.108 -90.706  38.077  0.00  0.00     0.033 H 
ATOM    127  H76 09N d   1     -61.208 -90.796  36.525  0.00  0.00     0.033 H 
BRANCH 125 128
ATOM    128  CBM 09N d   1     -63.092 -89.734  36.410  0.00  0.00    -0.065 C 
ATOM    129  H77 09N d   1     -62.954 -88.708  36.038  0.00  0.00     0.033 H 
ATOM    130  H78 09N d   1     -63.941 -89.760  37.109  0.00  0.00     0.033 H 
BRANCH 128 131
ATOM    131  CBN 09N d   1     -63.418 -90.643  35.217  0.00  0.00    -0.069 C 
ATOM    132  H79 09N d   1     -64.287 -91.269  35.468  0.00  0.00     0.032 H 
ATOM    133  H80 09N d   1     -62.551 -91.286  35.007  0.00  0.00     0.032 H 
BRANCH 131 134
ATOM    134  CBO 09N d   1     -63.743 -89.810  33.963  0.00  0.00    -0.077 C 
ATOM    135  H81 09N d   1     -63.972 -90.484  33.124  0.00  0.00     0.027 H 
ATOM    136  H82 09N d   1     -62.876 -89.184  33.704  0.00  0.00     0.027 H 
ATOM    137  H83 09N d   1     -64.612 -89.167  34.165  0.00  0.00     0.027 H 
ENDBRANCH 131 134
ENDBRANCH 128 131
ENDBRANCH 125 128
ENDBRANCH 122 125
ENDBRANCH 119 122
ENDBRANCH 115 118
ENDBRANCH 112 115
ENDBRANCH 108 111
ENDBRANCH 105 108
ENDBRANCH 102 105
ENDBRANCH  99 102
ENDBRANCH  96  99
ENDBRANCH  93  96
ENDBRANCH  90  93
ENDBRANCH  87  90
ENDBRANCH  84  87
ENDBRANCH  81  84
ENDBRANCH   1  80
TORSDOF 44
