REMARK  12 active torsions:
REMARK  status: ('A' for Active; 'I' for Inactive)
REMARK    1  A    between atoms: C10_23  and  C1_1 
REMARK    2  A    between atoms: C4_11  and  N1_2 
REMARK    3  A    between atoms: S1_4  and  C10_23 
REMARK    4  A    between atoms: C11_25  and  S1_4 
REMARK    5  A    between atoms: C2_5  and  O2_7 
REMARK    6  A    between atoms: C3_8  and  O3_10 
REMARK    7  A    between atoms: C16_32  and  N6_17 
REMARK    8  A    between atoms: C19_34  and  N9_22 
REMARK    9  A    between atoms: C27_40  and  C16_32 
REMARK   10  A    between atoms: C18_33  and  C21_36 
REMARK   11  A    between atoms: N28_41  and  C18_33 
REMARK   12  A    between atoms: C27_40  and  N28_41 
ROOT
ATOM      1  N6  J1A d   1      15.140   3.743   5.812  0.00  0.00    -0.069 N 
ATOM      2  C11 J1A d   1      17.063   4.525   3.732  0.00  0.00    -0.006 C 
ATOM      3  C12 J1A d   1      15.705   3.959   3.303  0.00  0.00    -0.031 C 
ATOM      4  C13 J1A d   1      14.687   4.159   4.445  0.00  0.00     0.085 C 
ATOM      5  C14 J1A d   1      16.538   4.146   6.143  0.00  0.00     0.085 C 
ATOM      6  C15 J1A d   1      17.540   3.858   5.033  0.00  0.00    -0.031 C 
ATOM      7  H10 J1A d   1      14.562   4.277   6.442  0.00  0.00     0.279 HD
ATOM      8  H18 J1A d   1      16.968   5.609   3.891  0.00  0.00     0.056 H 
ATOM      9  H19 J1A d   1      15.806   2.886   3.085  0.00  0.00     0.037 H 
ATOM     10  H20 J1A d   1      15.355   4.485   2.402  0.00  0.00     0.037 H 
ATOM     11  H21 J1A d   1      14.434   5.229   4.486  0.00  0.00     0.076 H 
ATOM     12  H22 J1A d   1      13.786   3.578   4.198  0.00  0.00     0.076 H 
ATOM     13  H23 J1A d   1      16.852   3.599   7.044  0.00  0.00     0.076 H 
ATOM     14  H24 J1A d   1      16.548   5.227   6.348  0.00  0.00     0.076 H 
ATOM     15  H25 J1A d   1      18.524   4.261   5.313  0.00  0.00     0.037 H 
ATOM     16  H26 J1A d   1      17.618   2.771   4.881  0.00  0.00     0.037 H 
ENDROOT
BRANCH   2  17
ATOM     17  S1  J1A d   1      18.316   4.201   2.415  0.00  0.00    -0.162 SA
BRANCH  17  18
ATOM     18  C10 J1A d   1      19.200   5.758   2.158  0.00  0.00     0.004 C 
ATOM     19  H15 J1A d   1      19.090   6.011   1.093  0.00  0.00     0.052 H 
ATOM     20  H16 J1A d   1      18.689   6.516   2.770  0.00  0.00     0.052 H 
BRANCH  18  21
ATOM     21  C1  J1A d   1      20.703   5.866   2.485  0.00  0.00     0.076 C 
ATOM     22  O1  J1A d   1      20.962   5.696   3.864  0.00  0.00    -0.355 OA
ATOM     23  C4  J1A d   1      22.372   5.740   3.959  0.00  0.00     0.139 C 
ATOM     24  C3  J1A d   1      22.924   4.870   2.781  0.00  0.00     0.105 C 
ATOM     25  H8  J1A d   1      22.740   6.769   3.838  0.00  0.00     0.122 H 
ATOM     26  C2  J1A d   1      21.721   4.929   1.776  0.00  0.00     0.090 C 
ATOM     27  H4  J1A d   1      23.089   3.834   3.111  0.00  0.00     0.093 H 
ATOM     28  H2  J1A d   1      21.280   3.935   1.609  0.00  0.00     0.091 H 
ATOM     29  H1  J1A d   1      20.982   6.894   2.210  0.00  0.00     0.088 H 
BRANCH  23  30
ATOM     30  N1  J1A d   1      22.682   5.295   5.271  0.00  0.00    -0.294 N 
ATOM     31  C5  J1A d   1      23.202   6.110   6.258  0.00  0.00     0.071 A 
ATOM     32  N2  J1A d   1      23.374   5.470   7.397  0.00  0.00    -0.236 NA
ATOM     33  H9  J1A d   1      23.442   7.162   6.111  0.00  0.00     0.144 H 
ATOM     34  C6  J1A d   1      22.939   4.199   7.165  0.00  0.00     0.149 A 
ATOM     35  C7  J1A d   1      22.883   3.098   8.016  0.00  0.00     0.155 A 
ATOM     36  C9  J1A d   1      22.492   4.032   5.830  0.00  0.00     0.167 A 
ATOM     37  N3  J1A d   1      23.333   3.254   9.281  0.00  0.00    -0.382 N 
ATOM     38  N4  J1A d   1      22.401   1.892   7.519  0.00  0.00    -0.222 NA
ATOM     39  H5  J1A d   1      23.679   4.172   9.595  0.00  0.00     0.157 HD
ATOM     40  H6  J1A d   1      23.330   2.455   9.931  0.00  0.00     0.157 HD
ATOM     41  C8  J1A d   1      21.996   1.878   6.210  0.00  0.00     0.091 A 
ATOM     42  N5  J1A d   1      22.005   2.881   5.299  0.00  0.00    -0.222 NA
ATOM     43  H11 J1A d   1      21.614   0.929   5.852  0.00  0.00     0.146 H 
ENDBRANCH  23  30
BRANCH  24  44
ATOM     44  O3  J1A d   1      24.123   5.352   2.280  0.00  0.00    -0.388 OA
ATOM     45  H7  J1A d   1      24.375   4.842   1.519  0.00  0.00     0.210 HD
ENDBRANCH  24  44
BRANCH  26  46
ATOM     46  O2  J1A d   1      22.195   5.436   0.582  0.00  0.00    -0.390 OA
ATOM     47  H3  J1A d   1      22.633   6.264   0.742  0.00  0.00     0.210 HD
ENDBRANCH  26  46
ENDBRANCH  18  21
ENDBRANCH  17  18
ENDBRANCH   2  17
BRANCH   1  48
ATOM     48  C16 J1A d   1      14.857   2.325   6.151  0.00  0.00     0.106 C 
ATOM     49  H27 J1A d   1      15.701   1.889   6.705  0.00  0.00     0.078 H 
ATOM     50  H28 J1A d   1      14.678   1.741   5.236  0.00  0.00     0.078 H 
BRANCH  48  51
ATOM     51  C27 J1A d   1      13.591   2.344   7.030  0.00  0.00     0.104 C 
ATOM     52  H32 J1A d   1      13.598   3.219   7.697  0.00  0.00     0.078 H 
ATOM     53  H33 J1A d   1      13.526   1.425   7.631  0.00  0.00     0.078 H 
BRANCH  51  54
ATOM     54  N28 J1A d   1      12.452   2.425   6.077  0.00  0.00    -0.068 N 
ATOM     55  H34 J1A d   1      12.772   2.850   5.221  0.00  0.00     0.277 HD
ATOM     56  H35 J1A d   1      12.120   1.493   5.886  0.00  0.00     0.277 HD
BRANCH  54  57
ATOM     57  C18 J1A d   1      11.359   3.213   6.613  0.00  0.00     0.122 C 
ATOM     58  H29 J1A d   1      11.789   4.070   7.153  0.00  0.00     0.085 H 
ATOM     59  H30 J1A d   1      10.755   3.577   5.769  0.00  0.00     0.085 H 
BRANCH  57  60
ATOM     60  C21 J1A d   1      10.439   2.471   7.564  0.00  0.00     0.078 A 
ATOM     61  N11 J1A d   1      10.766   1.271   8.145  0.00  0.00    -0.241 NA
ATOM     62  C26 J1A d   1       9.796   0.761   8.985  0.00  0.00     0.172 A 
ATOM     63  C20 J1A d   1      10.072  -0.512   9.663  0.00  0.00     0.292 A 
ATOM     64  C25 J1A d   1       8.555   1.428   9.214  0.00  0.00     0.177 A 
ATOM     65  O4  J1A d   1      11.071  -1.191   9.570  0.00  0.00    -0.265 OA
ATOM     66  N10 J1A d   1       9.023  -0.982  10.518  0.00  0.00    -0.154 N 
ATOM     67  C19 J1A d   1       7.833  -0.255  10.669  0.00  0.00     0.680 A 
ATOM     68  H17 J1A d   1       9.141  -1.842  11.015  0.00  0.00     0.187 HD
ATOM     69  N8  J1A d   1       7.557   0.937  10.051  0.00  0.00    -0.172 N 
ATOM     70  H12 J1A d   1       6.668   1.437  10.197  0.00  0.00     0.186 HD
ATOM     71  N12 J1A d   1       8.254   2.647   8.587  0.00  0.00    -0.238 NA
ATOM     72  C22 J1A d   1       9.196   3.124   7.784  0.00  0.00     0.030 A 
ATOM     73  H31 J1A d   1       9.008   4.059   7.269  0.00  0.00     0.118 H 
BRANCH  67  74
ATOM     74  N9  J1A d   1       6.852  -0.758  11.498  0.00  0.00    -0.234 N 
ATOM     75  H13 J1A d   1       7.001  -1.650  11.990  0.00  0.00     0.174 HD
ATOM     76  H14 J1A d   1       5.970  -0.241  11.625  0.00  0.00     0.174 HD
ENDBRANCH  67  74
ENDBRANCH  57  60
ENDBRANCH  54  57
ENDBRANCH  51  54
ENDBRANCH  48  51
ENDBRANCH   1  48
TORSDOF 12
