REMARK  14 active torsions:
REMARK  status: ('A' for Active; 'I' for Inactive)
REMARK    1  A    between atoms: O4_24  and  C1_1 
REMARK    2  A    between atoms: C2_2  and  N_3 
REMARK    3  A    between atoms: N_3  and  S1_4 
REMARK    4  A    between atoms: C3_8  and  O3_9 
REMARK    5  A    between atoms: C4_10  and  O4_15 
REMARK    6  A    between atoms: C5_11  and  C6_13 
REMARK    7  A    between atoms: C6_13  and  O6_14 
REMARK    8  A    between atoms: O2_20  and  S_16 
REMARK    9  A    between atoms: C1_17  and  O1_18 
REMARK   10  A    between atoms: O1_18  and  C7_28 
REMARK   11  A    between atoms: C2_19  and  O2_20 
REMARK   12  A    between atoms: C3_21  and  O3_22 
REMARK   13  A    between atoms: C4_23  and  O4_24 
REMARK   14  A    between atoms: C5_25  and  C6_27 
ROOT
ATOM      1  O4  IDY d   1     -25.614 -13.497  60.795  0.00  0.00    -0.348 OA
ENDROOT
BRANCH   1   2
ATOM      2  C1  GNS d   1     -24.868 -13.810  59.640  0.00  0.00     0.155 C 
ATOM      3  C2  GNS d   1     -25.180 -12.800  58.543  0.00  0.00     0.097 C 
ATOM      4  C3  GNS d   1     -26.640 -12.891  58.117  0.00  0.00     0.087 C 
ATOM      5  H   GNS d   1     -24.557 -13.031  57.679  0.00  0.00     0.085 H 
ATOM      6  C4  GNS d   1     -27.044 -14.338  57.858  0.00  0.00     0.089 C 
ATOM      7  H   GNS d   1     -27.259 -12.498  58.923  0.00  0.00     0.090 H 
ATOM      8  C5  GNS d   1     -26.600 -15.241  59.002  0.00  0.00     0.089 C 
ATOM      9  H   GNS d   1     -26.556 -14.675  56.943  0.00  0.00     0.091 H 
ATOM     10  O5  GNS d   1     -25.210 -15.105  59.197  0.00  0.00    -0.349 OA
ATOM     11  H   GNS d   1     -27.134 -14.942  59.904  0.00  0.00     0.090 H 
ATOM     12  H   GNS d   1     -23.804 -13.774  59.874  0.00  0.00     0.132 H 
BRANCH   3  13
ATOM     13  N   GNS d   1     -24.881 -11.458  59.005  0.00  0.00    -0.289 N 
ATOM     14  H   GNS d   1     -25.201 -11.152  59.924  0.00  0.00     0.175 HD
BRANCH  13  15
ATOM     15  S1  GNS d   1     -24.050 -10.458  58.073  0.00  0.00     0.205 S 
ATOM     16  O1S GNS d   1     -22.640 -10.799  58.240  0.00  0.00    -0.578 OA
ATOM     17  O2S GNS d   1     -24.505 -10.682  56.704  0.00  0.00    -0.578 OA
ATOM     18  O3S GNS d   1     -24.342  -9.106  58.540  0.00  0.00    -0.578 OA
ENDBRANCH  13  15
ENDBRANCH   3  13
BRANCH   4  19
ATOM     19  O3  GNS d   1     -26.836 -12.132  56.945  0.00  0.00    -0.391 OA
ATOM     20  H   GNS d   1     -26.609 -11.215  57.117  0.00  0.00     0.210 HD
ENDBRANCH   4  19
BRANCH   6  21
ATOM     21  O4  GNS d   1     -28.444 -14.416  57.714  0.00  0.00    -0.390 OA
ATOM     22  H   GNS d   1     -28.723 -13.847  56.993  0.00  0.00     0.210 HD
ENDBRANCH   6  21
BRANCH   8  23
ATOM     23  C6  GNS d   1     -26.930 -16.699  58.706  0.00  0.00     0.043 C 
ATOM     24  H   GNS d   1     -27.680 -16.749  57.916  0.00  0.00     0.078 H 
ATOM     25  H   GNS d   1     -27.319 -17.174  59.607  0.00  0.00     0.078 H 
BRANCH  23  26
ATOM     26  O6  GNS d   1     -25.762 -17.370  58.288  0.00  0.00    -0.398 OA
ATOM     27  H   GNS d   1     -25.102 -17.326  58.984  0.00  0.00     0.209 HD
ENDBRANCH  23  26
ENDBRANCH   8  23
ENDBRANCH   1   2
BRANCH   1  28
ATOM     28  C4  IDY d   1     -25.875 -13.409  62.122  0.00  0.00     0.103 C 
ATOM     29  C3  IDY d   1     -25.348 -11.968  62.253  0.00  0.00     0.094 C 
ATOM     30  C2  IDY d   1     -26.398 -10.852  62.261  0.00  0.00     0.134 C 
ATOM     31  H   GNS d   1     -24.728 -11.825  61.368  0.00  0.00     0.091 H 
ATOM     32  C1  IDY d   1     -27.716 -11.289  62.913  0.00  0.00     0.160 C 
ATOM     33  H   GNS d   1     -25.977 -10.060  62.880  0.00  0.00     0.097 H 
ATOM     34  O5  IDY d   1     -28.169 -12.596  62.543  0.00  0.00    -0.340 OA
ATOM     35  H   GNS d   1     -28.446 -10.569  62.543  0.00  0.00     0.133 H 
ATOM     36  C5  IDY d   1     -27.238 -13.660  62.786  0.00  0.00     0.152 C 
ATOM     37  H   GNS d   1     -27.018 -13.768  63.848  0.00  0.00     0.104 H 
ATOM     38  H   GNS d   1     -25.456 -14.251  62.672  0.00  0.00     0.092 H 
BRANCH  29  39
ATOM     39  O3  IDY d   1     -24.681 -11.857  63.516  0.00  0.00    -0.390 OA
ATOM     40  H   GNS d   1     -24.276 -10.989  63.588  0.00  0.00     0.210 HD
ENDBRANCH  29  39
BRANCH  30  41
ATOM     41  O2  IDY d   1     -26.625 -10.295  60.959  0.00  0.00    -0.244 OA
BRANCH  41  42
ATOM     42  S   IDY d   1     -27.334  -8.937  60.763  0.00  0.00     0.252 S 
ATOM     43  OS1 IDY d   1     -27.901  -8.884  59.381  0.00  0.00    -0.572 OA
ATOM     44  OS2 IDY d   1     -26.299  -7.905  60.895  0.00  0.00    -0.572 OA
ATOM     45  OS3 IDY d   1     -28.403  -8.700  61.794  0.00  0.00    -0.572 OA
ENDBRANCH  41  42
ENDBRANCH  30  41
BRANCH  32  46
ATOM     46  O1  IDY d   1     -27.608 -11.265  64.332  0.00  0.00    -0.363 OA
BRANCH  46  47
ATOM     47  C7  IDY d   1     -27.028 -12.083  64.881  0.00  0.00     0.007 C 
ATOM     48  H   GNS d   1     -27.481 -13.052  64.670  0.00  0.00     0.066 H 
ATOM     49  H   GNS d   1     -25.992 -12.083  64.541  0.00  0.00     0.066 H 
ATOM     50  H   GNS d   1     -27.059 -11.891  65.954  0.00  0.00     0.066 H 
ENDBRANCH  46  47
ENDBRANCH  32  46
BRANCH  36  51
ATOM     51  C6  IDY d   1     -27.905 -14.865  62.192  0.00  0.00     0.206 C 
ATOM     52  O61 IDY d   1     -27.860 -15.936  62.881  0.00  0.00    -0.646 OA
ATOM     53  O62 IDY d   1     -28.539 -14.780  61.077  0.00  0.00    -0.646 OA
ENDBRANCH  36  51
ENDBRANCH   1  28
TORSDOF 14
