REMARK  15 active torsions:
REMARK  status: ('A' for Active; 'I' for Inactive)
REMARK    1  A    between atoms: N_1  and  S1_3 
REMARK    2  A    between atoms: C2_4  and  N_1 
REMARK    3  A    between atoms: O4_28  and  C1_2 
REMARK    4  A    between atoms: C3_5  and  O3_6 
REMARK    5  A    between atoms: O3_6  and  S12_14 
REMARK    6  A    between atoms: C4_7  and  O4_8 
REMARK    7  A    between atoms: C5_9  and  C6_11 
REMARK    8  A    between atoms: C6_11  and  O6_12 
REMARK    9  A    between atoms: O2_24  and  S_20 
REMARK   10  A    between atoms: C1_21  and  O1_22 
REMARK   11  A    between atoms: O1_22  and  C7_32 
REMARK   12  A    between atoms: C2_23  and  O2_24 
REMARK   13  A    between atoms: C3_25  and  O3_26 
REMARK   14  A    between atoms: C4_27  and  O4_28 
REMARK   15  A    between atoms: C5_29  and  C6_31 
ROOT
ATOM      1  C1  GNX d   1      26.561  -6.184 -21.587  0.00  0.00     0.155 C 
ATOM      2  C2  GNX d   1      26.591  -7.265 -22.661  0.00  0.00     0.098 C 
ATOM      3  C3  GNX d   1      27.922  -7.258 -23.404  0.00  0.00     0.111 C 
ATOM      4  C4  GNX d   1      28.300  -5.845 -23.834  0.00  0.00     0.091 C 
ATOM      5  C5  GNX d   1      28.148  -4.864 -22.678  0.00  0.00     0.089 C 
ATOM      6  O5  GNX d   1      26.833  -4.931 -22.173  0.00  0.00    -0.349 OA
ATOM      7  H   GNX d   1      25.575  -6.161 -21.122  0.00  0.00     0.132 H 
ATOM      8  H   GNX d   1      25.797  -7.056 -23.378  0.00  0.00     0.085 H 
ATOM      9  H   GNX d   1      28.694  -7.633 -22.732  0.00  0.00     0.093 H 
ATOM     10  H   GNX d   1      27.630  -5.538 -24.637  0.00  0.00     0.091 H 
ATOM     11  H   GNX d   1      28.860  -5.137 -21.899  0.00  0.00     0.090 H 
ENDROOT
BRANCH   1  12
ATOM     12  O4  IDY d   1      27.535  -6.467 -20.608  0.00  0.00    -0.348 OA
BRANCH  12  13
ATOM     13  C4  IDY d   1      26.917  -6.341 -19.133  0.00  0.00     0.103 C 
ATOM     14  C3  IDY d   1      26.347  -7.711 -18.731  0.00  0.00     0.094 C 
ATOM     15  C2  IDY d   1      27.391  -8.784 -18.395  0.00  0.00     0.134 C 
ATOM     16  H   GNX d   1      25.814  -8.063 -19.614  0.00  0.00     0.091 H 
ATOM     17  C1  IDY d   1      28.539  -8.163 -17.596  0.00  0.00     0.160 C 
ATOM     18  H   GNX d   1      26.906  -9.530 -17.765  0.00  0.00     0.097 H 
ATOM     19  O5  IDY d   1      29.060  -6.928 -18.095  0.00  0.00    -0.340 OA
ATOM     20  H   GNX d   1      29.491  -8.645 -17.819  0.00  0.00     0.133 H 
ATOM     21  C5  IDY d   1      28.135  -5.867 -18.331  0.00  0.00     0.152 C 
ATOM     22  H   GNX d   1      27.751  -5.463 -17.394  0.00  0.00     0.104 H 
ATOM     23  H   GNX d   1      26.080  -5.657 -18.993  0.00  0.00     0.092 H 
BRANCH  14  24
ATOM     24  O3  IDY d   1      25.485  -7.556 -17.585  0.00  0.00    -0.390 OA
ATOM     25  H   GNX d   1      25.053  -8.392 -17.395  0.00  0.00     0.210 HD
ENDBRANCH  14  24
BRANCH  15  26
ATOM     26  O2  IDY d   1      27.837  -9.541 -19.544  0.00  0.00    -0.244 OA
BRANCH  26  27
ATOM     27  S   IDY d   1      28.425 -10.982 -19.438  0.00  0.00     0.252 S 
ATOM     28  OS1 IDY d   1      29.189 -11.279 -20.668  0.00  0.00    -0.572 OA
ATOM     29  OS2 IDY d   1      27.349 -11.995 -19.341  0.00  0.00    -0.572 OA
ATOM     30  OS3 IDY d   1      29.354 -11.127 -18.258  0.00  0.00    -0.572 OA
ENDBRANCH  26  27
ENDBRANCH  15  26
BRANCH  17  31
ATOM     31  O1  IDY d   1      28.813  -8.719 -16.131  0.00  0.00    -0.363 OA
BRANCH  31  32
ATOM     32  C7  IDY d   1      28.860  -8.523 -15.176  0.00  0.00     0.007 C 
ATOM     33  H   GNX d   1      29.616  -7.757 -15.000  0.00  0.00     0.066 H 
ATOM     34  H   GNX d   1      27.890  -8.164 -14.832  0.00  0.00     0.066 H 
ATOM     35  H   GNX d   1      29.127  -9.430 -14.633  0.00  0.00     0.066 H 
ENDBRANCH  31  32
ENDBRANCH  17  31
BRANCH  21  36
ATOM     36  C6  IDY d   1      28.910  -4.865 -19.145  0.00  0.00     0.206 C 
ATOM     37  O61 IDY d   1      28.772  -3.592 -18.893  0.00  0.00    -0.646 OA
ATOM     38  O62 IDY d   1      29.719  -5.266 -20.031  0.00  0.00    -0.646 OA
ENDBRANCH  21  36
ENDBRANCH  12  13
ENDBRANCH   1  12
BRANCH   2  39
ATOM     39  N   GNX d   1      26.364  -8.566 -22.063  0.00  0.00    -0.289 N 
ATOM     40  H   GNX d   1      27.091  -9.000 -21.495  0.00  0.00     0.175 HD
BRANCH  39  41
ATOM     41  S1  GNX d   1      24.972  -9.320 -22.295  0.00  0.00     0.205 S 
ATOM     42  O1S GNX d   1      24.709  -9.288 -23.731  0.00  0.00    -0.578 OA
ATOM     43  O2S GNX d   1      25.140 -10.680 -21.792  0.00  0.00    -0.578 OA
ATOM     44  O3S GNX d   1      23.962  -8.582 -21.541  0.00  0.00    -0.578 OA
ENDBRANCH  39  41
ENDBRANCH   2  39
BRANCH   3  45
ATOM     45  O3  GNX d   1      27.830  -8.086 -24.542  0.00  0.00    -0.246 OA
BRANCH  45  46
ATOM     46  S12 GNX d   1      28.659  -8.947 -25.245  0.00  0.00     0.252 S 
ATOM     47  O12 GNX d   1      28.025  -9.391 -26.532  0.00  0.00    -0.572 OA
ATOM     48  O22 GNX d   1      30.087  -8.756 -25.502  0.00  0.00    -0.572 OA
ATOM     49  O32 GNX d   1      28.556 -10.055 -24.290  0.00  0.00    -0.572 OA
ENDBRANCH  45  46
ENDBRANCH   3  45
BRANCH   5  50
ATOM     50  C6  GNX d   1      28.447  -3.439 -23.128  0.00  0.00     0.043 C 
ATOM     51  H   GNX d   1      28.384  -3.380 -24.215  0.00  0.00     0.078 H 
ATOM     52  H   GNX d   1      29.450  -3.159 -22.807  0.00  0.00     0.078 H 
BRANCH  50  53
ATOM     53  O6  GNX d   1      27.507  -2.558 -22.554  0.00  0.00    -0.398 OA
ATOM     54  H   GNX d   1      26.624  -2.805 -22.837  0.00  0.00     0.209 HD
ENDBRANCH  50  53
ENDBRANCH   5  50
BRANCH   4  55
ATOM     55  O4  GNX d   1      29.635  -5.833 -24.288  0.00  0.00    -0.390 OA
ATOM     56  H   GNX d   1      29.723  -6.430 -25.035  0.00  0.00     0.210 HD
ENDBRANCH   4  55
TORSDOF 15
