REMARK  15 active torsions:
REMARK  status: ('A' for Active; 'I' for Inactive)
REMARK    1  A    between atoms: O4_28  and  C1_1 
REMARK    2  A    between atoms: C2_2  and  N_7 
REMARK    3  A    between atoms: C3_3  and  O3_8 
REMARK    4  A    between atoms: C4_4  and  O4_9 
REMARK    5  A    between atoms: C5_5  and  C6_6 
REMARK    6  A    between atoms: C6_6  and  O6_11 
REMARK    7  A    between atoms: N_7  and  S1_12 
REMARK    8  A    between atoms: O6_11  and  S2_16 
REMARK    9  A    between atoms: O2_24  and  S_20 
REMARK   10  A    between atoms: C1_21  and  O1_22 
REMARK   11  A    between atoms: O1_22  and  C7_32 
REMARK   12  A    between atoms: C2_23  and  O2_24 
REMARK   13  A    between atoms: C3_25  and  O3_26 
REMARK   14  A    between atoms: C4_27  and  O4_28 
REMARK   15  A    between atoms: C5_29  and  C6_31 
ROOT
ATOM      1  C1  SGN d   1     -39.438  -4.987  17.886  0.00  0.00     0.155 C 
ATOM      2  C2  SGN d   1     -40.818  -4.485  17.460  0.00  0.00     0.097 C 
ATOM      3  C3  SGN d   1     -41.837  -4.898  18.504  0.00  0.00     0.087 C 
ATOM      4  C4  SGN d   1     -41.739  -6.383  18.720  0.00  0.00     0.089 C 
ATOM      5  C5  SGN d   1     -40.326  -6.849  19.049  0.00  0.00     0.090 C 
ATOM      6  O5  SGN d   1     -39.417  -6.388  18.088  0.00  0.00    -0.349 OA
ATOM      7  H   SGN d   1     -38.748  -4.746  17.077  0.00  0.00     0.132 H 
ATOM      8  H   SGN d   1     -41.085  -4.919  16.497  0.00  0.00     0.085 H 
ATOM      9  H   SGN d   1     -41.612  -4.310  19.394  0.00  0.00     0.090 H 
ATOM     10  H   SGN d   1     -41.992  -6.955  17.827  0.00  0.00     0.091 H 
ATOM     11  H   SGN d   1     -40.079  -6.461  20.037  0.00  0.00     0.090 H 
ENDROOT
BRANCH   1  12
ATOM     12  O4  IDY d   1     -39.044  -4.356  19.076  0.00  0.00    -0.348 OA
BRANCH  12  13
ATOM     13  C4  IDY d   1     -37.785  -3.666  19.536  0.00  0.00     0.103 C 
ATOM     14  C3  IDY d   1     -37.617  -2.365  18.828  0.00  0.00     0.094 C 
ATOM     15  C2  IDY d   1     -38.137  -1.163  19.549  0.00  0.00     0.134 C 
ATOM     16  H   SGN d   1     -38.218  -2.466  17.925  0.00  0.00     0.091 H 
ATOM     17  C1  IDY d   1     -38.042  -1.250  21.050  0.00  0.00     0.160 C 
ATOM     18  H   SGN d   1     -37.493  -0.353  19.206  0.00  0.00     0.097 H 
ATOM     19  O5  IDY d   1     -38.439  -2.480  21.620  0.00  0.00    -0.340 OA
ATOM     20  H   SGN d   1     -38.831  -0.589  21.410  0.00  0.00     0.133 H 
ATOM     21  C5  IDY d   1     -37.773  -3.621  21.056  0.00  0.00     0.152 C 
ATOM     22  H   SGN d   1     -36.714  -3.600  21.314  0.00  0.00     0.104 H 
ATOM     23  H   SGN d   1     -36.889  -4.223  19.261  0.00  0.00     0.092 H 
BRANCH  14  24
ATOM     24  O3  IDY d   1     -36.177  -2.136  18.540  0.00  0.00    -0.390 OA
ATOM     25  H   SGN d   1     -36.082  -1.353  17.993  0.00  0.00     0.210 HD
ENDBRANCH  14  24
BRANCH  15  26
ATOM     26  O2  IDY d   1     -39.523  -0.915  19.229  0.00  0.00    -0.244 OA
BRANCH  26  27
ATOM     27  S   IDY d   1     -40.107   0.456  19.484  0.00  0.00     0.252 S 
ATOM     28  OS1 IDY d   1     -41.574   0.357  19.443  0.00  0.00    -0.572 OA
ATOM     29  OS2 IDY d   1     -39.643   1.365  18.413  0.00  0.00    -0.572 OA
ATOM     30  OS3 IDY d   1     -39.625   0.999  20.798  0.00  0.00    -0.572 OA
ENDBRANCH  26  27
ENDBRANCH  15  26
BRANCH  17  31
ATOM     31  O1  IDY d   1     -37.000  -0.762  21.501  0.00  0.00    -0.363 OA
BRANCH  31  32
ATOM     32  C7  IDY d   1     -35.673  -0.290  21.637  0.00  0.00     0.007 C 
ATOM     33  H   SGN d   1     -34.977  -1.110  21.460  0.00  0.00     0.066 H 
ATOM     34  H   SGN d   1     -35.494   0.503  20.910  0.00  0.00     0.066 H 
ATOM     35  H   SGN d   1     -35.529   0.100  22.645  0.00  0.00     0.066 H 
ENDBRANCH  31  32
ENDBRANCH  17  31
BRANCH  21  36
ATOM     36  C6  IDY d   1     -38.525  -4.806  21.617  0.00  0.00     0.206 C 
ATOM     37  O61 IDY d   1     -37.849  -5.661  22.341  0.00  0.00    -0.646 OA
ATOM     38  O62 IDY d   1     -39.848  -4.607  21.772  0.00  0.00    -0.646 OA
ENDBRANCH  21  36
ENDBRANCH  12  13
ENDBRANCH   1  12
BRANCH   2  39
ATOM     39  N   SGN d   1     -40.800  -3.050  17.329  0.00  0.00    -0.289 N 
ATOM     40  H   SGN d   1     -40.720  -2.456  18.154  0.00  0.00     0.175 HD
BRANCH  39  41
ATOM     41  S1  SGN d   1     -40.906  -2.412  15.892  0.00  0.00     0.205 S 
ATOM     42  O1S SGN d   1     -41.426  -1.084  16.006  0.00  0.00    -0.578 OA
ATOM     43  O2S SGN d   1     -41.820  -3.266  15.210  0.00  0.00    -0.578 OA
ATOM     44  O3S SGN d   1     -39.612  -2.465  15.279  0.00  0.00    -0.578 OA
ENDBRANCH  39  41
ENDBRANCH   2  39
BRANCH   3  45
ATOM     45  O3  SGN d   1     -43.169  -4.657  18.112  0.00  0.00    -0.391 OA
ATOM     46  H   SGN d   1     -43.764  -4.949  18.807  0.00  0.00     0.210 HD
ENDBRANCH   3  45
BRANCH   5  47
ATOM     47  C6  SGN d   1     -40.255  -8.358  19.011  0.00  0.00     0.067 C 
ATOM     48  H   SGN d   1     -41.254  -8.782  19.116  0.00  0.00     0.080 H 
ATOM     49  H   SGN d   1     -39.639  -8.724  19.833  0.00  0.00     0.080 H 
BRANCH  47  50
ATOM     50  O6  SGN d   1     -39.694  -8.744  17.779  0.00  0.00    -0.254 OA
BRANCH  50  51
ATOM     51  S2  SGN d   1     -38.934 -10.090  17.747  0.00  0.00     0.251 S 
ATOM     52  O4S SGN d   1     -38.702 -10.458  16.366  0.00  0.00    -0.572 OA
ATOM     53  O5S SGN d   1     -39.828 -11.001  18.410  0.00  0.00    -0.572 OA
ATOM     54  O6S SGN d   1     -37.693  -9.942  18.496  0.00  0.00    -0.572 OA
ENDBRANCH  50  51
ENDBRANCH  47  50
ENDBRANCH   5  47
BRANCH   4  55
ATOM     55  O4  SGN d   1     -42.611  -6.583  19.794  0.00  0.00    -0.390 OA
ATOM     56  H   SGN d   1     -43.489  -6.279  19.553  0.00  0.00     0.210 HD
ENDBRANCH   4  55
TORSDOF 15
