REMARK  16 active torsions:
REMARK  status: ('A' for Active; 'I' for Inactive)
REMARK    1  A    between atoms: N_1  and  S1_3 
REMARK    2  A    between atoms: C2_4  and  N_1 
REMARK    3  A    between atoms: O4_32  and  C1_2 
REMARK    4  A    between atoms: O6_14  and  S2_5 
REMARK    5  A    between atoms: C3_6  and  O3_7 
REMARK    6  A    between atoms: O3_7  and  S3_8 
REMARK    7  A    between atoms: C4_9  and  O4_10 
REMARK    8  A    between atoms: C5_11  and  C6_13 
REMARK    9  A    between atoms: C6_13  and  O6_14 
REMARK   10  A    between atoms: O2_28  and  S_24 
REMARK   11  A    between atoms: C1_25  and  O1_26 
REMARK   12  A    between atoms: O1_26  and  C7_36 
REMARK   13  A    between atoms: C2_27  and  O2_28 
REMARK   14  A    between atoms: C3_29  and  O3_30 
REMARK   15  A    between atoms: C4_31  and  O4_32 
REMARK   16  A    between atoms: C5_33  and  C6_35 
ROOT
ATOM      1  C1  SUS d   1      -2.321  12.358  17.367  0.00  0.00     0.155 C 
ATOM      2  C2  SUS d   1      -2.214  11.456  16.143  0.00  0.00     0.098 C 
ATOM      3  C3  SUS d   1      -0.947  11.757  15.351  0.00  0.00     0.111 C 
ATOM      4  C4  SUS d   1      -0.791  13.256  15.121  0.00  0.00     0.091 C 
ATOM      5  C5  SUS d   1      -0.999  14.033  16.416  0.00  0.00     0.090 C 
ATOM      6  O5  SUS d   1      -2.257  13.707  16.963  0.00  0.00    -0.349 OA
ATOM      7  H   SUS d   1      -3.269  12.174  17.873  0.00  0.00     0.132 H 
ATOM      8  H   SUS d   1      -3.072  11.651  15.500  0.00  0.00     0.085 H 
ATOM      9  H   SUS d   1      -0.089  11.405  15.924  0.00  0.00     0.093 H 
ATOM     10  H   SUS d   1      -1.546  13.575  14.403  0.00  0.00     0.091 H 
ATOM     11  H   SUS d   1      -0.207  13.759  17.113  0.00  0.00     0.090 H 
ENDROOT
BRANCH   1  12
ATOM     12  O4  IDY d   1      -1.256  12.081  18.248  0.00  0.00    -0.348 OA
BRANCH  12  13
ATOM     13  C4  IDY d   1      -0.686  12.518  19.810  0.00  0.00     0.103 C 
ATOM     14  C3  IDY d   1      -1.434  11.299  20.270  0.00  0.00     0.094 C 
ATOM     15  C2  IDY d   1      -0.866   9.921  20.318  0.00  0.00     0.134 C 
ATOM     16  H   SUS d   1      -1.488  11.264  19.182  0.00  0.00     0.091 H 
ATOM     17  C1  IDY d   1       0.494  10.029  20.969  0.00  0.00     0.160 C 
ATOM     18  H   SUS d   1      -1.572   9.295  20.864  0.00  0.00     0.097 H 
ATOM     19  O5  IDY d   1       1.278  11.179  20.560  0.00  0.00    -0.340 OA
ATOM     20  H   SUS d   1       1.183   9.235  20.682  0.00  0.00     0.133 H 
ATOM     21  C5  IDY d   1       0.700  12.514  20.456  0.00  0.00     0.152 C 
ATOM     22  H   SUS d   1       0.604  12.889  21.475  0.00  0.00     0.104 H 
ATOM     23  H   SUS d   1      -0.763  13.590  19.991  0.00  0.00     0.092 H 
BRANCH  14  24
ATOM     24  O3  IDY d   1      -2.744  11.479  20.996  0.00  0.00    -0.390 OA
ATOM     25  H   SUS d   1      -3.032  12.391  20.912  0.00  0.00     0.210 HD
ENDBRANCH  14  24
BRANCH  15  26
ATOM     26  O2  IDY d   1      -0.684   9.304  19.015  0.00  0.00    -0.244 OA
BRANCH  26  27
ATOM     27  S   IDY d   1      -0.383   7.784  18.953  0.00  0.00     0.252 S 
ATOM     28  OS1 IDY d   1       0.142   7.466  17.600  0.00  0.00    -0.572 OA
ATOM     29  OS2 IDY d   1      -1.627   7.035  19.218  0.00  0.00    -0.572 OA
ATOM     30  OS3 IDY d   1       0.609   7.378  19.990  0.00  0.00    -0.572 OA
ENDBRANCH  26  27
ENDBRANCH  15  26
BRANCH  17  31
ATOM     31  O1  IDY d   1       0.117  10.004  22.413  0.00  0.00    -0.363 OA
BRANCH  31  32
ATOM     32  C7  IDY d   1       1.406  10.630  22.955  0.00  0.00     0.007 C 
ATOM     33  H   SUS d   1       2.255  10.002  22.684  0.00  0.00     0.066 H 
ATOM     34  H   SUS d   1       1.535  11.623  22.524  0.00  0.00     0.066 H 
ATOM     35  H   SUS d   1       1.342  10.709  24.040  0.00  0.00     0.066 H 
ENDBRANCH  31  32
ENDBRANCH  17  31
BRANCH  21  36
ATOM     36  C6  IDY d   1       1.604  13.392  19.612  0.00  0.00     0.206 C 
ATOM     37  O61 IDY d   1       2.210  12.929  18.585  0.00  0.00    -0.646 OA
ATOM     38  O62 IDY d   1       1.858  14.649  19.950  0.00  0.00    -0.646 OA
ENDBRANCH  21  36
ENDBRANCH  12  13
ENDBRANCH   1  12
BRANCH   2  39
ATOM     39  N   SUS d   1      -2.226  10.065  16.549  0.00  0.00    -0.289 N 
ATOM     40  H   SUS d   1      -1.402   9.655  16.989  0.00  0.00     0.175 HD
BRANCH  39  41
ATOM     41  S1  SUS d   1      -3.531   9.172  16.307  0.00  0.00     0.205 S 
ATOM     42  O1S SUS d   1      -4.676   9.979  16.717  0.00  0.00    -0.578 OA
ATOM     43  O2S SUS d   1      -3.561   8.849  14.883  0.00  0.00    -0.578 OA
ATOM     44  O3S SUS d   1      -3.385   7.977  17.133  0.00  0.00    -0.578 OA
ENDBRANCH  39  41
ENDBRANCH   2  39
BRANCH   3  45
ATOM     45  O3  SUS d   1      -1.001  11.094  14.109  0.00  0.00    -0.246 OA
BRANCH  45  46
ATOM     46  S3  SUS d   1      -0.430   9.831  13.778  0.00  0.00     0.252 S 
ATOM     47  O7S SUS d   1       0.773  10.136  13.048  0.00  0.00    -0.572 OA
ATOM     48  O8S SUS d   1      -0.086   8.840  14.771  0.00  0.00    -0.572 OA
ATOM     49  O9S SUS d   1      -1.349   9.276  12.808  0.00  0.00    -0.572 OA
ENDBRANCH  45  46
ENDBRANCH   3  45
BRANCH   5  50
ATOM     50  C6  SUS d   1      -0.924  15.534  16.171  0.00  0.00     0.067 C 
ATOM     51  H   SUS d   1      -0.752  15.721  15.111  0.00  0.00     0.080 H 
ATOM     52  H   SUS d   1      -0.104  15.957  16.752  0.00  0.00     0.080 H 
BRANCH  50  53
ATOM     53  O6  SUS d   1      -2.137  16.135  16.563  0.00  0.00    -0.254 OA
BRANCH  53  54
ATOM     54  S2  SUS d   1      -2.752  17.284  15.705  0.00  0.00     0.251 S 
ATOM     55  O4S SUS d   1      -2.072  17.266  14.413  0.00  0.00    -0.572 OA
ATOM     56  O5S SUS d   1      -4.172  16.988  15.544  0.00  0.00    -0.572 OA
ATOM     57  O6S SUS d   1      -2.527  18.531  16.431  0.00  0.00    -0.572 OA
ENDBRANCH  53  54
ENDBRANCH  50  53
ENDBRANCH   5  50
BRANCH   4  58
ATOM     58  O4  SUS d   1       0.499  13.522  14.616  0.00  0.00    -0.390 OA
ATOM     59  H   SUS d   1       0.619  13.056  13.785  0.00  0.00     0.210 HD
ENDBRANCH   4  58
TORSDOF 16
