REMARK  3 active torsions:
REMARK  status: ('A' for Active; 'I' for Inactive)
REMARK    1  A    between atoms: C7_11  and  C9_8 
REMARK    2  A    between atoms: C9_8  and  O11_18 
REMARK    3  A    between atoms: O11_18  and  C18_13 
ROOT
ATOM      1  C5  092 d   1      26.568  37.947  40.734  0.00  0.00    -0.082 A 
ATOM      2  C8  092 d   1      27.180  38.094  41.962  0.00  0.00    -0.081 A 
ATOM      3  C3  092 d   1      25.253  37.535  40.646  0.00  0.00    -0.073 A 
ATOM      4  C6  092 d   1      26.481  37.864  43.121  0.00  0.00    -0.057 A 
ATOM      5  C1  092 d   1      24.556  37.314  41.808  0.00  0.00    -0.012 A 
ATOM      6  C17 092 d   1      25.175  37.458  43.010  0.00  0.00     0.042 A 
ATOM      7  C14 092 d   1      23.087  36.685  43.507  0.00  0.00     0.237 A 
ATOM      8  C4  092 d   1      22.093  37.846  41.583  0.00  0.00    -0.008 C 
ATOM      9  C13 092 d   1      22.901  35.561  41.246  0.00  0.00     0.102 C 
ATOM     10  C7  092 d   1      20.979  37.018  40.976  0.00  0.00     0.186 C 
ATOM     11  C2  092 d   1      23.153  36.850  42.005  0.00  0.00     0.096 A 
ATOM     12  N16 092 d   1      24.290  37.119  44.042  0.00  0.00    -0.326 N 
ATOM     13  N10 092 d   1      21.636  35.777  40.476  0.00  0.00    -0.060 N 
ATOM     14  O15 092 d   1      22.083  36.365  44.135  0.00  0.00    -0.272 OA
ATOM     15  H   092 d   1      27.129  38.158  39.824  0.00  0.00     0.083 H 
ATOM     16  H   092 d   1      28.226  38.395  42.012  0.00  0.00     0.083 H 
ATOM     17  H   092 d   1      24.779  37.389  39.675  0.00  0.00     0.084 H 
ATOM     18  H   092 d   1      26.948  37.999  44.097  0.00  0.00     0.086 H 
ATOM     19  H   092 d   1      21.738  38.434  42.429  0.00  0.00     0.039 H 
ATOM     20  H   092 d   1      22.487  38.570  40.870  0.00  0.00     0.039 H 
ATOM     21  H   092 d   1      22.810  34.714  41.926  0.00  0.00     0.078 H 
ATOM     22  H   092 d   1      23.732  35.325  40.582  0.00  0.00     0.078 H 
ATOM     23  H   092 d   1      20.484  37.609  40.206  0.00  0.00     0.100 H 
ATOM     24  H   092 d   1      24.500  37.182  45.038  0.00  0.00     0.169 HD
ATOM     25  H   092 d   1      21.013  34.980  40.602  0.00  0.00     0.278 HD
ATOM     26  H   092 d   1      21.847  35.872  39.483  0.00  0.00     0.278 HD
ENDROOT
BRANCH  10  27
ATOM     27  C9  092 d   1      19.892  36.630  41.945  0.00  0.00     0.289 C 
ATOM     28  O12 092 d   1      19.462  35.496  42.055  0.00  0.00    -0.263 OA
BRANCH  27  29
ATOM     29  O11 092 d   1      19.396  37.679  42.644  0.00  0.00    -0.325 OA
BRANCH  29  30
ATOM     30  C18 092 d   1      18.456  37.184  43.594  0.00  0.00     0.013 C 
ATOM     31  H   092 d   1      17.650  36.669  43.071  0.00  0.00     0.067 H 
ATOM     32  H   092 d   1      18.955  36.489  44.269  0.00  0.00     0.067 H 
ATOM     33  H   092 d   1      18.047  38.017  44.166  0.00  0.00     0.067 H 
ENDBRANCH  29  30
ENDBRANCH  27  29
ENDBRANCH  10  27
TORSDOF 3
