REMARK  3 active torsions:
REMARK  status: ('A' for Active; 'I' for Inactive)
REMARK    1  A    between atoms: C9_8  and  C7_15 
REMARK    2  A    between atoms: O11_23  and  C9_8 
REMARK    3  A    between atoms: C18_16  and  O11_23 
ROOT
ATOM      1  C5  095 d   1      26.876  37.995  40.965  0.00  0.00    -0.082 A 
ATOM      2  C8  095 d   1      27.478  38.051  42.209  0.00  0.00    -0.081 A 
ATOM      3  C3  095 d   1      25.536  37.695  40.837  0.00  0.00    -0.073 A 
ATOM      4  C6  095 d   1      26.763  37.780  43.356  0.00  0.00    -0.057 A 
ATOM      5  C1  095 d   1      24.825  37.452  41.986  0.00  0.00    -0.012 A 
ATOM      6  C17 095 d   1      25.434  37.477  43.207  0.00  0.00     0.042 A 
ATOM      7  C14 095 d   1      23.286  36.937  43.635  0.00  0.00     0.237 A 
ATOM      8  C4  095 d   1      22.430  38.100  41.645  0.00  0.00    -0.008 C 
ATOM      9  C13 095 d   1      23.097  35.766  41.443  0.00  0.00     0.102 C 
ATOM     10  C7  095 d   1      21.249  37.300  41.169  0.00  0.00     0.186 C 
ATOM     11  C2  095 d   1      23.408  37.072  42.139  0.00  0.00     0.096 A 
ATOM     12  N16 095 d   1      24.516  37.188  44.213  0.00  0.00    -0.326 N 
ATOM     13  N10 095 d   1      21.842  36.022  40.696  0.00  0.00    -0.060 N 
ATOM     14  O15 095 d   1      22.245  36.670  44.216  0.00  0.00    -0.272 OA
ATOM     15  H   095 d   1      27.470  38.191  40.072  0.00  0.00     0.083 H 
ATOM     16  H   095 d   1      28.533  38.313  42.283  0.00  0.00     0.083 H 
ATOM     17  H   095 d   1      25.058  37.652  39.858  0.00  0.00     0.084 H 
ATOM     18  H   095 d   1      27.234  37.806  44.339  0.00  0.00     0.086 H 
ATOM     19  H   095 d   1      22.154  38.809  42.425  0.00  0.00     0.039 H 
ATOM     20  H   095 d   1      22.852  38.716  40.851  0.00  0.00     0.039 H 
ATOM     21  H   095 d   1      22.986  34.946  42.152  0.00  0.00     0.078 H 
ATOM     22  H   095 d   1      23.906  35.457  40.781  0.00  0.00     0.078 H 
ATOM     23  H   095 d   1      20.672  37.797  40.389  0.00  0.00     0.100 H 
ATOM     24  H   095 d   1      24.718  37.165  45.212  0.00  0.00     0.169 HD
ATOM     25  H   095 d   1      21.185  35.258  40.856  0.00  0.00     0.278 HD
ATOM     26  H   095 d   1      22.043  36.085  39.698  0.00  0.00     0.278 HD
ENDROOT
BRANCH  10  27
ATOM     27  C9  095 d   1      20.322  37.055  42.330  0.00  0.00     0.290 C 
ATOM     28  O12 095 d   1      19.765  37.934  42.968  0.00  0.00    -0.263 OA
BRANCH  27  29
ATOM     29  O11 095 d   1      20.214  35.722  42.589  0.00  0.00    -0.314 OA
BRANCH  29  30
ATOM     30  C18 095 d   1      19.450  35.440  43.757  0.00  0.00     0.052 C 
ATOM     31  C19 095 d   1      19.872  34.033  44.160  0.00  0.00    -0.020 C 
ATOM     32  C20 095 d   1      18.755  33.165  44.701  0.00  0.00     0.022 C 
ATOM     33  H   095 d   1      20.244  33.544  43.260  0.00  0.00     0.040 H 
ATOM     34  H   095 d   1      20.605  34.139  44.959  0.00  0.00     0.040 H 
ATOM     35  O21 095 d   1      17.591  33.306  43.905  0.00  0.00    -0.391 OA
ATOM     36  H   095 d   1      18.527  33.474  45.721  0.00  0.00     0.074 H 
ATOM     37  H   095 d   1      19.074  32.123  44.682  0.00  0.00     0.074 H 
ATOM     38  C22 095 d   1      17.113  34.619  44.146  0.00  0.00     0.022 C 
ATOM     39  C23 095 d   1      17.989  35.576  43.372  0.00  0.00    -0.020 C 
ATOM     40  H   095 d   1      16.076  34.710  43.825  0.00  0.00     0.074 H 
ATOM     41  H   095 d   1      17.151  34.847  45.211  0.00  0.00     0.074 H 
ATOM     42  H   095 d   1      17.669  36.593  43.598  0.00  0.00     0.040 H 
ATOM     43  H   095 d   1      17.892  35.347  42.311  0.00  0.00     0.040 H 
ATOM     44  H   095 d   1      19.607  36.106  44.605  0.00  0.00     0.084 H 
ENDBRANCH  29  30
ENDBRANCH  27  29
ENDBRANCH  10  27
TORSDOF 3
