REMARK  4 active torsions:
REMARK  status: ('A' for Active; 'I' for Inactive)
REMARK    1  A    between atoms: C18_19  and  C19_11 
REMARK    2  A    between atoms: C9_14  and  C7_17 
REMARK    3  A    between atoms: O11_24  and  C9_14 
REMARK    4  A    between atoms: C18_19  and  O11_24 
ROOT
ATOM      1  C5  09A d   1      26.555  37.410  40.196  0.00  0.00    -0.082 A 
ATOM      2  C8  09A d   1      27.094  37.570  41.473  0.00  0.00    -0.081 A 
ATOM      3  C3  09A d   1      25.234  36.989  40.062  0.00  0.00    -0.073 A 
ATOM      4  C6  09A d   1      26.338  37.312  42.599  0.00  0.00    -0.057 A 
ATOM      5  C1  09A d   1      24.465  36.769  41.195  0.00  0.00    -0.012 A 
ATOM      6  C17 09A d   1      25.019  36.906  42.466  0.00  0.00     0.042 A 
ATOM      7  C14 09A d   1      23.004  36.121  42.731  0.00  0.00     0.237 C 
ATOM      8  C4  09A d   1      22.060  37.463  40.900  0.00  0.00    -0.008 C 
ATOM      9  C13 09A d   1      22.727  35.131  40.429  0.00  0.00     0.102 C 
ATOM     10  C7  09A d   1      20.915  36.733  40.239  0.00  0.00     0.186 C 
ATOM     11  C2  09A d   1      23.046  36.369  41.255  0.00  0.00     0.096 C 
ATOM     12  N16 09A d   1      24.063  36.624  43.384  0.00  0.00    -0.326 N 
ATOM     13  N10 09A d   1      21.501  35.491  39.778  0.00  0.00    -0.060 N 
ATOM     14  O15 09A d   1      21.884  36.108  43.334  0.00  0.00    -0.272 OA
ATOM     15  H2  09A d   1      27.158  37.611  39.318  0.00  0.00     0.083 H 
ATOM     16  H5  09A d   1      28.120  37.901  41.583  0.00  0.00     0.083 H 
ATOM     17  H6  09A d   1      24.809  36.834  39.077  0.00  0.00     0.084 H 
ATOM     18  H9  09A d   1      26.774  37.427  43.585  0.00  0.00     0.086 H 
ATOM     19  H10 09A d   1      21.718  37.987  41.804  0.00  0.00     0.039 H 
ATOM     20  H11 09A d   1      22.514  38.186  40.206  0.00  0.00     0.039 H 
ATOM     21  H12 09A d   1      22.590  34.250  41.073  0.00  0.00     0.078 H 
ATOM     22  H13 09A d   1      23.521  34.929  39.695  0.00  0.00     0.078 H 
ATOM     23  H14 09A d   1      20.522  37.311  39.390  0.00  0.00     0.100 H 
ATOM     24  H17 09A d   1      24.134  36.765  44.371  0.00  0.00     0.169 HD
ATOM     25  H18 09A d   1      20.834  34.752  39.934  0.00  0.00     0.278 HD
ATOM     26  H19 09A d   1      21.683  35.577  38.790  0.00  0.00     0.278 HD
ENDROOT
BRANCH  10  27
ATOM     27  C9  09A d   1      19.805  36.491  41.236  0.00  0.00     0.290 C 
ATOM     28  O12 09A d   1      19.378  35.366  41.416  0.00  0.00    -0.263 OA
BRANCH  27  29
ATOM     29  O11 09A d   1      19.112  37.633  41.783  0.00  0.00    -0.315 OA
BRANCH  29  30
ATOM     30  C18 09A d   1      18.007  37.609  42.695  0.00  0.00     0.052 C 
ATOM     31  H15 09A d   1      17.189  37.001  42.282  0.00  0.00     0.082 H 
ATOM     32  H16 09A d   1      18.323  37.191  43.662  0.00  0.00     0.082 H 
BRANCH  30  33
ATOM     33  C19 09A d   1      17.549  39.057  42.872  0.00  0.00    -0.034 A 
ATOM     34  C20 09A d   1      17.745  39.721  44.088  0.00  0.00    -0.075 A 
ATOM     35  C21 09A d   1      17.359  41.058  44.253  0.00  0.00    -0.082 A 
ATOM     36  H7  09A d   1      18.203  39.192  44.916  0.00  0.00     0.084 H 
ATOM     37  C22 09A d   1      16.829  41.766  43.179  0.00  0.00    -0.083 A 
ATOM     38  H3  09A d   1      17.473  41.540  45.217  0.00  0.00     0.083 H 
ATOM     39  C23 09A d   1      16.624  41.111  41.954  0.00  0.00    -0.082 A 
ATOM     40  H1  09A d   1      16.576  42.815  43.287  0.00  0.00     0.083 H 
ATOM     41  C24 09A d   1      16.988  39.767  41.798  0.00  0.00    -0.075 A 
ATOM     42  H4  09A d   1      16.181  41.649  41.123  0.00  0.00     0.083 H 
ATOM     43  H8  09A d   1      16.836  39.273  40.845  0.00  0.00     0.084 H 
ENDBRANCH  30  33
ENDBRANCH  29  30
ENDBRANCH  27  29
ENDBRANCH  10  27
TORSDOF 4
