REMARK  4 active torsions:
REMARK  status: ('A' for Active; 'I' for Inactive)
REMARK    1  A    between atoms: C9_20  and  C8_12 
REMARK    2  A    between atoms: C24_15  and  C22_18 
REMARK    3  A    between atoms: O26_26  and  C24_15 
REMARK    4  A    between atoms: C9_20  and  O26_26 
ROOT
ATOM      1  C4  09B d   1      16.826  42.371  44.184  0.00  0.00     0.099 C 
ATOM      2  C2  09B d   1      17.052  40.801  42.330  0.00  0.00    -0.062 A 
ATOM      3  C3  09B d   1      17.373  40.104  44.608  0.00  0.00    -0.062 A 
ATOM      4  C5  09B d   1      17.330  39.507  41.911  0.00  0.00    -0.073 A 
ATOM      5  C6  09B d   1      17.643  38.822  44.193  0.00  0.00    -0.073 A 
ATOM      6  C1  09B d   1      17.089  41.083  43.686  0.00  0.00     0.044 A 
ATOM      7  C8  09B d   1      17.619  38.525  42.850  0.00  0.00    -0.034 A 
ATOM      8  N7  09B d   1      16.577  43.423  44.594  0.00  0.00    -0.191 NA
ATOM      9  H3  09B d   1      16.811  41.575  41.611  0.00  0.00     0.085 H 
ATOM     10  H4  09B d   1      17.384  40.344  45.665  0.00  0.00     0.085 H 
ATOM     11  H6  09B d   1      17.322  39.264  40.855  0.00  0.00     0.084 H 
ATOM     12  H7  09B d   1      17.873  38.050  44.919  0.00  0.00     0.084 H 
ENDROOT
BRANCH   7  13
ATOM     13  C9  09B d   1      17.933  37.135  42.423  0.00  0.00     0.052 C 
ATOM     14  H14 09B d   1      17.116  36.695  41.833  0.00  0.00     0.082 H 
ATOM     15  H15 09B d   1      18.157  36.485  43.282  0.00  0.00     0.082 H 
BRANCH  13  16
ATOM     16  O26 09B d   1      19.090  37.376  41.627  0.00  0.00    -0.315 OA
BRANCH  16  17
ATOM     17  C24 09B d   1      19.601  36.281  41.059  0.00  0.00     0.290 C 
ATOM     18  O25 09B d   1      19.175  35.155  41.235  0.00  0.00    -0.263 OA
BRANCH  17  19
ATOM     19  C22 09B d   1      20.755  36.577  40.132  0.00  0.00     0.186 C 
ATOM     20  C21 09B d   1      21.948  37.325  40.696  0.00  0.00    -0.008 C 
ATOM     21  C16 09B d   1      22.891  36.234  41.115  0.00  0.00     0.096 A 
ATOM     22  H9  09B d   1      21.652  37.940  41.559  0.00  0.00     0.039 H 
ATOM     23  H10 09B d   1      22.407  37.966  39.929  0.00  0.00     0.039 H 
ATOM     24  C11 09B d   1      24.305  36.592  40.954  0.00  0.00    -0.012 A 
ATOM     25  C18 09B d   1      22.770  36.065  42.611  0.00  0.00     0.237 A 
ATOM     26  C20 09B d   1      22.553  34.961  40.380  0.00  0.00     0.102 C 
ATOM     27  C12 09B d   1      25.009  36.812  39.789  0.00  0.00    -0.073 A 
ATOM     28  C10 09B d   1      24.900  36.669  42.174  0.00  0.00     0.042 A 
ATOM     29  C13 09B d   1      26.351  37.111  39.906  0.00  0.00    -0.082 A 
ATOM     30  H5  09B d   1      24.527  36.752  38.820  0.00  0.00     0.084 H 
ATOM     31  C14 09B d   1      26.952  37.209  41.152  0.00  0.00    -0.081 A 
ATOM     32  H1  09B d   1      26.943  37.271  39.012  0.00  0.00     0.083 H 
ATOM     33  C15 09B d   1      26.231  36.979  42.305  0.00  0.00    -0.057 A 
ATOM     34  H2  09B d   1      28.002  37.470  41.221  0.00  0.00     0.083 H 
ATOM     35  H8  09B d   1      26.699  37.041  43.281  0.00  0.00     0.086 H 
ATOM     36  N17 09B d   1      23.975  36.385  43.177  0.00  0.00    -0.326 N 
ATOM     37  H16 09B d   1      24.163  36.411  44.159  0.00  0.00     0.169 HD
ATOM     38  O23 09B d   1      21.750  35.717  43.192  0.00  0.00    -0.272 OA
ATOM     39  N19 09B d   1      21.273  35.262  39.686  0.00  0.00    -0.060 N 
ATOM     40  H11 09B d   1      22.426  34.127  41.085  0.00  0.00     0.078 H 
ATOM     41  H12 09B d   1      23.340  34.711  39.653  0.00  0.00     0.078 H 
ATOM     42  H17 09B d   1      20.598  34.546  39.904  0.00  0.00     0.278 HD
ATOM     43  H18 09B d   1      21.430  35.285  38.691  0.00  0.00     0.278 HD
ATOM     44  H13 09B d   1      20.367  37.149  39.276  0.00  0.00     0.100 H 
ENDBRANCH  17  19
ENDBRANCH  16  17
ENDBRANCH  13  16
ENDBRANCH   7  13
TORSDOF 4
