REMARK  3 active torsions:
REMARK  status: ('A' for Active; 'I' for Inactive)
REMARK    1  A    between atoms: C14_14  and  C20_20 
REMARK    2  A    between atoms: O26_26  and  C14_14 
REMARK    3  A    between atoms: C19_19  and  O26_26 
ROOT
ATOM      1  C1  09D d   1      26.307  37.646  40.052  0.00  0.00    -0.082 A 
ATOM      2  C2  09D d   1      26.870  37.774  41.310  0.00  0.00    -0.081 A 
ATOM      3  C3  09D d   1      25.031  37.140  39.905  0.00  0.00    -0.073 A 
ATOM      4  C4  09D d   1      26.170  37.399  42.443  0.00  0.00    -0.057 A 
ATOM      5  C8  09D d   1      24.335  36.785  41.039  0.00  0.00    -0.012 A 
ATOM      6  C10 09D d   1      24.894  36.925  42.272  0.00  0.00     0.042 A 
ATOM      7  C13 09D d   1      22.852  36.030  42.651  0.00  0.00     0.237 A 
ATOM      8  C16 09D d   1      21.879  37.289  40.866  0.00  0.00    -0.008 C 
ATOM      9  C17 09D d   1      22.699  35.029  40.387  0.00  0.00     0.102 C 
ATOM     10  C20 09D d   1      20.817  36.511  40.129  0.00  0.00     0.186 C 
ATOM     11  C21 09D d   1      22.953  36.280  41.175  0.00  0.00     0.096 A 
ATOM     12  N22 09D d   1      24.006  36.481  43.247  0.00  0.00    -0.326 N 
ATOM     13  N23 09D d   1      21.552  35.366  39.535  0.00  0.00    -0.060 N 
ATOM     14  O24 09D d   1      21.865  35.565  43.196  0.00  0.00    -0.272 OA
ATOM     15  H1  09D d   1      26.872  37.945  39.176  0.00  0.00     0.083 H 
ATOM     16  H2  09D d   1      27.873  38.173  41.409  0.00  0.00     0.083 H 
ATOM     17  H3  09D d   1      24.588  37.025  38.922  0.00  0.00     0.084 H 
ATOM     18  H4  09D d   1      26.613  37.477  43.429  0.00  0.00     0.086 H 
ATOM     19  H10 09D d   1      21.472  37.717  41.794  0.00  0.00     0.039 H 
ATOM     20  H11 09D d   1      22.277  38.096  40.233  0.00  0.00     0.039 H 
ATOM     21  H12 09D d   1      22.455  34.190  41.055  0.00  0.00     0.078 H 
ATOM     22  H13 09D d   1      23.576  34.768  39.776  0.00  0.00     0.078 H 
ATOM     23  H17 09D d   1      20.350  37.133  39.352  0.00  0.00     0.100 H 
ATOM     24  H18 09D d   1      24.181  36.489  44.232  0.00  0.00     0.169 HD
ATOM     25  H19 09D d   1      20.937  34.570  39.468  0.00  0.00     0.278 HD
ATOM     26  H20 09D d   1      21.878  35.617  38.615  0.00  0.00     0.278 HD
ENDROOT
BRANCH  10  27
ATOM     27  C14 09D d   1      19.764  35.978  41.052  0.00  0.00     0.290 C 
ATOM     28  O25 09D d   1      19.310  34.847  40.972  0.00  0.00    -0.263 OA
BRANCH  27  29
ATOM     29  O26 09D d   1      19.413  36.923  41.953  0.00  0.00    -0.309 OA
BRANCH  29  30
ATOM     30  C19 09D d   1      18.357  36.543  42.842  0.00  0.00     0.075 C 
ATOM     31  C9  09D d   1      17.791  37.837  43.360  0.00  0.00    -0.011 A 
ATOM     32  C7  09D d   1      17.524  38.780  42.394  0.00  0.00    -0.056 A 
ATOM     33  C11 09D d   1      17.560  38.149  44.692  0.00  0.00     0.009 A 
ATOM     34  C12 09D d   1      17.012  40.011  42.722  0.00  0.00     0.011 A 
ATOM     35  H7  09D d   1      17.722  38.546  41.354  0.00  0.00     0.086 H 
ATOM     36  C6  09D d   1      16.777  40.337  44.039  0.00  0.00    -0.065 A 
ATOM     37 BR2  09D d   1      16.678  41.246  41.316  0.00  0.00    -0.051 Br
ATOM     38  C5  09D d   1      17.055  39.399  45.013  0.00  0.00    -0.065 A 
ATOM     39  H6  09D d   1      16.382  41.310  44.306  0.00  0.00     0.085 H 
ATOM     40  H5  09D d   1      16.874  39.646  46.053  0.00  0.00     0.085 H 
ATOM     41  S27 09D d   1      17.853  36.997  46.029  0.00  0.00    -0.129 SA
ATOM     42  C18 09D d   1      17.922  35.487  45.038  0.00  0.00    -0.016 C 
ATOM     43  C15 09D d   1      18.959  35.726  43.962  0.00  0.00    -0.028 C 
ATOM     44  H14 09D d   1      18.216  34.633  45.666  0.00  0.00     0.049 H 
ATOM     45  H15 09D d   1      16.941  35.286  44.583  0.00  0.00     0.049 H 
ATOM     46  H8  09D d   1      19.302  34.759  43.565  0.00  0.00     0.038 H 
ATOM     47  H9  09D d   1      19.813  36.270  44.392  0.00  0.00     0.038 H 
ATOM     48  H16 09D d   1      17.584  35.960  42.320  0.00  0.00     0.092 H 
ENDBRANCH  29  30
ENDBRANCH  27  29
ENDBRANCH  10  27
TORSDOF 3
