REMARK  3 active torsions:
REMARK  status: ('A' for Active; 'I' for Inactive)
REMARK    1  A    between atoms: C9_9  and  C7_7 
REMARK    2  A    between atoms: O3_19  and  C9_9 
REMARK    3  A    between atoms: C13_17  and  O3_19 
ROOT
ATOM      1  C1  09E d   1      24.367  37.475  41.468  0.00  0.00    -0.012 A 
ATOM      2  C2  09E d   1      22.998  36.941  41.814  0.00  0.00     0.096 A 
ATOM      3  C3  09E d   1      24.924  37.843  40.235  0.00  0.00    -0.073 A 
ATOM      4  C4  09E d   1      21.876  37.932  41.450  0.00  0.00    -0.008 C 
ATOM      5  C5  09E d   1      26.262  38.289  40.237  0.00  0.00    -0.082 A 
ATOM      6  C6  09E d   1      26.466  38.000  42.666  0.00  0.00    -0.057 A 
ATOM      7  C7  09E d   1      20.879  37.092  40.640  0.00  0.00     0.186 C 
ATOM      8  C8  09E d   1      27.026  38.335  41.418  0.00  0.00    -0.081 A 
ATOM      9  N1  09E d   1      21.601  35.898  40.116  0.00  0.00    -0.060 N 
ATOM     10  C10 09E d   1      22.636  35.584  41.125  0.00  0.00     0.102 C 
ATOM     11  C11 09E d   1      23.089  36.732  43.352  0.00  0.00     0.237 A 
ATOM     12  O2  09E d   1      22.225  36.340  44.120  0.00  0.00    -0.272 OA
ATOM     13  N2  09E d   1      24.366  37.135  43.775  0.00  0.00    -0.326 N 
ATOM     14  C12 09E d   1      25.138  37.571  42.674  0.00  0.00     0.042 A 
ATOM     15  H   09E d   1      24.346  37.787  39.312  0.00  0.00     0.084 H 
ATOM     16  H   09E d   1      22.249  38.786  40.884  0.00  0.00     0.039 H 
ATOM     17  H   09E d   1      21.417  38.376  42.333  0.00  0.00     0.039 H 
ATOM     18  H   09E d   1      26.717  38.607  39.299  0.00  0.00     0.083 H 
ATOM     19  H   09E d   1      27.045  38.073  43.587  0.00  0.00     0.086 H 
ATOM     20  H   09E d   1      20.474  37.725  39.851  0.00  0.00     0.100 H 
ATOM     21  H   09E d   1      28.072  38.636  41.366  0.00  0.00     0.083 H 
ATOM     22  H   09E d   1      22.015  36.084  39.203  0.00  0.00     0.278 HD
ATOM     23  H   09E d   1      20.967  35.111  39.975  0.00  0.00     0.278 HD
ATOM     24  H   09E d   1      22.270  34.859  41.852  0.00  0.00     0.078 H 
ATOM     25  H   09E d   1      23.513  35.132  40.661  0.00  0.00     0.078 H 
ATOM     26  H   09E d   1      24.691  37.116  44.742  0.00  0.00     0.169 HD
ENDROOT
BRANCH   7  27
ATOM     27  C9  09E d   1      19.709  36.569  41.509  0.00  0.00     0.290 C 
ATOM     28  O1  09E d   1      19.140  35.479  41.436  0.00  0.00    -0.263 OA
BRANCH  27  29
ATOM     29  O3  09E d   1      19.302  37.515  42.411  0.00  0.00    -0.309 OA
BRANCH  29  30
ATOM     30  C13 09E d   1      18.243  37.220  43.299  0.00  0.00     0.075 C 
ATOM     31  C14 09E d   1      18.867  36.377  44.461  0.00  0.00    -0.024 C 
ATOM     32  C15 09E d   1      17.814  36.188  45.543  0.00  0.00     0.036 C 
ATOM     33  H   09E d   1      19.733  36.896  44.872  0.00  0.00     0.038 H 
ATOM     34  H   09E d   1      19.190  35.407  44.084  0.00  0.00     0.038 H 
ATOM     35  S1  09E d   1      17.535  37.643  46.377  0.00  0.00     0.176 S 
ATOM     36  H   09E d   1      18.169  35.440  46.252  0.00  0.00     0.056 H 
ATOM     37  H   09E d   1      16.883  35.868  45.075  0.00  0.00     0.056 H 
ATOM     38  C16 09E d   1      17.398  38.803  45.130  0.00  0.00     0.068 A 
ATOM     39  O4  09E d   1      16.254  37.543  46.976  0.00  0.00    -0.223 OA
ATOM     40  O5  09E d   1      18.670  37.889  47.199  0.00  0.00    -0.223 OA
ATOM     41  C17 09E d   1      17.698  38.569  43.742  0.00  0.00    -0.006 A 
ATOM     42  C21 09E d   1      16.874  40.098  45.485  0.00  0.00    -0.060 A 
ATOM     43  C18 09E d   1      17.498  39.570  42.763  0.00  0.00    -0.056 A 
ATOM     44  C19 09E d   1      17.001  40.798  43.161  0.00  0.00     0.011 A 
ATOM     45  H   09E d   1      17.731  39.378  41.716  0.00  0.00     0.086 H 
ATOM     46  C20 09E d   1      16.695  41.091  44.512  0.00  0.00    -0.065 A 
ATOM     47 BR1  09E d   1      16.710  42.116  41.808  0.00  0.00    -0.051 Br
ATOM     48  H   09E d   1      16.325  42.077  44.792  0.00  0.00     0.085 H 
ATOM     49  H   09E d   1      16.614  40.308  46.523  0.00  0.00     0.085 H 
ATOM     50  H   09E d   1      17.422  36.641  42.877  0.00  0.00     0.092 H 
ENDBRANCH  29  30
ENDBRANCH  27  29
ENDBRANCH   7  27
TORSDOF 3
