REMARK  3 active torsions:
REMARK  status: ('A' for Active; 'I' for Inactive)
REMARK    1  A    between atoms: C9_9  and  C7_17 
REMARK    2  A    between atoms: O11_25  and  C9_9 
REMARK    3  A    between atoms: C18_18  and  O11_25 
ROOT
ATOM      1  C24 09F d   1      18.952  35.722  44.070  0.00  0.00     0.098 C 
ATOM      2  C21 09F d   1      16.688  32.984  43.888  0.00  0.00    -0.065 C 
ATOM      3  C20 09F d   1      18.127  32.888  44.335  0.00  0.00    -0.061 C 
ATOM      4  C22 09F d   1      16.324  34.393  43.500  0.00  0.00    -0.061 C 
ATOM      5  C19 09F d   1      19.043  33.447  43.265  0.00  0.00    -0.023 C 
ATOM      6  C23 09F d   1      17.264  34.971  42.465  0.00  0.00    -0.023 C 
ATOM      7  C18 09F d   1      18.710  34.880  42.904  0.00  0.00     0.158 C 
ATOM      8  N25 09F d   1      19.148  36.374  45.011  0.00  0.00    -0.194 NA
ATOM      9  H   09F d   1      16.048  32.677  44.715  0.00  0.00     0.033 H 
ATOM     10  H   09F d   1      16.553  32.340  43.019  0.00  0.00     0.033 H 
ATOM     11  H   09F d   1      18.378  31.842  44.510  0.00  0.00     0.033 H 
ATOM     12  H   09F d   1      18.256  33.463  45.252  0.00  0.00     0.033 H 
ATOM     13  H   09F d   1      16.385  35.014  44.394  0.00  0.00     0.033 H 
ATOM     14  H   09F d   1      15.322  34.375  43.071  0.00  0.00     0.033 H 
ATOM     15  H   09F d   1      18.922  32.839  42.369  0.00  0.00     0.038 H 
ATOM     16  H   09F d   1      20.062  33.426  43.651  0.00  0.00     0.038 H 
ATOM     17  H   09F d   1      17.014  36.023  42.325  0.00  0.00     0.038 H 
ATOM     18  H   09F d   1      17.150  34.401  41.543  0.00  0.00     0.038 H 
ENDROOT
BRANCH   7  19
ATOM     19  O11 09F d   1      19.590  35.206  41.789  0.00  0.00    -0.293 OA
BRANCH  19  20
ATOM     20  C9  09F d   1      19.828  36.523  41.571  0.00  0.00     0.291 C 
ATOM     21  O12 09F d   1      19.224  37.453  42.100  0.00  0.00    -0.263 OA
BRANCH  20  22
ATOM     22  C7  09F d   1      20.797  36.694  40.422  0.00  0.00     0.186 C 
ATOM     23  C4  09F d   1      22.023  37.426  40.912  0.00  0.00    -0.008 C 
ATOM     24  C2  09F d   1      22.976  36.352  41.381  0.00  0.00     0.096 A 
ATOM     25  H   09F d   1      21.778  38.120  41.716  0.00  0.00     0.039 H 
ATOM     26  H   09F d   1      22.465  38.035  40.124  0.00  0.00     0.039 H 
ATOM     27  C1  09F d   1      24.404  36.722  41.243  0.00  0.00    -0.012 A 
ATOM     28  C14 09F d   1      22.855  36.263  42.898  0.00  0.00     0.237 A 
ATOM     29  C13 09F d   1      22.596  35.074  40.640  0.00  0.00     0.102 C 
ATOM     30  C3  09F d   1      25.140  36.947  40.104  0.00  0.00    -0.073 A 
ATOM     31  C17 09F d   1      24.980  36.865  42.476  0.00  0.00     0.042 A 
ATOM     32  C5  09F d   1      26.459  37.334  40.250  0.00  0.00    -0.082 A 
ATOM     33  H   09F d   1      24.697  36.824  39.116  0.00  0.00     0.084 H 
ATOM     34  C8  09F d   1      27.014  37.492  41.509  0.00  0.00    -0.081 A 
ATOM     35  H   09F d   1      27.069  37.517  39.365  0.00  0.00     0.083 H 
ATOM     36  C6  09F d   1      26.286  37.238  42.647  0.00  0.00    -0.057 A 
ATOM     37  H   09F d   1      28.048  37.824  41.599  0.00  0.00     0.083 H 
ATOM     38  H   09F d   1      26.728  37.329  43.639  0.00  0.00     0.086 H 
ATOM     39  N16 09F d   1      24.070  36.588  43.465  0.00  0.00    -0.326 N 
ATOM     40  H   09F d   1      24.262  36.618  44.466  0.00  0.00     0.169 HD
ATOM     41  O15 09F d   1      21.839  35.983  43.530  0.00  0.00    -0.272 OA
ATOM     42  N10 09F d   1      21.333  35.391  39.909  0.00  0.00    -0.060 N 
ATOM     43  H   09F d   1      22.458  34.241  41.329  0.00  0.00     0.078 H 
ATOM     44  H   09F d   1      23.384  34.762  39.955  0.00  0.00     0.078 H 
ATOM     45  H   09F d   1      20.649  34.650  40.061  0.00  0.00     0.278 HD
ATOM     46  H   09F d   1      21.519  35.462  38.909  0.00  0.00     0.278 HD
ATOM     47  H   09F d   1      20.241  37.216  39.643  0.00  0.00     0.100 H 
ENDBRANCH  20  22
ENDBRANCH  19  20
ENDBRANCH   7  19
TORSDOF 3
