REMARK  13 active torsions:
REMARK  status: ('A' for Active; 'I' for Inactive)
REMARK    1  A    between atoms: C10_24  and  C1_1 
REMARK    2  A    between atoms: C4_11  and  N1_2 
REMARK    3  A    between atoms: S1_4  and  C10_24 
REMARK    4  A    between atoms: C11_26  and  S1_4 
REMARK    5  A    between atoms: C2_5  and  O2_7 
REMARK    6  A    between atoms: C3_8  and  O3_10 
REMARK    7  A    between atoms: C16_33  and  N6_18 
REMARK    8  A    between atoms: C19_35  and  N9_23 
REMARK    9  A    between atoms: C27_43  and  C16_33 
REMARK   10  A    between atoms: C18_34  and  C21_37 
REMARK       I    between atoms: N28_44  and  C18_34 
REMARK   11  A    between atoms: C22_38  and  C23_39 
REMARK   12  A    between atoms: C22_38  and  C24_40 
REMARK   13  A    between atoms: C27_43  and  N28_44 
ROOT
ATOM      1  N6  J1C d   1       5.294  19.996  11.416  0.00  0.00     0.090 N 
ATOM      2  C11 J1C d   1       4.979  18.306  13.936  0.00  0.00    -0.006 C 
ATOM      3  C12 J1C d   1       4.235  18.030  12.643  0.00  0.00    -0.028 C 
ATOM      4  C13 J1C d   1       4.017  19.347  11.882  0.00  0.00     0.115 C 
ATOM      5  C14 J1C d   1       6.387  20.033  12.495  0.00  0.00     0.115 C 
ATOM      6  C15 J1C d   1       6.367  18.880  13.556  0.00  0.00    -0.028 C 
ATOM      7  H   J1C d   1       5.147  17.395  14.510  0.00  0.00     0.056 H 
ATOM      8  H   J1C d   1       3.269  17.579  12.870  0.00  0.00     0.037 H 
ATOM      9  H   J1C d   1       4.821  17.348  12.027  0.00  0.00     0.037 H 
ATOM     10  H   J1C d   1       3.426  19.117  10.995  0.00  0.00     0.079 H 
ATOM     11  H   J1C d   1       3.529  20.042  12.566  0.00  0.00     0.079 H 
ATOM     12  H   J1C d   1       6.228  20.956  13.052  0.00  0.00     0.079 H 
ATOM     13  H   J1C d   1       7.335  19.938  11.966  0.00  0.00     0.079 H 
ATOM     14  H   J1C d   1       6.921  18.054  13.111  0.00  0.00     0.037 H 
ATOM     15  H   J1C d   1       6.775  19.308  14.472  0.00  0.00     0.037 H 
ENDROOT
BRANCH   1  16
ATOM     16  C16 J1C d   1       4.981  21.279  10.616  0.00  0.00     0.128 C 
ATOM     17  H   J1C d   1       3.895  21.272  10.528  0.00  0.00     0.082 H 
ATOM     18  H   J1C d   1       5.624  21.202   9.739  0.00  0.00     0.082 H 
BRANCH  16  19
ATOM     19  C27 J1C d   1       5.297  22.686  11.185  0.00  0.00     0.020 C 
ATOM     20  H   J1C d   1       6.112  22.588  11.902  0.00  0.00     0.066 H 
ATOM     21  H   J1C d   1       4.391  23.078  11.647  0.00  0.00     0.066 H 
BRANCH  19  22
ATOM     22  N28 J1C d   1       5.725  23.637  10.121  0.00  0.00    -0.354 N 
ATOM     23  C18 J1C d   1       5.448  25.006  10.166  0.00  0.00     0.268 C 
ATOM     24  O4  J1C d   1       4.812  25.488  11.104  0.00  0.00    -0.266 OA
ATOM     25  H   J1C d   1       6.244  23.272   9.323  0.00  0.00     0.162 HD
BRANCH  23  26
ATOM     26  C21 J1C d   1       5.896  25.937   9.060  0.00  0.00     0.127 A 
ATOM     27  N11 J1C d   1       6.993  25.589   8.470  0.00  0.00    -0.263 NA
ATOM     28  C26 J1C d   1       7.447  26.340   7.401  0.00  0.00     0.167 A 
ATOM     29  C20 J1C d   1       8.670  25.873   6.797  0.00  0.00     0.268 A 
ATOM     30  C25 J1C d   1       6.818  27.481   6.923  0.00  0.00     0.149 A 
ATOM     31  H   J1C d   1       6.548  26.942   7.272  0.00  0.00     0.103 H 
ATOM     32  O5  J1C d   1       9.362  24.901   7.068  0.00  0.00    -0.270 OA
ATOM     33  N10 J1C d   1       9.126  26.635   5.694  0.00  0.00    -0.158 N 
ATOM     34  C19 J1C d   1       8.443  27.756   5.285  0.00  0.00     0.680 A 
ATOM     35  H   J1C d   1       9.970  26.349   5.198  0.00  0.00     0.187 HD
ATOM     36  N8  J1C d   1       7.290  28.217   5.846  0.00  0.00    -0.176 N 
ATOM     37  H   J1C d   1       6.808  29.046   5.498  0.00  0.00     0.185 HD
ATOM     38  N12 J1C d   1       5.679  27.889   7.554  0.00  0.00    -0.257 NA
ATOM     39  C22 J1C d   1       5.087  27.190   8.734  0.00  0.00     0.097 A 
BRANCH  34  40
ATOM     40  N9  J1C d   1       8.997  28.429   4.217  0.00  0.00    -0.234 N 
ATOM     41  H   J1C d   1       8.544  29.267   3.852  0.00  0.00     0.174 HD
ATOM     42  H   J1C d   1       9.860  28.089   3.792  0.00  0.00     0.174 HD
ENDBRANCH  34  40
BRANCH  39  43
ATOM     43  C23 J1C d   1       4.988  28.245   9.833  0.00  0.00    -0.046 C 
ATOM     44  H   J1C d   1       5.983  28.629  10.057  0.00  0.00     0.031 H 
ATOM     45  H   J1C d   1       4.350  29.062   9.495  0.00  0.00     0.031 H 
ATOM     46  H   J1C d   1       4.560  27.795  10.729  0.00  0.00     0.031 H 
ENDBRANCH  39  43
BRANCH  39  47
ATOM     47  C24 J1C d   1       3.645  26.773   8.387  0.00  0.00    -0.046 C 
ATOM     48  H   J1C d   1       3.059  27.660   8.149  0.00  0.00     0.031 H 
ATOM     49  H   J1C d   1       3.659  26.103   7.527  0.00  0.00     0.031 H 
ATOM     50  H   J1C d   1       3.201  26.261   9.241  0.00  0.00     0.031 H 
ENDBRANCH  39  47
ENDBRANCH  23  26
ENDBRANCH  19  22
ENDBRANCH  16  19
ENDBRANCH   1  16
BRANCH   2  51
ATOM     51  S1  J1C d   1       3.931  19.384  15.145  0.00  0.00    -0.162 SA
BRANCH  51  52
ATOM     52  C10 J1C d   1       2.162  18.779  15.301  0.00  0.00     0.004 C 
ATOM     53  H   J1C d   1       1.755  19.301  16.167  0.00  0.00     0.052 H 
ATOM     54  H   J1C d   1       1.708  18.965  14.328  0.00  0.00     0.052 H 
BRANCH  52  55
ATOM     55  C1  J1C d   1       1.921  17.243  15.588  0.00  0.00     0.076 C 
ATOM     56  O1  J1C d   1       1.964  16.456  14.402  0.00  0.00    -0.355 OA
ATOM     57  C4  J1C d   1       2.201  15.101  14.714  0.00  0.00     0.139 C 
ATOM     58  C3  J1C d   1       3.205  15.124  15.883  0.00  0.00     0.105 C 
ATOM     59  H   J1C d   1       1.320  14.548  15.040  0.00  0.00     0.122 H 
ATOM     60  C2  J1C d   1       2.917  16.540  16.568  0.00  0.00     0.090 C 
ATOM     61  H   J1C d   1       4.245  15.010  15.576  0.00  0.00     0.093 H 
ATOM     62  H   J1C d   1       3.844  17.085  16.745  0.00  0.00     0.091 H 
ATOM     63  H   J1C d   1       0.936  17.280  16.054  0.00  0.00     0.088 H 
BRANCH  57  64
ATOM     64  N1  J1C d   1       2.629  14.362  13.483  0.00  0.00    -0.294 N 
ATOM     65  C5  J1C d   1       1.739  13.533  12.726  0.00  0.00     0.071 A 
ATOM     66  N2  J1C d   1       2.303  12.985  11.646  0.00  0.00    -0.236 NA
ATOM     67  H   J1C d   1       0.699  13.365  13.005  0.00  0.00     0.144 H 
ATOM     68  C6  J1C d   1       3.624  13.457  11.649  0.00  0.00     0.149 A 
ATOM     69  C7  J1C d   1       4.716  13.230  10.760  0.00  0.00     0.155 A 
ATOM     70  C9  J1C d   1       3.836  14.310  12.771  0.00  0.00     0.167 A 
ATOM     71  N3  J1C d   1       4.639  12.439   9.655  0.00  0.00    -0.382 N 
ATOM     72  N4  J1C d   1       5.922  13.830  11.030  0.00  0.00    -0.222 NA
ATOM     73  H   J1C d   1       3.764  11.969   9.424  0.00  0.00     0.157 HD
ATOM     74  H   J1C d   1       5.457  12.316   9.058  0.00  0.00     0.157 HD
ATOM     75  C8  J1C d   1       5.974  14.614  12.130  0.00  0.00     0.091 A 
ATOM     76  N5  J1C d   1       5.020  14.919  13.035  0.00  0.00    -0.222 NA
ATOM     77  H   J1C d   1       6.944  15.075  12.316  0.00  0.00     0.146 H 
ENDBRANCH  57  64
BRANCH  58  78
ATOM     78  O3  J1C d   1       2.964  14.052  16.765  0.00  0.00    -0.388 OA
ATOM     79  H   J1C d   1       3.148  13.223  16.317  0.00  0.00     0.210 HD
ENDBRANCH  58  78
BRANCH  60  80
ATOM     80  O2  J1C d   1       2.267  16.391  17.793  0.00  0.00    -0.390 OA
ATOM     81  H   J1C d   1       1.480  15.855  17.673  0.00  0.00     0.210 HD
ENDBRANCH  60  80
ENDBRANCH  52  55
ENDBRANCH  51  52
ENDBRANCH   2  51
TORSDOF 13
