REMARK  4 active torsions:
REMARK  status: ('A' for Active; 'I' for Inactive)
REMARK    1  A    between atoms: C18_20  and  C19_11 
REMARK    2  A    between atoms: C9_15  and  C7_18 
REMARK    3  A    between atoms: O11_26  and  C9_15 
REMARK    4  A    between atoms: C18_20  and  O11_26 
ROOT
ATOM      1  C25 09G d   1      16.672  41.847  44.848  0.00  0.00     0.101 C 
ATOM      2  C23 09G d   1      17.306  39.544  45.308  0.00  0.00    -0.061 A 
ATOM      3  C24 09G d   1      17.680  38.301  44.840  0.00  0.00    -0.073 A 
ATOM      4  C20 09G d   1      17.390  39.030  42.602  0.00  0.00    -0.057 A 
ATOM      5  C22 09G d   1      16.962  40.531  44.413  0.00  0.00     0.062 A 
ATOM      6  C19 09G d   1      17.710  38.037  43.490  0.00  0.00    -0.033 A 
ATOM      7  C21 09G d   1      17.021  40.265  43.069  0.00  0.00     0.032 A 
ATOM      8  N26 09G d   1      16.402  42.927  45.184  0.00  0.00    -0.191 NA
ATOM      9 BR2  09G d   1      16.626  41.601  41.798  0.00  0.00    -0.049 Br
ATOM     10  H   09G d   1      17.283  39.743  46.380  0.00  0.00     0.085 H 
ATOM     11  H   09G d   1      17.955  37.519  45.548  0.00  0.00     0.084 H 
ATOM     12  H   09G d   1      17.429  38.839  41.529  0.00  0.00     0.086 H 
ENDROOT
BRANCH   6  13
ATOM     13  C18 09G d   1      18.165  36.736  42.921  0.00  0.00     0.052 C 
ATOM     14  H   09G d   1      17.344  36.162  42.492  0.00  0.00     0.082 H 
ATOM     15  H   09G d   1      18.578  36.073  43.681  0.00  0.00     0.082 H 
BRANCH  13  16
ATOM     16  O11 09G d   1      19.138  37.112  41.939  0.00  0.00    -0.315 OA
BRANCH  16  17
ATOM     17  C9  09G d   1      19.799  36.052  41.406  0.00  0.00     0.290 C 
ATOM     18  O12 09G d   1      19.561  34.880  41.645  0.00  0.00    -0.263 OA
BRANCH  17  19
ATOM     19  C7  09G d   1      20.820  36.501  40.406  0.00  0.00     0.186 C 
ATOM     20  C4  09G d   1      21.902  37.282  41.100  0.00  0.00    -0.008 C 
ATOM     21  C2  09G d   1      22.952  36.258  41.439  0.00  0.00     0.096 A 
ATOM     22  H   09G d   1      21.530  37.793  41.988  0.00  0.00     0.039 H 
ATOM     23  H   09G d   1      22.298  38.078  40.470  0.00  0.00     0.039 H 
ATOM     24  C1  09G d   1      24.329  36.732  41.216  0.00  0.00    -0.012 A 
ATOM     25  C14 09G d   1      22.938  36.055  42.932  0.00  0.00     0.237 A 
ATOM     26  C13 09G d   1      22.618  34.993  40.682  0.00  0.00     0.102 C 
ATOM     27  C3  09G d   1      24.957  37.020  40.025  0.00  0.00    -0.073 A 
ATOM     28  C17 09G d   1      24.974  36.868  42.409  0.00  0.00     0.042 A 
ATOM     29  C5  09G d   1      26.263  37.459  40.080  0.00  0.00    -0.082 A 
ATOM     30  H   09G d   1      24.440  36.905  39.072  0.00  0.00     0.084 H 
ATOM     31  C8  09G d   1      26.908  37.606  41.297  0.00  0.00    -0.081 A 
ATOM     32  H   09G d   1      26.793  37.693  39.157  0.00  0.00     0.083 H 
ATOM     33  C6  09G d   1      26.275  37.299  42.482  0.00  0.00    -0.057 A 
ATOM     34  H   09G d   1      27.935  37.971  41.318  0.00  0.00     0.083 H 
ATOM     35  H   09G d   1      26.787  37.395  43.439  0.00  0.00     0.086 H 
ATOM     36  N16 09G d   1      24.144  36.491  43.452  0.00  0.00    -0.326 N 
ATOM     37  H   09G d   1      24.383  36.529  44.443  0.00  0.00     0.169 HD
ATOM     38  O15 09G d   1      21.967  35.624  43.538  0.00  0.00    -0.272 OA
ATOM     39  N10 09G d   1      21.437  35.282  39.879  0.00  0.00    -0.060 N 
ATOM     40  H   09G d   1      22.427  34.169  41.370  0.00  0.00     0.078 H 
ATOM     41  H   09G d   1      23.452  34.688  40.049  0.00  0.00     0.078 H 
ATOM     42  H   09G d   1      20.779  34.504  39.927  0.00  0.00     0.278 HD
ATOM     43  H   09G d   1      21.698  35.413  38.902  0.00  0.00     0.278 HD
ATOM     44  H   09G d   1      20.359  37.117  39.634  0.00  0.00     0.100 H 
ENDBRANCH  17  19
ENDBRANCH  16  17
ENDBRANCH  13  16
ENDBRANCH   6  13
TORSDOF 4
