REMARK  12 active torsions:
REMARK  status: ('A' for Active; 'I' for Inactive)
REMARK    1  A    between atoms: OAV_22  and  CAA_1 
REMARK    2  A    between atoms: CAX_24  and  O02_2 
REMARK    3  A    between atoms: O02_2  and  C01_36 
REMARK    4  A    between atoms: CAM_13  and  CAC_3 
REMARK    5  A    between atoms: CAC_3  and  NBH_34 
REMARK    6  A    between atoms: CAN_14  and  CAM_13 
REMARK    7  A    between atoms: OAW_23  and  CAN_14 
REMARK    8  A    between atoms: NBI_35  and  CAO_15 
REMARK    9  A    between atoms: NAU_21  and  CBB_28 
REMARK   10  A    between atoms: CBE_31  and  NAU_21 
REMARK   11  A    between atoms: CBC_29  and  OAV_22 
REMARK   12  A    between atoms: CBD_30  and  OAW_23 
ROOT
ATOM      1  NAD DB8 d   1      -2.895  14.239 -44.070  0.00  0.00    -0.191 NA
ATOM      2  CAG DB8 d   1      -2.532  13.891 -45.081  0.00  0.00     0.103 C 
ATOM      3  CAH DB8 d   1      -1.302  12.144 -46.516  0.00  0.00     0.025 A 
ATOM      4  CAK DB8 d   1      -0.538  11.808 -50.305  0.00  0.00    -0.019 A 
ATOM      5  CAL DB8 d   1      -2.029  14.442 -50.256  0.00  0.00    -0.034 A 
ATOM      6  NAT DB8 d   1      -0.821  11.640 -47.769  0.00  0.00    -0.259 NA
ATOM      7  CBA DB8 d   1      -2.047  13.438 -46.419  0.00  0.00     0.089 A 
ATOM      8  CBC DB8 d   1      -1.523  13.877 -51.545  0.00  0.00     0.102 A 
ATOM      9  CBD DB8 d   1      -0.780  12.583 -51.556  0.00  0.00     0.104 A 
ATOM     10  CBE DB8 d   1      -2.323  14.244 -47.677  0.00  0.00     0.068 A 
ATOM     11  CBF DB8 d   1      -1.045  12.359 -48.992  0.00  0.00     0.071 A 
ATOM     12  CBG DB8 d   1      -1.792  13.677 -48.989  0.00  0.00     0.024 A 
ATOM     13  H6  DB8 d   1      -1.121  11.572 -45.614  0.00  0.00     0.117 H 
ATOM     14  H9  DB8 d   1      -0.006  10.864 -50.337  0.00  0.00     0.091 H 
ATOM     15  H10 DB8 d   1      -2.558  15.388 -50.238  0.00  0.00     0.089 H 
ENDROOT
BRANCH  10  16
ATOM     16  NAU DB8 d   1      -3.037  15.528 -47.704  0.00  0.00    -0.353 N 
ATOM     17  H26 DB8 d   1      -3.485  15.862 -48.569  0.00  0.00     0.166 HD
BRANCH  16  18
ATOM     18  CBB DB8 d   1      -3.098  16.314 -46.488  0.00  0.00     0.057 A 
ATOM     19  CAJ DB8 d   1      -1.826  16.646 -45.760  0.00  0.00    -0.022 A 
ATOM     20  CAX DB8 d   1      -1.886  17.436 -44.492  0.00  0.00     0.092 A 
ATOM     21  H8  DB8 d   1      -0.871  16.315 -46.152  0.00  0.00     0.091 H 
ATOM     22  CAY DB8 d   1      -3.217  17.893 -43.963  0.00  0.00     0.069 A 
ATOM     23 CL1  DB8 d   1      -3.289  18.807 -42.499  0.00  0.00    -0.081 Cl
ATOM     24  CAI DB8 d   1      -4.478  17.562 -44.688  0.00  0.00    -0.036 A 
ATOM     25  CAZ DB8 d   1      -4.428  16.770 -45.953  0.00  0.00     0.062 A 
ATOM     26  H7  DB8 d   1      -5.432  17.897 -44.296  0.00  0.00     0.088 H 
ATOM     27 CL2  DB8 d   1      -5.890  16.375 -46.802  0.00  0.00    -0.082 Cl
BRANCH  20  28
ATOM     28  O02 DB8 d   1      -0.723  17.749 -43.825  0.00  0.00    -0.354 OA
BRANCH  28  29
ATOM     29  C01 DB8 d   1       0.358  16.878 -43.861  0.00  0.00     0.010 C 
ATOM     30  H29 DB8 d   1       1.188  17.299 -43.274  0.00  0.00     0.066 H 
ATOM     31  H30 DB8 d   1       0.681  16.737 -44.903  0.00  0.00     0.066 H 
ATOM     32  H31 DB8 d   1       0.062  15.908 -43.435  0.00  0.00     0.066 H 
ENDBRANCH  28  29
ENDBRANCH  20  28
ENDBRANCH  16  18
ENDBRANCH  10  16
BRANCH   8  33
ATOM     33  OAV DB8 d   1      -1.768  14.604 -52.688  0.00  0.00    -0.353 OA
BRANCH  33  34
ATOM     34  CAA DB8 d   1      -2.439  15.823 -52.615  0.00  0.00     0.010 C 
ATOM     35  H1  DB8 d   1      -2.538  16.248 -53.625  0.00  0.00     0.066 H 
ATOM     36  H2  DB8 d   1      -1.870  16.517 -51.979  0.00  0.00     0.066 H 
ATOM     37  H3  DB8 d   1      -3.439  15.666 -52.184  0.00  0.00     0.066 H 
ENDBRANCH  33  34
ENDBRANCH   8  33
BRANCH   9  38
ATOM     38  OAW DB8 d   1      -0.286  12.026 -52.728  0.00  0.00    -0.348 OA
BRANCH  38  39
ATOM     39  CAN DB8 d   1       0.736  11.074 -52.663  0.00  0.00     0.028 C 
ATOM     40  H13 DB8 d   1       1.704  11.571 -52.505  0.00  0.00     0.075 H 
ATOM     41  H14 DB8 d   1       0.545  10.373 -51.837  0.00  0.00     0.075 H 
BRANCH  39  42
ATOM     42  CAM DB8 d   1       0.743  10.325 -53.995  0.00  0.00    -0.022 C 
ATOM     43  H11 DB8 d   1       1.744  10.384 -54.447  0.00  0.00     0.038 H 
ATOM     44  H12 DB8 d   1       0.477   9.271 -53.827  0.00  0.00     0.038 H 
BRANCH  42  45
ATOM     45  CAC DB8 d   1      -0.276  10.967 -54.926  0.00  0.00     0.086 C 
ATOM     46  H4  DB8 d   1      -0.022  12.026 -55.080  0.00  0.00     0.076 H 
ATOM     47  H5  DB8 d   1      -1.281  10.891 -54.485  0.00  0.00     0.076 H 
BRANCH  45  48
ATOM     48  NBH DB8 d   1      -0.243  10.244 -56.237  0.00  0.00    -0.068 N 
ATOM     49  CAP DB8 d   1      -1.308  10.319 -57.236  0.00  0.00     0.106 C 
ATOM     50  CAR DB8 d   1      -0.713   9.949 -58.605  0.00  0.00     0.105 C 
ATOM     51  H18 DB8 d   1      -2.111   9.614 -56.977  0.00  0.00     0.078 H 
ATOM     52  H19 DB8 d   1      -1.714  11.341 -57.271  0.00  0.00     0.078 H 
ATOM     53  NBI DB8 d   1      -0.079   8.660 -58.514  0.00  0.00    -0.072 N 
ATOM     54  H22 DB8 d   1       0.030  10.704 -58.899  0.00  0.00     0.078 H 
ATOM     55  H23 DB8 d   1      -1.515   9.912 -59.357  0.00  0.00     0.078 H 
ATOM     56  CAS DB8 d   1       0.921   8.559 -57.494  0.00  0.00     0.105 C 
ATOM     57  H28 DB8 d   1       0.552   8.760 -59.293  0.00  0.00     0.279 HD
ATOM     58  CAQ DB8 d   1       0.310   8.915 -56.178  0.00  0.00     0.106 C 
ATOM     59  H24 DB8 d   1       1.306   7.529 -57.456  0.00  0.00     0.078 H 
ATOM     60  H25 DB8 d   1       1.746   9.251 -57.717  0.00  0.00     0.078 H 
ATOM     61  H20 DB8 d   1       1.082   8.876 -55.395  0.00  0.00     0.078 H 
ATOM     62  H21 DB8 d   1      -0.489   8.198 -55.941  0.00  0.00     0.078 H 
ATOM     63  H27 DB8 d   1       0.486  10.762 -56.703  0.00  0.00     0.280 HD
BRANCH  53  64
ATOM     64  CAO DB8 d   1      -0.798   7.509 -59.039  0.00  0.00     0.066 C 
ATOM     65  H15 DB8 d   1      -1.510   7.841 -59.809  0.00  0.00     0.068 H 
ATOM     66  H16 DB8 d   1      -1.345   7.015 -58.223  0.00  0.00     0.068 H 
ATOM     67  H17 DB8 d   1      -0.083   6.801 -59.482  0.00  0.00     0.068 H 
ENDBRANCH  53  64
ENDBRANCH  45  48
ENDBRANCH  42  45
ENDBRANCH  39  42
ENDBRANCH  38  39
ENDBRANCH   9  38
TORSDOF 12
