REMARK  22 active torsions:
REMARK  status: ('A' for Active; 'I' for Inactive)
REMARK    1  A    between atoms: N_1  and  CA_2 
REMARK    2  A    between atoms: CA_2  and  C_3 
REMARK    3  A    between atoms: CA_2  and  CB_5 
REMARK       I    between atoms: C_3  and  N_6 
REMARK    4  A    between atoms: N_6  and  CA_7 
REMARK    5  A    between atoms: CA_7  and  C_8 
REMARK    6  A    between atoms: CA_7  and  CB_10 
REMARK       I    between atoms: C_8  and  N_17 
REMARK    7  A    between atoms: CB_10  and  CG_11 
REMARK    8  A    between atoms: CG_11  and  CD_12 
REMARK    9  A    between atoms: CD_12  and  NE_13 
REMARK       I    between atoms: NE_13  and  CZ_14 
REMARK       I    between atoms: CZ_14  and  NH1_15 
REMARK   10  A    between atoms: N_17  and  CA_18 
REMARK   11  A    between atoms: CA_18  and  CB_19 
REMARK   12  A    between atoms: CA_18  and  C_26 
REMARK   13  A    between atoms: CB_19  and  CG2_20 
REMARK   14  A    between atoms: CB_19  and  OG1_21 
REMARK   15  A    between atoms: OG1_21  and  P_22 
REMARK       I    between atoms: C_26  and  N_28 
REMARK   16  A    between atoms: N_28  and  CA_29 
REMARK   17  A    between atoms: CA_29  and  C_30 
REMARK   18  A    between atoms: CA_29  and  CB_32 
REMARK   19  A    between atoms: CB_32  and  CG_33 
REMARK   20  A    between atoms: CG_33  and  CD_34 
REMARK   21  A    between atoms: CD_34  and  CE_35 
REMARK   22  A    between atoms: CE_35  and  NZ_36 
ROOT
ATOM      1  C   ARG d   1     -16.652 -14.622 -27.689  0.00  0.00     0.241 C 
ATOM      2  O   ARG d   1     -16.363 -15.503 -26.827  0.00  0.00    -0.271 OA
ATOM      3  N   TPO d   1     -17.818 -14.561 -28.374  0.00  0.00    -0.344 N 
ATOM      4  H   TPO d   1     -17.969 -13.868 -29.108  0.00  0.00     0.163 HD
ENDROOT
BRANCH   3   5
ATOM      5  CA  TPO d   1     -18.872 -15.551 -28.009  0.00  0.00     0.114 C 
ATOM      6  H   TPO d   1     -19.082 -15.450 -26.944  0.00  0.00     0.091 H 
BRANCH   5   7
ATOM      7  CB  TPO d   1     -20.077 -15.271 -28.883  0.00  0.00     0.076 C 
ATOM      8  H   TPO d   1     -19.885 -15.411 -29.947  0.00  0.00     0.087 H 
BRANCH   7   9
ATOM      9  CG2 TPO d   1     -21.205 -16.266 -28.610  0.00  0.00    -0.049 C 
ATOM     10  H   TPO d   1     -20.854 -17.277 -28.816  0.00  0.00     0.031 H 
ATOM     11  H   TPO d   1     -21.509 -16.192 -27.566  0.00  0.00     0.031 H 
ATOM     12  H   TPO d   1     -22.054 -16.036 -29.254  0.00  0.00     0.031 H 
ENDBRANCH   7   9
BRANCH   7  13
ATOM     13  OG1 TPO d   1     -20.394 -13.927 -28.636  0.00  0.00    -0.275 OA
BRANCH  13  14
ATOM     14  P   TPO d   1     -20.972 -12.956 -29.656  0.00  0.00     0.422 P 
ATOM     15  O1P TPO d   1     -20.155 -12.952 -30.914  0.00  0.00    -0.617 OA
ATOM     16  O2P TPO d   1     -22.518 -13.376 -29.748  0.00  0.00    -0.617 OA
ATOM     17  O3P TPO d   1     -20.996 -11.422 -29.171  0.00  0.00    -0.617 OA
ENDBRANCH  13  14
ENDBRANCH   7  13
ENDBRANCH   5   7
BRANCH   5  18
ATOM     18  C   TPO d   1     -18.436 -16.995 -28.274  0.00  0.00     0.243 C 
ATOM     19  O   TPO d   1     -17.810 -17.272 -29.290  0.00  0.00    -0.271 OA
ATOM     20  N   LYS d   1     -18.745 -17.915 -27.372  0.00  0.00    -0.345 N 
ATOM     21  H   LYS d   1     -19.245 -17.649 -26.523  0.00  0.00     0.163 HD
BRANCH  20  22
ATOM     22  CA  LYS d   1     -18.372 -19.303 -27.592  0.00  0.00     0.096 C 
ATOM     23  H   LYS d   1     -17.325 -19.349 -27.893  0.00  0.00     0.089 H 
BRANCH  22  24
ATOM     24  C   LYS d   1     -19.308 -19.844 -28.682  0.00  0.00     0.196 C 
ATOM     25  O   LYS d   1     -19.064 -19.700 -29.873  0.00  0.00    -0.646 OA
ATOM     26  OXT LYS d   1     -20.367 -20.409 -28.411  0.00  0.00    -0.646 OA
ENDBRANCH  22  24
BRANCH  22  27
ATOM     27  CB  LYS d   1     -18.467 -20.163 -26.327  0.00  0.00    -0.037 C 
ATOM     28  H   LYS d   1     -19.252 -19.739 -25.701  0.00  0.00     0.036 H 
ATOM     29  H   LYS d   1     -17.485 -20.160 -25.855  0.00  0.00     0.036 H 
BRANCH  27  30
ATOM     30  CG  LYS d   1     -18.850 -21.665 -26.614  0.00  0.00    -0.061 C 
ATOM     31  H   LYS d   1     -18.110 -22.047 -27.318  0.00  0.00     0.033 H 
ATOM     32  H   LYS d   1     -19.878 -21.662 -26.976  0.00  0.00     0.033 H 
BRANCH  30  33
ATOM     33  CD  LYS d   1     -18.817 -22.586 -25.404  0.00  0.00    -0.043 C 
ATOM     34  H   LYS d   1     -19.290 -22.069 -24.569  0.00  0.00     0.035 H 
ATOM     35  H   LYS d   1     -17.777 -22.835 -25.193  0.00  0.00     0.035 H 
BRANCH  33  36
ATOM     36  CE  LYS d   1     -19.592 -23.910 -25.659  0.00  0.00     0.080 C 
ATOM     37  H   LYS d   1     -18.871 -24.726 -25.719  0.00  0.00     0.075 H 
ATOM     38  H   LYS d   1     -20.157 -23.806 -26.586  0.00  0.00     0.075 H 
BRANCH  36  39
ATOM     39  NZ  LYS d   1     -20.570 -24.212 -24.529  0.00  0.00    -0.079 N 
ATOM     40  H   LYS d   1     -21.059 -25.084 -24.729  0.00  0.00     0.274 HD
ATOM     41  H   LYS d   1     -20.057 -24.301 -23.652  0.00  0.00     0.274 HD
ATOM     42  H   LYS d   1     -21.245 -23.451 -24.453  0.00  0.00     0.274 HD
ENDBRANCH  36  39
ENDBRANCH  33  36
ENDBRANCH  30  33
ENDBRANCH  27  30
ENDBRANCH  22  27
ENDBRANCH  20  22
ENDBRANCH   5  18
ENDBRANCH   3   5
BRANCH   1  43
ATOM     43  CA  ARG d   1     -15.621 -13.531 -28.053  0.00  0.00     0.089 C 
ATOM     44  H   ARG d   1     -16.125 -12.585 -28.249  0.00  0.00     0.087 H 
BRANCH  43  45
ATOM     45  N   ARG d   1     -14.682 -13.313 -26.941  0.00  0.00    -0.346 N 
ATOM     46  C   ALA d   1     -14.212 -12.110 -26.593  0.00  0.00     0.248 C 
ATOM     47  O   ALA d   1     -14.576 -11.038 -27.103  0.00  0.00    -0.271 OA
ATOM     48  H   ARG d   1     -14.372 -14.124 -26.406  0.00  0.00     0.163 HD
BRANCH  46  49
ATOM     49  CA  ALA d   1     -13.182 -12.108 -25.467  0.00  0.00     0.172 C 
ATOM     50  H   ALA d   1     -12.435 -12.880 -25.651  0.00  0.00     0.098 H 
BRANCH  49  51
ATOM     51  N   ALA d   1     -12.525 -10.776 -25.433  0.00  0.00    -0.067 N 
ATOM     52  H   ALA d   1     -12.097 -10.586 -26.339  0.00  0.00     0.275 HD
ATOM     53  H   ALA d   1     -13.222 -10.060 -25.228  0.00  0.00     0.275 HD
ATOM     54  H   ALA d   1     -11.807 -10.771 -24.709  0.00  0.00     0.275 HD
ENDBRANCH  49  51
BRANCH  49  55
ATOM     55  CB  ALA d   1     -13.845 -12.435 -24.109  0.00  0.00    -0.042 C 
ATOM     56  H   ALA d   1     -14.606 -11.687 -23.888  0.00  0.00     0.030 H 
ATOM     57  H   ALA d   1     -14.307 -13.421 -24.160  0.00  0.00     0.030 H 
ATOM     58  H   ALA d   1     -13.088 -12.427 -23.325  0.00  0.00     0.030 H 
ENDBRANCH  49  55
ENDBRANCH  46  49
ENDBRANCH  43  45
BRANCH  43  59
ATOM     59  CB  ARG d   1     -14.863 -14.012 -29.298  0.00  0.00    -0.036 C 
ATOM     60  H   ARG d   1     -14.094 -13.272 -29.518  0.00  0.00     0.036 H 
ATOM     61  H   ARG d   1     -15.593 -14.134 -30.098  0.00  0.00     0.036 H 
BRANCH  59  62
ATOM     62  CG  ARG d   1     -14.162 -15.359 -29.107  0.00  0.00    -0.048 C 
ATOM     63  H   ARG d   1     -14.931 -16.129 -29.046  0.00  0.00     0.035 H 
ATOM     64  H   ARG d   1     -13.555 -15.293 -28.204  0.00  0.00     0.035 H 
BRANCH  62  65
ATOM     65  CD  ARG d   1     -13.217 -15.724 -30.289  0.00  0.00     0.009 C 
ATOM     66  H   ARG d   1     -12.757 -14.810 -30.664  0.00  0.00     0.064 H 
ATOM     67  H   ARG d   1     -13.803 -16.213 -31.067  0.00  0.00     0.064 H 
BRANCH  65  68
ATOM     68  NE  ARG d   1     -12.158 -16.639 -29.851  0.00  0.00    -0.227 N 
ATOM     69  CZ  ARG d   1     -12.283 -17.964 -29.717  0.00  0.00     0.665 C 
ATOM     70  NH1 ARG d   1     -11.243 -18.673 -29.288  0.00  0.00    -0.235 N 
ATOM     71  NH2 ARG d   1     -13.427 -18.594 -30.011  0.00  0.00    -0.235 N 
ATOM     72  H   ARG d   1     -10.364 -18.206 -29.066  0.00  0.00     0.174 HD
ATOM     73  H   ARG d   1     -11.324 -19.684 -29.181  0.00  0.00     0.174 HD
ATOM     74  H   ARG d   1     -14.230 -18.062 -30.346  0.00  0.00     0.174 HD
ATOM     75  H   ARG d   1     -13.495 -19.606 -29.900  0.00  0.00     0.174 HD
ATOM     76  H   ARG d   1     -11.250 -16.231 -29.630  0.00  0.00     0.177 HD
ENDBRANCH  65  68
ENDBRANCH  62  65
ENDBRANCH  59  62
ENDBRANCH  43  59
ENDBRANCH   1  43
TORSDOF 22
