REMARK  28 active torsions:
REMARK  status: ('A' for Active; 'I' for Inactive)
REMARK    1  A    between atoms: N_1  and  CA_2 
REMARK    2  A    between atoms: CA_2  and  C_3 
REMARK    3  A    between atoms: CA_2  and  CB_5 
REMARK       I    between atoms: C_3  and  N_6 
REMARK    4  A    between atoms: N_6  and  CA_7 
REMARK    5  A    between atoms: CA_7  and  C_8 
REMARK    6  A    between atoms: CA_7  and  CB_10 
REMARK       I    between atoms: C_8  and  N_17 
REMARK    7  A    between atoms: CB_10  and  CG_11 
REMARK    8  A    between atoms: CG_11  and  CD_12 
REMARK    9  A    between atoms: CD_12  and  NE_13 
REMARK       I    between atoms: NE_13  and  CZ_14 
REMARK       I    between atoms: CZ_14  and  NH1_15 
REMARK   10  A    between atoms: N_17  and  CA_18 
REMARK   11  A    between atoms: CA_18  and  CB_19 
REMARK   12  A    between atoms: CA_18  and  C_26 
REMARK   13  A    between atoms: CB_19  and  CG2_20 
REMARK   14  A    between atoms: CB_19  and  OG1_21 
REMARK   15  A    between atoms: OG1_21  and  P_22 
REMARK       I    between atoms: C_26  and  N_28 
REMARK   16  A    between atoms: N_28  and  CA_29 
REMARK   17  A    between atoms: CA_29  and  C_30 
REMARK   18  A    between atoms: CA_29  and  CB_32 
REMARK       I    between atoms: C_30  and  N_37 
REMARK   19  A    between atoms: CB_32  and  CG_33 
REMARK   20  A    between atoms: CG_33  and  CD_34 
REMARK   21  A    between atoms: CD_34  and  CE_35 
REMARK   22  A    between atoms: CE_35  and  NZ_36 
REMARK   23  A    between atoms: N_37  and  CA_38 
REMARK   24  A    between atoms: CA_38  and  C_39 
REMARK   25  A    between atoms: CA_38  and  CB_41 
REMARK       I    between atoms: C_39  and  N_42 
REMARK   26  A    between atoms: N_42  and  CA_43 
REMARK   27  A    between atoms: CA_43  and  C_44 
REMARK   28  A    between atoms: CA_43  and  CB_46 
ROOT
ATOM      1  CA  TPO d   1     -33.584  -3.276   3.215  0.00  0.00     0.114 C 
ATOM      2  H22 TPO d   1     -33.036  -2.809   2.383  0.00  0.00     0.091 H 
ENDROOT
BRANCH   1   3
ATOM      3  N   TPO d   1     -34.171  -4.552   2.720  0.00  0.00    -0.344 N 
ATOM      4  C   ARG d   1     -33.671  -5.684   2.175  0.00  0.00     0.241 C 
ATOM      5  O   ARG d   1     -32.412  -5.908   2.058  0.00  0.00    -0.271 OA
ATOM      6  H21 TPO d   1     -35.166  -4.578   2.812  0.00  0.00     0.163 HD
BRANCH   4   7
ATOM      7  CA  ARG d   1     -34.704  -6.744   1.705  0.00  0.00     0.089 C 
ATOM      8  H9  ARG d   1     -35.532  -6.236   1.190  0.00  0.00     0.087 H 
BRANCH   7   9
ATOM      9  N   ARG d   1     -34.067  -7.676   0.772  0.00  0.00    -0.346 N 
ATOM     10  C   ALA d   1     -34.755  -8.348  -0.143  0.00  0.00     0.248 C 
ATOM     11  O   ALA d   1     -35.957  -8.165  -0.350  0.00  0.00    -0.271 OA
ATOM     12  H8  ARG d   1     -33.078  -7.811   0.826  0.00  0.00     0.163 HD
BRANCH  10  13
ATOM     13  CA  ALA d   1     -33.971  -9.385  -0.948  0.00  0.00     0.172 C 
ATOM     14  H4  ALA d   1     -33.733 -10.221  -0.274  0.00  0.00     0.098 H 
BRANCH  13  15
ATOM     15  N   ALA d   1     -34.773  -9.930  -2.086  0.00  0.00    -0.067 N 
ATOM     16  H1  ALA d   1     -34.223 -10.608  -2.590  0.00  0.00     0.275 HD
ATOM     17  H2  ALA d   1     -35.031  -9.178  -2.706  0.00  0.00     0.275 HD
ATOM     18  H3  ALA d   1     -35.606 -10.371  -1.729  0.00  0.00     0.275 HD
ENDBRANCH  13  15
BRANCH  13  19
ATOM     19  CB  ALA d   1     -32.658  -8.803  -1.455  0.00  0.00    -0.042 C 
ATOM     20  H5  ALA d   1     -32.081  -8.407  -0.607  0.00  0.00     0.030 H 
ATOM     21  H6  ALA d   1     -32.867  -7.991  -2.167  0.00  0.00     0.030 H 
ATOM     22  H7  ALA d   1     -32.078  -9.591  -1.958  0.00  0.00     0.030 H 
ENDBRANCH  13  19
ENDBRANCH  10  13
ENDBRANCH   7   9
BRANCH   7  23
ATOM     23  CB  ARG d   1     -35.262  -7.492   2.929  0.00  0.00    -0.036 C 
ATOM     24  H10 ARG d   1     -36.058  -8.173   2.594  0.00  0.00     0.036 H 
ATOM     25  H11 ARG d   1     -35.681  -6.756   3.631  0.00  0.00     0.036 H 
BRANCH  23  26
ATOM     26  CG  ARG d   1     -34.194  -8.306   3.653  0.00  0.00    -0.048 C 
ATOM     27  H12 ARG d   1     -33.371  -7.620   3.902  0.00  0.00     0.035 H 
ATOM     28  H13 ARG d   1     -33.833  -9.072   2.951  0.00  0.00     0.035 H 
BRANCH  26  29
ATOM     29  CD  ARG d   1     -34.598  -9.022   4.943  0.00  0.00     0.009 C 
ATOM     30  H14 ARG d   1     -35.499  -9.627   4.766  0.00  0.00     0.064 H 
ATOM     31  H15 ARG d   1     -34.802  -8.282   5.731  0.00  0.00     0.064 H 
BRANCH  29  32
ATOM     32  NE  ARG d   1     -33.484  -9.896   5.357  0.00  0.00    -0.227 N 
ATOM     33  CZ  ARG d   1     -32.337  -9.470   5.899  0.00  0.00     0.665 C 
ATOM     34  NH1 ARG d   1     -32.140  -8.177   6.137  0.00  0.00    -0.235 N 
ATOM     35  NH2 ARG d   1     -31.370 -10.335   6.201  0.00  0.00    -0.235 N 
ATOM     36  H17 ARG d   1     -31.254  -7.859   6.554  0.00  0.00     0.174 HD
ATOM     37  H18 ARG d   1     -32.874  -7.493   5.904  0.00  0.00     0.174 HD
ATOM     38  H19 ARG d   1     -31.505 -11.341   6.024  0.00  0.00     0.174 HD
ATOM     39  H20 ARG d   1     -30.488  -9.998   6.612  0.00  0.00     0.174 HD
ATOM     40  H16 ARG d   1     -33.598 -10.910   5.218  0.00  0.00     0.177 HD
ENDBRANCH  29  32
ENDBRANCH  26  29
ENDBRANCH  23  26
ENDBRANCH   7  23
ENDBRANCH   4   7
ENDBRANCH   1   3
BRANCH   1  41
ATOM     41  CB  TPO d   1     -34.750  -2.338   3.603  0.00  0.00     0.076 C 
ATOM     42  H23 TPO d   1     -35.205  -2.667   4.549  0.00  0.00     0.087 H 
BRANCH  41  43
ATOM     43  CG2 TPO d   1     -34.245  -0.898   3.754  0.00  0.00    -0.049 C 
ATOM     44  H24 TPO d   1     -35.084  -0.242   4.030  0.00  0.00     0.031 H 
ATOM     45  H25 TPO d   1     -33.813  -0.559   2.801  0.00  0.00     0.031 H 
ATOM     46  H26 TPO d   1     -33.476  -0.860   4.540  0.00  0.00     0.031 H 
ENDBRANCH  41  43
BRANCH  41  47
ATOM     47  OG1 TPO d   1     -35.694  -2.425   2.549  0.00  0.00    -0.275 OA
BRANCH  47  48
ATOM     48  P   TPO d   1     -37.053  -1.702   2.730  0.00  0.00     0.422 P 
ATOM     49  O1P TPO d   1     -37.855  -2.646   3.528  0.00  0.00    -0.617 OA
ATOM     50  O2P TPO d   1     -36.809  -0.277   3.420  0.00  0.00    -0.617 OA
ATOM     51  O3P TPO d   1     -37.784  -1.244   1.333  0.00  0.00    -0.617 OA
ENDBRANCH  47  48
ENDBRANCH  41  47
ENDBRANCH   1  41
BRANCH   1  52
ATOM     52  C   TPO d   1     -32.551  -3.493   4.378  0.00  0.00     0.243 C 
ATOM     53  O   TPO d   1     -32.909  -4.019   5.407  0.00  0.00    -0.271 OA
ATOM     54  N   LYS d   1     -31.296  -3.105   4.179  0.00  0.00    -0.346 N 
ATOM     55  H27 LYS d   1     -31.041  -2.752   3.279  0.00  0.00     0.163 HD
BRANCH  54  56
ATOM     56  CA  LYS d   1     -30.266  -3.173   5.228  0.00  0.00     0.089 C 
ATOM     57  H28 LYS d   1     -29.942  -4.218   5.339  0.00  0.00     0.087 H 
BRANCH  56  58
ATOM     58  C   LYS d   1     -30.782  -2.664   6.555  0.00  0.00     0.241 C 
ATOM     59  O   LYS d   1     -31.340  -1.580   6.594  0.00  0.00    -0.271 OA
ATOM     60  N   GLN d   1     -30.570  -3.429   7.633  0.00  0.00    -0.346 N 
ATOM     61  H40 GLN d   1     -30.057  -4.280   7.522  0.00  0.00     0.163 HD
BRANCH  60  62
ATOM     62  CA  GLN d   1     -31.060  -3.072   8.977  0.00  0.00     0.086 C 
ATOM     63  H41 GLN d   1     -31.854  -2.321   8.855  0.00  0.00     0.086 H 
BRANCH  62  64
ATOM     64  C   GLN d   1     -29.952  -2.430   9.864  0.00  0.00     0.240 C 
ATOM     65  O   GLN d   1     -28.766  -2.442   9.501  0.00  0.00    -0.271 OA
ATOM     66  N   THR d   1     -30.359  -1.861  11.008  0.00  0.00    -0.345 N 
ATOM     67  H45 THR d   1     -31.337  -1.877  11.215  0.00  0.00     0.163 HD
BRANCH  66  68
ATOM     68  CA  THR d   1     -29.447  -1.203  11.996  0.00  0.00     0.093 C 
ATOM     69  H46 THR d   1     -30.017  -1.079  12.929  0.00  0.00     0.089 H 
BRANCH  68  70
ATOM     70  C   THR d   1     -29.022   0.185  11.511  0.00  0.00     0.196 C 
ATOM     71  O   THR d   1     -29.744   0.828  10.747  0.00  0.00    -0.646 OA
ATOM     72  OXT THR d   1     -27.953   0.675  11.879  0.00  0.00    -0.646 OA
ENDBRANCH  68  70
BRANCH  68  73
ATOM     73  CB  THR d   1     -28.173  -2.034  12.334  0.00  0.00    -0.048 C 
ATOM     74  H47 THR d   1     -27.559  -1.484  13.063  0.00  0.00     0.030 H 
ATOM     75  H48 THR d   1     -27.590  -2.202  11.416  0.00  0.00     0.030 H 
ATOM     76  H49 THR d   1     -28.470  -3.003  12.762  0.00  0.00     0.030 H 
ENDBRANCH  68  73
ENDBRANCH  66  68
ENDBRANCH  62  64
BRANCH  62  77
ATOM     77  CB  GLN d   1     -31.685  -4.312   9.637  0.00  0.00    -0.049 C 
ATOM     78  H42 GLN d   1     -32.051  -4.048  10.640  0.00  0.00     0.030 H 
ATOM     79  H43 GLN d   1     -30.927  -5.104   9.720  0.00  0.00     0.030 H 
ATOM     80  H44 GLN d   1     -32.524  -4.671   9.023  0.00  0.00     0.030 H 
ENDBRANCH  62  77
ENDBRANCH  60  62
ENDBRANCH  56  58
BRANCH  56  81
ATOM     81  CB  LYS d   1     -29.075  -2.303   4.852  0.00  0.00    -0.038 C 
ATOM     82  H29 LYS d   1     -29.441  -1.279   4.686  0.00  0.00     0.036 H 
ATOM     83  H30 LYS d   1     -28.650  -2.696   3.917  0.00  0.00     0.036 H 
BRANCH  81  84
ATOM     84  CG  LYS d   1     -27.957  -2.241   5.888  0.00  0.00    -0.061 C 
ATOM     85  H31 LYS d   1     -27.218  -3.025   5.665  0.00  0.00     0.033 H 
ATOM     86  H32 LYS d   1     -28.384  -2.413   6.887  0.00  0.00     0.033 H 
BRANCH  84  87
ATOM     87  CD  LYS d   1     -27.260  -0.881   5.872  0.00  0.00    -0.043 C 
ATOM     88  H33 LYS d   1     -27.775  -0.218   6.583  0.00  0.00     0.035 H 
ATOM     89  H34 LYS d   1     -27.337  -0.462   4.858  0.00  0.00     0.035 H 
BRANCH  87  90
ATOM     90  CE  LYS d   1     -25.780  -0.948   6.257  0.00  0.00     0.080 C 
ATOM     91  H35 LYS d   1     -25.269  -1.665   5.597  0.00  0.00     0.075 H 
ATOM     92  H36 LYS d   1     -25.695  -1.286   7.300  0.00  0.00     0.075 H 
BRANCH  90  93
ATOM     93  NZ  LYS d   1     -25.125   0.393   6.123  0.00  0.00    -0.079 N 
ATOM     94  H37 LYS d   1     -24.154   0.320   6.382  0.00  0.00     0.274 HD
ATOM     95  H38 LYS d   1     -25.585   1.054   6.729  0.00  0.00     0.274 HD
ATOM     96  H39 LYS d   1     -25.195   0.707   5.168  0.00  0.00     0.274 HD
ENDBRANCH  90  93
ENDBRANCH  87  90
ENDBRANCH  84  87
ENDBRANCH  81  84
ENDBRANCH  56  81
ENDBRANCH  54  56
ENDBRANCH   1  52
TORSDOF 28
