REMARK  24 active torsions:
REMARK  status: ('A' for Active; 'I' for Inactive)
REMARK    1  A    between atoms: N_1  and  CA_2 
REMARK    2  A    between atoms: CA_2  and  C_3 
REMARK    3  A    between atoms: CA_2  and  CB_5 
REMARK       I    between atoms: C_3  and  N_6 
REMARK    4  A    between atoms: N_6  and  CA_7 
REMARK    5  A    between atoms: CA_7  and  C_8 
REMARK    6  A    between atoms: CA_7  and  CB_10 
REMARK       I    between atoms: C_8  and  N_17 
REMARK    7  A    between atoms: CB_10  and  CG_11 
REMARK    8  A    between atoms: CG_11  and  CD_12 
REMARK    9  A    between atoms: CD_12  and  NE_13 
REMARK       I    between atoms: NE_13  and  CZ_14 
REMARK       I    between atoms: CZ_14  and  NH1_15 
REMARK   10  A    between atoms: N_17  and  CA_18 
REMARK   11  A    between atoms: CA_18  and  C_19 
REMARK   12  A    between atoms: CA_18  and  CB_21 
REMARK       I    between atoms: C_19  and  N_24 
REMARK   13  A    between atoms: CB_21  and  OG1_22 
REMARK   14  A    between atoms: CB_21  and  CG2_23 
REMARK   15  A    between atoms: N_24  and  CA_25 
REMARK   16  A    between atoms: CA_25  and  C_26 
REMARK   17  A    between atoms: CA_25  and  CB_28 
REMARK       I    between atoms: C_26  and  N_33 
REMARK   18  A    between atoms: CB_28  and  CG_29 
REMARK   19  A    between atoms: CG_29  and  CD_30 
REMARK   20  A    between atoms: CD_30  and  CE_31 
REMARK   21  A    between atoms: CE_31  and  NZ_32 
REMARK   22  A    between atoms: N_33  and  CA_34 
REMARK   23  A    between atoms: CA_34  and  C_35 
REMARK   24  A    between atoms: CA_34  and  CB_37 
ROOT
ATOM      1  CA  THR d   1     -60.340 -69.109  35.164  0.00  0.00     0.113 C 
ATOM      2  H22 THR d   1     -59.740 -68.693  34.341  0.00  0.00     0.091 H 
ENDROOT
BRANCH   1   3
ATOM      3  N   THR d   1     -61.054 -70.262  34.627  0.00  0.00    -0.344 N 
ATOM      4  C   ARG d   1     -60.454 -71.291  34.051  0.00  0.00     0.241 C 
ATOM      5  O   ARG d   1     -59.234 -71.402  33.943  0.00  0.00    -0.271 OA
ATOM      6  H21 THR d   1     -62.051 -70.275  34.698  0.00  0.00     0.163 HD
BRANCH   4   7
ATOM      7  CA  ARG d   1     -61.400 -72.393  33.623  0.00  0.00     0.089 C 
ATOM      8  H9  ARG d   1     -62.294 -71.946  33.164  0.00  0.00     0.087 H 
BRANCH   7   9
ATOM      9  N   ARG d   1     -60.750 -73.244  32.646  0.00  0.00    -0.346 N 
ATOM     10  C   ALA d   1     -61.452 -73.837  31.680  0.00  0.00     0.248 C 
ATOM     11  O   ALA d   1     -62.686 -73.672  31.511  0.00  0.00    -0.271 OA
ATOM     12  H8  ARG d   1     -59.762 -73.388  32.697  0.00  0.00     0.163 HD
BRANCH  10  13
ATOM     13  CA  ALA d   1     -60.641 -74.752  30.772  0.00  0.00     0.172 C 
ATOM     14  H4  ALA d   1     -60.120 -75.495  31.394  0.00  0.00     0.098 H 
BRANCH  13  15
ATOM     15  N   ALA d   1     -61.535 -75.470  29.830  0.00  0.00    -0.067 N 
ATOM     16  H1  ALA d   1     -60.985 -76.071  29.236  0.00  0.00     0.275 HD
ATOM     17  H2  ALA d   1     -62.032 -74.801  29.263  0.00  0.00     0.275 HD
ATOM     18  H3  ALA d   1     -62.195 -76.026  30.351  0.00  0.00     0.275 HD
ENDBRANCH  13  15
BRANCH  13  19
ATOM     19  CB  ALA d   1     -59.606 -73.941  30.018  0.00  0.00    -0.042 C 
ATOM     20  H5  ALA d   1     -58.956 -73.419  30.735  0.00  0.00     0.030 H 
ATOM     21  H6  ALA d   1     -60.113 -73.204  29.378  0.00  0.00     0.030 H 
ATOM     22  H7  ALA d   1     -58.998 -74.612  29.393  0.00  0.00     0.030 H 
ENDBRANCH  13  19
ENDBRANCH  10  13
ENDBRANCH   7   9
BRANCH   7  23
ATOM     23  CB  ARG d   1     -61.826 -73.195  34.873  0.00  0.00    -0.036 C 
ATOM     24  H10 ARG d   1     -62.692 -73.821  34.612  0.00  0.00     0.036 H 
ATOM     25  H11 ARG d   1     -62.111 -72.487  35.666  0.00  0.00     0.036 H 
BRANCH  23  26
ATOM     26  CG  ARG d   1     -60.710 -74.097  35.400  0.00  0.00    -0.048 C 
ATOM     27  H12 ARG d   1     -59.770 -73.527  35.377  0.00  0.00     0.035 H 
ATOM     28  H13 ARG d   1     -60.628 -74.966  34.731  0.00  0.00     0.035 H 
BRANCH  26  29
ATOM     29  CD  ARG d   1     -60.918 -74.609  36.819  0.00  0.00     0.009 C 
ATOM     30  H14 ARG d   1     -61.922 -75.052  36.901  0.00  0.00     0.064 H 
ATOM     31  H15 ARG d   1     -60.829 -73.769  37.524  0.00  0.00     0.064 H 
BRANCH  29  32
ATOM     32  NE  ARG d   1     -59.909 -75.629  37.149  0.00  0.00    -0.227 N 
ATOM     33  CZ  ARG d   1     -58.629 -75.373  37.420  0.00  0.00     0.665 C 
ATOM     34  NH1 ARG d   1     -58.179 -74.123  37.403  0.00  0.00    -0.235 N 
ATOM     35  NH2 ARG d   1     -57.785 -76.368  37.696  0.00  0.00    -0.235 N 
ATOM     36  H17 ARG d   1     -57.190 -73.929  37.613  0.00  0.00     0.174 HD
ATOM     37  H18 ARG d   1     -58.820 -73.348  37.180  0.00  0.00     0.174 HD
ATOM     38  H19 ARG d   1     -58.123 -77.341  37.712  0.00  0.00     0.174 HD
ATOM     39  H20 ARG d   1     -56.795 -76.164  37.893  0.00  0.00     0.174 HD
ATOM     40  H16 ARG d   1     -60.214 -76.612  37.172  0.00  0.00     0.177 HD
ENDBRANCH  29  32
ENDBRANCH  26  29
ENDBRANCH  23  26
ENDBRANCH   7  23
ENDBRANCH   4   7
ENDBRANCH   1   3
BRANCH   1  41
ATOM     41  C   THR d   1     -59.337 -69.428  36.314  0.00  0.00     0.243 C 
ATOM     42  O   THR d   1     -59.360 -70.521  36.896  0.00  0.00    -0.271 OA
ATOM     43  N   LYS d   1     -58.456 -68.476  36.614  0.00  0.00    -0.346 N 
ATOM     44  H28 LYS d   1     -58.571 -67.572  36.202  0.00  0.00     0.163 HD
BRANCH  43  45
ATOM     45  CA  LYS d   1     -57.310 -68.696  37.534  0.00  0.00     0.089 C 
ATOM     46  H29 LYS d   1     -56.845 -69.644  37.226  0.00  0.00     0.087 H 
BRANCH  45  47
ATOM     47  C   LYS d   1     -57.606 -68.831  39.068  0.00  0.00     0.241 C 
ATOM     48  O   LYS d   1     -58.451 -68.121  39.612  0.00  0.00    -0.271 OA
ATOM     49  N   GLN d   1     -56.874 -69.733  39.745  0.00  0.00    -0.345 N 
ATOM     50  H41 GLN d   1     -56.296 -70.354  39.215  0.00  0.00     0.163 HD
BRANCH  49  51
ATOM     51  CA  GLN d   1     -56.863 -69.873  41.229  0.00  0.00     0.093 C 
ATOM     52  H42 GLN d   1     -57.725 -69.321  41.632  0.00  0.00     0.089 H 
BRANCH  51  53
ATOM     53  C   GLN d   1     -55.578 -69.295  41.843  0.00  0.00     0.196 C 
ATOM     54  O   GLN d   1     -55.485 -68.103  42.155  0.00  0.00    -0.646 OA
ATOM     55  OXT GLN d   1     -54.583 -69.998  42.051  0.00  0.00    -0.646 OA
ENDBRANCH  51  53
BRANCH  51  56
ATOM     56  CB  GLN d   1     -56.980 -71.349  41.648  0.00  0.00    -0.048 C 
ATOM     57  H43 GLN d   1     -56.969 -71.421  42.746  0.00  0.00     0.030 H 
ATOM     58  H44 GLN d   1     -56.132 -71.916  41.235  0.00  0.00     0.030 H 
ATOM     59  H45 GLN d   1     -57.922 -71.766  41.263  0.00  0.00     0.030 H 
ENDBRANCH  51  56
ENDBRANCH  49  51
ENDBRANCH  45  47
BRANCH  45  60
ATOM     60  CB  LYS d   1     -56.281 -67.565  37.324  0.00  0.00    -0.038 C 
ATOM     61  H30 LYS d   1     -56.581 -66.697  37.930  0.00  0.00     0.036 H 
ATOM     62  H31 LYS d   1     -56.275 -67.285  36.260  0.00  0.00     0.036 H 
BRANCH  60  63
ATOM     63  CG  LYS d   1     -54.883 -67.979  37.726  0.00  0.00    -0.061 C 
ATOM     64  H32 LYS d   1     -54.466 -68.605  36.923  0.00  0.00     0.033 H 
ATOM     65  H33 LYS d   1     -54.953 -68.569  38.652  0.00  0.00     0.033 H 
BRANCH  63  66
ATOM     66  CD  LYS d   1     -53.936 -66.835  37.969  0.00  0.00    -0.043 C 
ATOM     67  H34 LYS d   1     -54.358 -66.153  38.722  0.00  0.00     0.035 H 
ATOM     68  H35 LYS d   1     -53.765 -66.285  37.032  0.00  0.00     0.035 H 
BRANCH  66  69
ATOM     69  CE  LYS d   1     -52.621 -67.419  38.476  0.00  0.00     0.080 C 
ATOM     70  H36 LYS d   1     -52.410 -68.357  37.941  0.00  0.00     0.075 H 
ATOM     71  H37 LYS d   1     -52.705 -67.622  39.554  0.00  0.00     0.075 H 
BRANCH  69  72
ATOM     72  NZ  LYS d   1     -51.511 -66.461  38.243  0.00  0.00    -0.079 N 
ATOM     73  H38 LYS d   1     -50.648 -66.858  38.582  0.00  0.00     0.274 HD
ATOM     74  H39 LYS d   1     -51.701 -65.601  38.733  0.00  0.00     0.274 HD
ATOM     75  H40 LYS d   1     -51.430 -66.274  37.256  0.00  0.00     0.274 HD
ENDBRANCH  69  72
ENDBRANCH  66  69
ENDBRANCH  63  66
ENDBRANCH  60  63
ENDBRANCH  45  60
ENDBRANCH  43  45
ENDBRANCH   1  41
BRANCH   1  76
ATOM     76  CB  THR d   1     -61.371 -68.044  35.568  0.00  0.00     0.060 C 
ATOM     77  H23 THR d   1     -62.133 -67.983  34.777  0.00  0.00     0.086 H 
BRANCH  76  78
ATOM     78  OG1 THR d   1     -60.697 -66.798  35.634  0.00  0.00    -0.393 OA
ATOM     79  H24 THR d   1     -61.313 -66.119  35.883  0.00  0.00     0.210 HD
ENDBRANCH  76  78
BRANCH  76  80
ATOM     80  CG2 THR d   1     -62.120 -68.407  36.921  0.00  0.00    -0.050 C 
ATOM     81  H25 THR d   1     -62.844 -67.615  37.163  0.00  0.00     0.031 H 
ATOM     82  H26 THR d   1     -61.385 -68.494  37.735  0.00  0.00     0.031 H 
ATOM     83  H27 THR d   1     -62.650 -69.364  36.802  0.00  0.00     0.031 H 
ENDBRANCH  76  80
ENDBRANCH   1  76
TORSDOF 24
