REMARK  11 active torsions:
REMARK  status: ('A' for Active; 'I' for Inactive)
REMARK    1  A    between atoms: C1_1  and  S2_2 
REMARK    2  A    between atoms: S2_2  and  O3_3 
REMARK    3  A    between atoms: S2_2  and  C4_4 
REMARK    4  A    between atoms: C7_7  and  O10_10 
REMARK    5  A    between atoms: O10_10  and  P11_11 
REMARK    6  A    between atoms: P11_11  and  O13_13 
REMARK    7  A    between atoms: P11_11  and  O16_16 
REMARK    8  A    between atoms: O13_13  and  C14_14 
REMARK    9  A    between atoms: C14_14  and  C15_15 
REMARK   10  A    between atoms: O16_16  and  C17_17 
REMARK   11  A    between atoms: C17_17  and  C18_18 
ROOT
ATOM      1  O10 FST d   1     -12.484  18.798 -23.525  0.00  0.00    -0.272 OA
ENDROOT
BRANCH   1   2
ATOM      2  C7  FST d   1     -13.700  18.331 -23.090  0.00  0.00     0.079 A 
ATOM      3  C6  FST d   1     -13.783  17.281 -22.183  0.00  0.00    -0.049 A 
ATOM      4  C5  FST d   1     -15.030  16.819 -21.765  0.00  0.00    -0.063 A 
ATOM      5  H6  FST d   1     -12.879  16.822 -21.801  0.00  0.00     0.087 H 
ATOM      6  C4  FST d   1     -16.201  17.394 -22.253  0.00  0.00     0.015 A 
ATOM      7  H5  FST d   1     -15.089  16.004 -21.053  0.00  0.00     0.085 H 
ATOM      8  C9  FST d   1     -16.115  18.443 -23.161  0.00  0.00    -0.063 A 
ATOM      9  C8  FST d   1     -14.869  18.904 -23.579  0.00  0.00    -0.049 A 
ATOM     10  H8  FST d   1     -17.019  18.903 -23.544  0.00  0.00     0.085 H 
ATOM     11  H7  FST d   1     -14.810  19.718 -24.293  0.00  0.00     0.087 H 
BRANCH   6  12
ATOM     12  S2  FST d   1     -17.628  16.853 -21.761  0.00  0.00    -0.062 S 
BRANCH  12  13
ATOM     13  C1  FST d   1     -18.320  17.970 -20.736  0.00  0.00    -0.017 C 
ATOM     14  H1  FST d   1     -17.638  18.169 -19.896  0.00  0.00     0.044 H 
ATOM     15  H2  FST d   1     -19.271  17.574 -20.350  0.00  0.00     0.044 H 
ATOM     16  H3  FST d   1     -18.508  18.904 -21.285  0.00  0.00     0.044 H 
ENDBRANCH  12  13
BRANCH  12  17
ATOM     17  O3  FST d   1     -18.644  16.550 -23.021  0.00  0.00    -0.337 OA
ATOM     18  H4  FST d   1     -18.245  15.913 -23.602  0.00  0.00     0.227 HD
ENDBRANCH  12  17
ENDBRANCH   6  12
ENDBRANCH   1   2
BRANCH   1  19
ATOM     19  P11 FST d   1     -11.283  19.210 -22.533  0.00  0.00     0.333 P 
ATOM     20  S12 FST d   1     -10.163  20.618 -23.284  0.00  0.00    -0.007 SA
BRANCH  19  21
ATOM     21  O13 FST d   1     -11.966  19.620 -21.134  0.00  0.00    -0.314 OA
BRANCH  21  22
ATOM     22  C14 FST d   1     -12.865  20.722 -21.057  0.00  0.00     0.025 C 
ATOM     23  H9  FST d   1     -12.697  21.268 -20.117  0.00  0.00     0.074 H 
ATOM     24  H10 FST d   1     -13.901  20.353 -21.087  0.00  0.00     0.074 H 
BRANCH  22  25
ATOM     25  C15 FST d   1     -12.625  21.649 -22.228  0.00  0.00    -0.056 C 
ATOM     26  H11 FST d   1     -13.319  22.501 -22.170  0.00  0.00     0.030 H 
ATOM     27  H12 FST d   1     -12.793  21.103 -23.168  0.00  0.00     0.030 H 
ATOM     28  H13 FST d   1     -11.589  22.017 -22.198  0.00  0.00     0.030 H 
ENDBRANCH  22  25
ENDBRANCH  21  22
ENDBRANCH  19  21
BRANCH  19  29
ATOM     29  O16 FST d   1     -10.459  17.858 -22.242  0.00  0.00    -0.314 OA
BRANCH  29  30
ATOM     30  C17 FST d   1      -9.798  17.658 -20.993  0.00  0.00     0.025 C 
ATOM     31  H14 FST d   1     -10.154  18.404 -20.267  0.00  0.00     0.074 H 
ATOM     32  H15 FST d   1      -8.713  17.770 -21.131  0.00  0.00     0.074 H 
BRANCH  30  33
ATOM     33  C18 FST d   1     -10.099  16.268 -20.475  0.00  0.00    -0.056 C 
ATOM     34  H16 FST d   1      -9.588  16.117 -19.512  0.00  0.00     0.030 H 
ATOM     35  H17 FST d   1      -9.743  15.521 -21.200  0.00  0.00     0.030 H 
ATOM     36  H18 FST d   1     -11.184  16.156 -20.336  0.00  0.00     0.030 H 
ENDBRANCH  30  33
ENDBRANCH  29  30
ENDBRANCH  19  29
ENDBRANCH   1  19
TORSDOF 11
