REMARK  3 active torsions:
REMARK  status: ('A' for Active; 'I' for Inactive)
REMARK    1  A    between atoms: C3_5  and  C4_6 
REMARK       I    between atoms: C4_6  and  N5_8 
REMARK    2  A    between atoms: C8_11  and  C11_14 
REMARK    3  A    between atoms: C10_13  and  C26_29 
ROOT
ATOM      1  C4  508 d   1      30.668  36.370   1.281  0.00  0.00     0.227 C 
ATOM      2  O   508 d   1      29.488  36.220   0.989  0.00  0.00    -0.273 OA
ATOM      3  N5  508 d   1      31.670  35.803   0.571  0.00  0.00    -0.343 N 
ATOM      4  C6  508 d   1      33.109  35.908   0.877  0.00  0.00    -0.001 C 
ATOM      5  C7  508 d   1      33.771  36.790  -0.188  0.00  0.00    -0.043 C 
ATOM      6  C8  508 d   1      32.879  36.845  -1.435  0.00  0.00    -0.025 C 
ATOM      7  C9  508 d   1      32.271  35.467  -1.763  0.00  0.00    -0.035 C 
ATOM      8  C10 508 d   1      31.372  34.971  -0.611  0.00  0.00     0.041 C 
ATOM      9  H   508 d   1      33.563  34.917   0.874  0.00  0.00     0.064 H 
ATOM     10  H   508 d   1      33.248  36.349   1.864  0.00  0.00     0.064 H 
ATOM     11  H   508 d   1      34.741  36.371  -0.454  0.00  0.00     0.036 H 
ATOM     12  H   508 d   1      33.905  37.797   0.207  0.00  0.00     0.036 H 
ATOM     13  H   508 d   1      32.026  37.483  -1.203  0.00  0.00     0.047 H 
ATOM     14  H   508 d   1      33.081  34.752  -1.907  0.00  0.00     0.037 H 
ATOM     15  H   508 d   1      31.666  35.557  -2.665  0.00  0.00     0.037 H 
ATOM     16  H   508 d   1      30.352  35.110  -0.970  0.00  0.00     0.080 H 
ENDROOT
BRANCH   1  17
ATOM     17  C3  508 d   1      31.016  37.228   2.480  0.00  0.00     0.059 C 
ATOM     18  C   508 d   1      30.833  38.749   2.312  0.00  0.00     0.025 C 
ATOM     19  C1  508 d   1      30.673  39.181   3.776  0.00  0.00     0.093 C 
ATOM     20  C17 508 d   1      29.520  39.121   1.579  0.00  0.00    -0.051 C 
ATOM     21  C21 508 d   1      32.057  39.461   1.734  0.00  0.00    -0.041 A 
ATOM     22  N   508 d   1      30.172  38.020   4.565  0.00  0.00    -0.073 N 
ATOM     23  H   508 d   1      29.965  40.007   3.843  0.00  0.00     0.077 H 
ATOM     24  H   508 d   1      31.634  39.511   4.172  0.00  0.00     0.077 H 
ATOM     25  C2  508 d   1      30.163  36.824   3.684  0.00  0.00     0.094 C 
ATOM     26  H   508 d   1      29.230  38.210   4.906  0.00  0.00     0.277 HD
ATOM     27  H   508 d   1      30.778  37.857   5.369  0.00  0.00     0.277 HD
ATOM     28  H   508 d   1      29.152  36.540   3.391  0.00  0.00     0.077 H 
ATOM     29  H   508 d   1      30.559  35.943   4.188  0.00  0.00     0.077 H 
ATOM     30  C18 508 d   1      29.472  40.495   0.899  0.00  0.00    -0.060 C 
ATOM     31  H   508 d   1      28.745  39.139   2.345  0.00  0.00     0.034 H 
ATOM     32  H   508 d   1      29.405  38.388   0.780  0.00  0.00     0.034 H 
ATOM     33  C19 508 d   1      30.595  40.557  -0.138  0.00  0.00    -0.040 C 
ATOM     34  H   508 d   1      29.603  41.284   1.640  0.00  0.00     0.033 H 
ATOM     35  H   508 d   1      28.507  40.639   0.414  0.00  0.00     0.033 H 
ATOM     36  C20 508 d   1      31.931  40.346   0.529  0.00  0.00    -0.051 A 
ATOM     37  H   508 d   1      30.585  41.536  -0.617  0.00  0.00     0.040 H 
ATOM     38  H   508 d   1      30.439  39.774  -0.880  0.00  0.00     0.040 H 
ATOM     39  C22 508 d   1      32.978  40.979   0.014  0.00  0.00    -0.076 A 
ATOM     40  C23 508 d   1      34.331  40.829   0.619  0.00  0.00    -0.082 A 
ATOM     41  H   508 d   1      32.846  41.615  -0.861  0.00  0.00     0.084 H 
ATOM     42  C24 508 d   1      34.462  40.051   1.684  0.00  0.00    -0.082 A 
ATOM     43  H   508 d   1      35.192  41.346   0.196  0.00  0.00     0.083 H 
ATOM     44  C25 508 d   1      33.277  39.347   2.256  0.00  0.00    -0.075 A 
ATOM     45  H   508 d   1      35.442  39.925   2.145  0.00  0.00     0.083 H 
ATOM     46  H   508 d   1      33.415  38.716   3.134  0.00  0.00     0.084 H 
ATOM     47  H   508 d   1      32.082  37.044   2.614  0.00  0.00     0.059 H 
ENDBRANCH   1  17
BRANCH   8  48
ATOM     48  C26 508 d   1      31.201  33.481  -0.333  0.00  0.00    -0.035 A 
ATOM     49  C27 508 d   1      30.780  33.084   0.947  0.00  0.00    -0.075 A 
ATOM     50  C28 508 d   1      30.597  31.743   1.288  0.00  0.00    -0.082 A 
ATOM     51  H   508 d   1      30.590  33.849   1.700  0.00  0.00     0.084 H 
ATOM     52  C29 508 d   1      30.838  30.756   0.335  0.00  0.00    -0.083 A 
ATOM     53  H   508 d   1      30.268  31.471   2.291  0.00  0.00     0.083 H 
ATOM     54  C30 508 d   1      31.255  31.119  -0.947  0.00  0.00    -0.082 A 
ATOM     55  H   508 d   1      30.702  29.705   0.589  0.00  0.00     0.083 H 
ATOM     56  C31 508 d   1      31.428  32.470  -1.276  0.00  0.00    -0.075 A 
ATOM     57  H   508 d   1      31.447  30.349  -1.694  0.00  0.00     0.083 H 
ATOM     58  H   508 d   1      31.745  32.739  -2.284  0.00  0.00     0.084 H 
ENDBRANCH   8  48
BRANCH   6  59
ATOM     59  C11 508 d   1      33.545  37.544  -2.602  0.00  0.00    -0.054 A 
ATOM     60  C12 508 d   1      33.195  38.873  -2.884  0.00  0.00    -0.076 A 
ATOM     61  C13 508 d   1      33.774  39.569  -3.950  0.00  0.00    -0.082 A 
ATOM     62  H   508 d   1      32.456  39.374  -2.259  0.00  0.00     0.084 H 
ATOM     63  C14 508 d   1      34.722  38.927  -4.749  0.00  0.00    -0.083 A 
ATOM     64  H   508 d   1      33.488  40.601  -4.155  0.00  0.00     0.083 H 
ATOM     65  C15 508 d   1      35.082  37.605  -4.471  0.00  0.00    -0.082 A 
ATOM     66  H   508 d   1      35.180  39.454  -5.586  0.00  0.00     0.083 H 
ATOM     67  C16 508 d   1      34.502  36.918  -3.407  0.00  0.00    -0.076 A 
ATOM     68  H   508 d   1      35.825  37.106  -5.094  0.00  0.00     0.083 H 
ATOM     69  H   508 d   1      34.795  35.889  -3.201  0.00  0.00     0.084 H 
ENDBRANCH   6  59
TORSDOF 3
