REMARK  9 active torsions:
REMARK  status: ('A' for Active; 'I' for Inactive)
REMARK    1  A    between atoms: C2_2  and  C5_5 
REMARK    2  A    between atoms: C6_6  and  C51_34 
REMARK    3  A    between atoms: C11_9  and  N14_11 
REMARK       I    between atoms: N14_11  and  C16_12 
REMARK       I    between atoms: C16_12  and  N18_14 
REMARK    4  A    between atoms: C31_21  and  O34_23 
REMARK    5  A    between atoms: O34_23  and  C35_24 
REMARK    6  A    between atoms: C40_28  and  N43_30 
REMARK       I    between atoms: N43_30  and  C45_31 
REMARK    7  A    between atoms: C45_31  and  C47_33 
REMARK    8  A    between atoms: C51_34  and  N54_35 
REMARK    9  A    between atoms: N61_38  and  C68_41 
ROOT
ATOM      1  C5  046 d   1      23.717 -18.682 -15.291  0.00  0.00     0.058 A 
ATOM      2  C6  046 d   1      25.024 -18.299 -15.591  0.00  0.00    -0.017 A 
ATOM      3  C7  046 d   1      25.339 -18.020 -16.928  0.00  0.00    -0.072 A 
ATOM      4  C9  046 d   1      24.385 -18.143 -17.946  0.00  0.00    -0.057 A 
ATOM      5  C11 046 d   1      23.097 -18.546 -17.617  0.00  0.00     0.037 A 
ATOM      6  C12 046 d   1      22.772 -18.848 -16.296  0.00  0.00    -0.042 A 
ATOM      7  H   046 d   1      26.344 -17.702 -17.180  0.00  0.00     0.084 H 
ATOM      8  H   046 d   1      24.648 -17.927 -18.975  0.00  0.00     0.086 H 
ATOM      9  H   046 d   1      21.781 -19.213 -16.052  0.00  0.00     0.088 H 
ENDROOT
BRANCH   5  10
ATOM     10  N14 046 d   1      22.180 -18.679 -18.696  0.00  0.00    -0.308 N 
ATOM     11  C16 046 d   1      20.836 -18.563 -18.592  0.00  0.00     0.331 C 
ATOM     12  O17 046 d   1      20.238 -18.362 -17.536  0.00  0.00    -0.246 OA
ATOM     13  N18 046 d   1      20.112 -18.756 -19.709  0.00  0.00    -0.274 N 
ATOM     14  C19 046 d   1      20.669 -19.395 -20.903  0.00  0.00    -0.009 A 
ATOM     15  C26 046 d   1      18.741 -18.503 -19.878  0.00  0.00     0.053 A 
ATOM     16  C22 046 d   1      19.481 -19.501 -21.882  0.00  0.00    -0.055 A 
ATOM     17  H   046 d   1      21.695 -19.723 -21.064  0.00  0.00     0.112 H 
ATOM     18  C25 046 d   1      18.312 -18.891 -21.137  0.00  0.00    -0.005 A 
ATOM     19  H   046 d   1      19.483 -19.922 -22.887  0.00  0.00     0.087 H 
ATOM     20  C32 046 d   1      17.015 -18.691 -21.537  0.00  0.00    -0.038 A 
ATOM     21  C31 046 d   1      16.141 -18.093 -20.636  0.00  0.00     0.078 A 
ATOM     22  H   046 d   1      16.682 -18.990 -22.524  0.00  0.00     0.089 H 
ATOM     23  C29 046 d   1      16.557 -17.682 -19.371  0.00  0.00    -0.048 A 
ATOM     24  C27 046 d   1      17.883 -17.880 -18.958  0.00  0.00    -0.053 A 
ATOM     25  H   046 d   1      15.851 -17.206 -18.701  0.00  0.00     0.087 H 
ATOM     26  H   046 d   1      18.227 -17.568 -17.979  0.00  0.00     0.087 H 
ATOM     27  H   046 d   1      22.558 -18.873 -19.601  0.00  0.00     0.170 HD
BRANCH  21  28
ATOM     28  O34 046 d   1      14.827 -17.877 -21.013  0.00  0.00    -0.292 OA
BRANCH  28  29
ATOM     29  C35 046 d   1      13.831 -18.602 -20.436  0.00  0.00     0.174 A 
ATOM     30  N36 046 d   1      14.070 -19.750 -19.803  0.00  0.00    -0.217 NA
ATOM     31  C37 046 d   1      13.087 -20.476 -19.261  0.00  0.00     0.091 A 
ATOM     32  N39 046 d   1      11.822 -20.016 -19.341  0.00  0.00    -0.224 NA
ATOM     33  H   046 d   1      13.303 -21.416 -18.767  0.00  0.00     0.146 H 
ATOM     34  C40 046 d   1      11.547 -18.847 -19.921  0.00  0.00     0.135 A 
ATOM     35  C41 046 d   1      12.541 -18.071 -20.499  0.00  0.00     0.013 A 
ATOM     36  H   046 d   1      12.331 -17.117 -20.968  0.00  0.00     0.096 H 
BRANCH  34  37
ATOM     37  N43 046 d   1      10.173 -18.479 -19.814  0.00  0.00    -0.312 N 
ATOM     38  C45 046 d   1       9.647 -17.330 -20.279  0.00  0.00     0.219 C 
ATOM     39  O46 046 d   1      10.247 -16.480 -20.864  0.00  0.00    -0.274 OA
ATOM     40  H   046 d   1       9.555 -19.121 -19.360  0.00  0.00     0.170 HD
BRANCH  38  41
ATOM     41  C47 046 d   1       8.161 -17.171 -20.041  0.00  0.00    -0.002 C 
ATOM     42  H   046 d   1       7.825 -16.208 -20.453  0.00  0.00     0.040 H 
ATOM     43  H   046 d   1       7.958 -17.198 -18.960  0.00  0.00     0.040 H 
ATOM     44  H   046 d   1       7.620 -17.991 -20.537  0.00  0.00     0.040 H 
ENDBRANCH  38  41
ENDBRANCH  34  37
ENDBRANCH  28  29
ENDBRANCH  21  28
ENDBRANCH   5  10
BRANCH   1  45
ATOM     45  C2  046 d   1      23.303 -18.978 -13.866  0.00  0.00     0.418 C 
ATOM     46  F1  046 d   1      23.204 -17.820 -13.177  0.00  0.00    -0.166 F 
ATOM     47  F3  046 d   1      24.210 -19.715 -13.205  0.00  0.00    -0.166 F 
ATOM     48  F4  046 d   1      22.143 -19.620 -13.786  0.00  0.00    -0.166 F 
ENDBRANCH   1  45
BRANCH   2  49
ATOM     49  C51 046 d   1      26.094 -18.092 -14.498  0.00  0.00     0.108 C 
ATOM     50  H   046 d   1      26.556 -19.061 -14.256  0.00  0.00     0.083 H 
ATOM     51  H   046 d   1      25.616 -17.679 -13.598  0.00  0.00     0.083 H 
BRANCH  49  52
ATOM     52  N54 046 d   1      27.131 -17.167 -14.959  0.00  0.00    -0.064 N 
ATOM     53  C55 046 d   1      28.319 -17.263 -14.102  0.00  0.00     0.106 C 
ATOM     54  C58 046 d   1      29.408 -16.299 -14.627  0.00  0.00     0.105 C 
ATOM     55  H   046 d   1      28.702 -18.294 -14.119  0.00  0.00     0.078 H 
ATOM     56  H   046 d   1      28.051 -16.988 -13.071  0.00  0.00     0.078 H 
ATOM     57  N61 046 d   1      28.890 -14.925 -14.678  0.00  0.00    -0.072 N 
ATOM     58  H   046 d   1      29.712 -16.610 -15.637  0.00  0.00     0.078 H 
ATOM     59  H   046 d   1      30.278 -16.334 -13.955  0.00  0.00     0.078 H 
ATOM     60  C62 046 d   1      27.698 -14.836 -15.559  0.00  0.00     0.105 C 
ATOM     61  H   046 d   1      28.620 -14.658 -13.744  0.00  0.00     0.279 HD
ATOM     62  C65 046 d   1      26.637 -15.791 -14.994  0.00  0.00     0.106 C 
ATOM     63  H   046 d   1      27.965 -15.134 -16.584  0.00  0.00     0.078 H 
ATOM     64  H   046 d   1      27.311 -13.806 -15.566  0.00  0.00     0.078 H 
ATOM     65  H   046 d   1      26.378 -15.476 -13.972  0.00  0.00     0.078 H 
ATOM     66  H   046 d   1      25.740 -15.748 -15.629  0.00  0.00     0.078 H 
ATOM     67  H   046 d   1      27.393 -17.430 -15.896  0.00  0.00     0.280 HD
BRANCH  57  68
ATOM     68  C68 046 d   1      29.920 -13.970 -15.163  0.00  0.00     0.066 C 
ATOM     69  H   046 d   1      30.808 -14.028 -14.516  0.00  0.00     0.068 H 
ATOM     70  H   046 d   1      29.514 -12.948 -15.137  0.00  0.00     0.068 H 
ATOM     71  H   046 d   1      30.201 -14.226 -16.195  0.00  0.00     0.068 H 
ENDBRANCH  57  68
ENDBRANCH  49  52
ENDBRANCH   2  49
TORSDOF 9
