REMARK  5 active torsions:
REMARK  status: ('A' for Active; 'I' for Inactive)
REMARK    1  A    between atoms: CAA_1  and  N_2 
REMARK    2  A    between atoms: N_2  and  CAB_3 
REMARK    3  A    between atoms: N_2  and  CA_4 
REMARK    4  A    between atoms: CA_4  and  C_5 
REMARK       I    between atoms: C_5  and  NAM_7 
REMARK    5  A    between atoms: NAM_7  and  CAP_8 
ROOT
ATOM      1  CAP P34 d   1     -26.660  -5.991   6.876  0.00  0.00     0.035 A 
ATOM      2  CAK P34 d   1     -26.811  -7.401   6.946  0.00  0.00    -0.044 A 
ATOM      3  CAU P34 d   1     -25.738  -8.263   7.308  0.00  0.00     0.004 A 
ATOM      4  CAT P34 d   1     -25.853  -9.743   7.379  0.00  0.00    -0.008 A 
ATOM      5  CAI P34 d   1     -27.043 -10.438   7.003  0.00  0.00    -0.071 A 
ATOM      6  CAF P34 d   1     -27.138 -11.836   7.153  0.00  0.00    -0.082 A 
ATOM      7  CAE P34 d   1     -26.029 -12.581   7.620  0.00  0.00    -0.082 A 
ATOM      8  CAH P34 d   1     -24.829 -11.924   7.960  0.00  0.00    -0.067 A 
ATOM      9  CAS P34 d   1     -24.719 -10.519   7.796  0.00  0.00     0.043 A 
ATOM     10  CAQ P34 d   1     -23.429  -9.823   8.154  0.00  0.00     0.257 A 
ATOM     11  OAD P34 d   1     -22.423 -10.430   8.515  0.00  0.00    -0.267 OA
ATOM     12  NAN P34 d   1     -23.409  -8.488   8.037  0.00  0.00    -0.322 N 
ATOM     13  CAR P34 d   1     -24.482  -7.660   7.598  0.00  0.00     0.046 A 
ATOM     14  CAJ P34 d   1     -24.320  -6.248   7.567  0.00  0.00    -0.054 A 
ATOM     15  CAG P34 d   1     -25.391  -5.412   7.149  0.00  0.00    -0.055 A 
ATOM     16  H   P34 d   1     -27.782  -7.838   6.715  0.00  0.00     0.088 H 
ATOM     17  H   P34 d   1     -27.887  -9.881   6.596  0.00  0.00     0.084 H 
ATOM     18  H   P34 d   1     -28.070 -12.346   6.908  0.00  0.00     0.083 H 
ATOM     19  H   P34 d   1     -26.103 -13.664   7.717  0.00  0.00     0.083 H 
ATOM     20  H   P34 d   1     -23.986 -12.495   8.349  0.00  0.00     0.085 H 
ATOM     21  H   P34 d   1     -22.539  -8.018   8.287  0.00  0.00     0.169 HD
ATOM     22  H   P34 d   1     -23.370  -5.804   7.865  0.00  0.00     0.087 H 
ATOM     23  H   P34 d   1     -25.241  -4.338   7.039  0.00  0.00     0.087 H 
ENDROOT
BRANCH   1  24
ATOM     24  NAM P34 d   1     -27.708  -5.137   6.417  0.00  0.00    -0.326 N 
ATOM     25  C   P34 d   1     -28.759  -5.402   5.601  0.00  0.00     0.250 C 
ATOM     26  O   P34 d   1     -29.010  -6.479   5.065  0.00  0.00    -0.271 OA
ATOM     27  H   P34 d   1     -27.659  -4.176   6.756  0.00  0.00     0.169 HD
BRANCH  25  28
ATOM     28  CA  P34 d   1     -29.696  -4.215   5.318  0.00  0.00     0.185 C 
ATOM     29  H   P34 d   1     -30.144  -3.931   6.270  0.00  0.00     0.094 H 
ATOM     30  H   P34 d   1     -29.091  -3.439   4.848  0.00  0.00     0.094 H 
BRANCH  28  31
ATOM     31  N   P34 d   1     -30.819  -4.514   4.383  0.00  0.00     0.088 N 
BRANCH  31  32
ATOM     32  CAA P34 d   1     -30.448  -4.267   2.981  0.00  0.00     0.095 C 
ATOM     33  H   P34 d   1     -30.172  -3.220   2.859  0.00  0.00     0.071 H 
ATOM     34  H   P34 d   1     -29.603  -4.901   2.713  0.00  0.00     0.071 H 
ATOM     35  H   P34 d   1     -31.296  -4.498   2.336  0.00  0.00     0.071 H 
ENDBRANCH  31  32
BRANCH  31  36
ATOM     36  CAB P34 d   1     -31.951  -3.659   4.751  0.00  0.00     0.095 C 
ATOM     37  H   P34 d   1     -32.247  -3.873   5.778  0.00  0.00     0.071 H 
ATOM     38  H   P34 d   1     -31.657  -2.613   4.666  0.00  0.00     0.071 H 
ATOM     39  H   P34 d   1     -32.788  -3.858   4.081  0.00  0.00     0.071 H 
ENDBRANCH  31  36
ENDBRANCH  28  31
ENDBRANCH  25  28
ENDBRANCH   1  24
TORSDOF 5
