REMARK  2 active torsions:
REMARK  status: ('A' for Active; 'I' for Inactive)
REMARK    1  A    between atoms: CAP_19  and  C2_2 
REMARK    2  A    between atoms: CAQ_20  and  CAU_21 
ROOT
ATOM      1  N1  XAV d   1     -23.366  -8.537   8.200  0.00  0.00    -0.318 N 
ATOM      2  C2  XAV d   1     -24.507  -7.925   7.816  0.00  0.00     0.140 C 
ATOM      3  N3  XAV d   1     -25.606  -8.592   7.444  0.00  0.00    -0.234 NA
ATOM      4  C4  XAV d   1     -25.639  -9.929   7.517  0.00  0.00     0.049 C 
ATOM      5  C5  XAV d   1     -24.533 -10.642   8.054  0.00  0.00     0.030 C 
ATOM      6  C6  XAV d   1     -23.385  -9.881   8.313  0.00  0.00     0.189 C 
ATOM      7  O6  XAV d   1     -22.273 -10.508   8.759  0.00  0.00    -0.171 OA
ATOM      8  CAI XAV d   1     -26.879 -12.097   6.937  0.00  0.00    -0.018 C 
ATOM      9  CAJ XAV d   1     -26.970 -10.563   7.092  0.00  0.00    -0.016 C 
ATOM     10  CAK XAV d   1     -24.485 -12.153   8.273  0.00  0.00     0.007 C 
ATOM     11  SAN XAV d   1     -26.149 -12.839   8.424  0.00  0.00    -0.164 SA
ATOM     12  H   XAV d   1     -22.537  -8.013   8.394  0.00  0.00     0.169 HD
ATOM     13  H   XAV d   1     -26.251 -12.337   6.066  0.00  0.00     0.049 H 
ATOM     14  H   XAV d   1     -27.889 -12.507   6.785  0.00  0.00     0.049 H 
ATOM     15  H   XAV d   1     -27.274 -10.130   6.128  0.00  0.00     0.043 H 
ATOM     16  H   XAV d   1     -27.729 -10.331   7.854  0.00  0.00     0.043 H 
ATOM     17  H   XAV d   1     -23.924 -12.365   9.195  0.00  0.00     0.056 H 
ATOM     18  H   XAV d   1     -23.978 -12.624   7.418  0.00  0.00     0.056 H 
ENDROOT
BRANCH   2  19
ATOM     19  CAP XAV d   1     -24.499  -6.452   7.582  0.00  0.00     0.010 A 
ATOM     20  CAE XAV d   1     -25.490  -5.876   6.738  0.00  0.00    -0.069 A 
ATOM     21  CAG XAV d   1     -25.484  -4.505   6.453  0.00  0.00    -0.067 A 
ATOM     22  H   XAV d   1     -26.260  -6.508   6.310  0.00  0.00     0.085 H 
ATOM     23  CAQ XAV d   1     -24.533  -3.652   7.072  0.00  0.00     0.048 A 
ATOM     24  H   XAV d   1     -26.207  -4.094   5.758  0.00  0.00     0.084 H 
ATOM     25  CAH XAV d   1     -23.551  -4.200   7.941  0.00  0.00    -0.067 A 
ATOM     26  CAF XAV d   1     -23.547  -5.585   8.216  0.00  0.00    -0.069 A 
ATOM     27  H   XAV d   1     -22.806  -3.555   8.392  0.00  0.00     0.084 H 
ATOM     28  H   XAV d   1     -22.822  -5.995   8.909  0.00  0.00     0.085 H 
BRANCH  23  29
ATOM     29  CAU XAV d   1     -24.508  -2.185   6.666  0.00  0.00     0.417 C 
ATOM     30  FAB XAV d   1     -23.901  -1.440   7.582  0.00  0.00    -0.166 F 
ATOM     31  FAC XAV d   1     -23.781  -2.083   5.555  0.00  0.00    -0.166 F 
ATOM     32  FAD XAV d   1     -25.729  -1.722   6.365  0.00  0.00    -0.166 F 
ENDBRANCH  23  29
ENDBRANCH   2  19
TORSDOF 2
