REMARK  9 active torsions:
REMARK  status: ('A' for Active; 'I' for Inactive)
REMARK    1  A    between atoms: N1_1  and  C12_17 
REMARK    2  A    between atoms: C7_5  and  C5_3 
REMARK    3  A    between atoms: C12_17  and  C13_8 
REMARK    4  A    between atoms: C13_8  and  C14_18 
REMARK    5  A    between atoms: C14_18  and  C15_9 
REMARK       I    between atoms: C15_9  and  N2_24 
REMARK    6  A    between atoms: C14_18  and  C17_10 
REMARK    7  A    between atoms: C14_18  and  S1_19 
REMARK    8  A    between atoms: S1_19  and  C16_20 
REMARK    9  A    between atoms: N2_24  and  O5_25 
ROOT
ATOM      1  C12 RFN d   1       2.557  -9.017  -0.879  0.00  0.00    -0.000 C 
ATOM      2  H16 RFN d   1       3.522  -9.300  -0.434  0.00  0.00     0.064 H 
ATOM      3  H17 RFN d   1       1.850  -8.748  -0.080  0.00  0.00     0.064 H 
ENDROOT
BRANCH   1   4
ATOM      4  N1  RFN d   1       2.026 -10.130  -1.650  0.00  0.00    -0.348 N 
ATOM      5  C10 RFN d   1       2.907 -11.051  -2.196  0.00  0.00     0.224 A 
ATOM      6  C11 RFN d   1       2.300 -12.076  -3.074  0.00  0.00     0.034 A 
ATOM      7  O1  RFN d   1       4.121 -11.028  -2.003  0.00  0.00    -0.273 OA
ATOM      8  C7  RFN d   1       0.966 -12.096  -3.294  0.00  0.00    -0.041 A 
ATOM      9  H14 RFN d   1       2.779 -11.969  -4.059  0.00  0.00     0.054 H 
ATOM     10  H15 RFN d   1       2.562 -13.053  -2.643  0.00  0.00     0.054 H 
ATOM     11  C8  RFN d   1       0.136 -11.109  -2.659  0.00  0.00    -0.079 A 
ATOM     12  C9  RFN d   1       0.673 -10.171  -1.881  0.00  0.00     0.013 A 
ATOM     13  H3  RFN d   1      -0.942 -11.129  -2.816  0.00  0.00     0.080 H 
ATOM     14  H12 RFN d   1       0.403  -9.203  -2.328  0.00  0.00     0.070 H 
ATOM     15  H13 RFN d   1       0.191 -10.268  -0.897  0.00  0.00     0.070 H 
BRANCH   8  16
ATOM     16  C5  RFN d   1       0.383 -13.108  -4.211  0.00  0.00    -0.030 A 
ATOM     17  C4  RFN d   1       1.036 -13.480  -5.380  0.00  0.00    -0.072 A 
ATOM     18  C3  RFN d   1       0.471 -14.403  -6.262  0.00  0.00    -0.082 A 
ATOM     19  H1  RFN d   1       2.002 -13.046  -5.611  0.00  0.00     0.084 H 
ATOM     20  C2  RFN d   1      -0.777 -14.914  -5.958  0.00  0.00    -0.083 A 
ATOM     21  H11 RFN d   1       0.996 -14.710  -7.159  0.00  0.00     0.083 H 
ATOM     22  C1  RFN d   1      -1.466 -14.543  -4.824  0.00  0.00    -0.082 A 
ATOM     23  H10 RFN d   1      -1.229 -15.631  -6.635  0.00  0.00     0.083 H 
ATOM     24  C6  RFN d   1      -0.881 -13.628  -3.951  0.00  0.00    -0.072 A 
ATOM     25  H9  RFN d   1      -2.446 -14.956  -4.615  0.00  0.00     0.083 H 
ATOM     26  H2  RFN d   1      -1.416 -13.318  -3.061  0.00  0.00     0.084 H 
ENDBRANCH   8  16
ENDBRANCH   1   4
BRANCH   1  27
ATOM     27  C13 RFN d   1       2.750  -7.833  -1.814  0.00  0.00    -0.022 C 
ATOM     28  H4  RFN d   1       1.760  -7.558  -2.207  0.00  0.00     0.038 H 
ATOM     29  H5  RFN d   1       3.393  -8.167  -2.642  0.00  0.00     0.038 H 
BRANCH  27  30
ATOM     30  C14 RFN d   1       3.383  -6.560  -1.222  0.00  0.00     0.143 C 
BRANCH  30  31
ATOM     31  C15 RFN d   1       2.603  -6.072  -0.004  0.00  0.00     0.264 C 
ATOM     32  O4  RFN d   1       1.424  -5.762  -0.063  0.00  0.00    -0.269 OA
ATOM     33  N2  RFN d   1       3.317  -6.065   1.171  0.00  0.00    -0.236 N 
ATOM     34  H21 RFN d   1       4.274  -6.341   1.255  0.00  0.00     0.197 HD
BRANCH  33  35
ATOM     35  O5  RFN d   1       2.502  -5.608   2.260  0.00  0.00    -0.287 OA
ATOM     36  H22 RFN d   1       3.014  -5.611   3.060  0.00  0.00     0.244 HD
ENDBRANCH  33  35
ENDBRANCH  30  31
BRANCH  30  37
ATOM     37  C17 RFN d   1       4.849  -6.776  -0.876  0.00  0.00    -0.048 C 
ATOM     38  H6  RFN d   1       4.930  -7.523  -0.072  0.00  0.00     0.030 H 
ATOM     39  H7  RFN d   1       5.290  -5.826  -0.540  0.00  0.00     0.030 H 
ATOM     40  H8  RFN d   1       5.387  -7.135  -1.766  0.00  0.00     0.030 H 
ENDBRANCH  30  37
BRANCH  30  41
ATOM     41  S1  RFN d   1       3.496  -5.333  -2.523  0.00  0.00     0.158 S 
ATOM     42  O2  RFN d   1       4.298  -5.880  -3.598  0.00  0.00    -0.227 OA
ATOM     43  O3  RFN d   1       3.951  -4.067  -1.967  0.00  0.00    -0.227 OA
BRANCH  41  44
ATOM     44  C16 RFN d   1       1.832  -5.094  -3.096  0.00  0.00     0.017 C 
ATOM     45  H18 RFN d   1       1.826  -4.346  -3.903  0.00  0.00     0.049 H 
ATOM     46  H19 RFN d   1       1.205  -4.741  -2.264  0.00  0.00     0.049 H 
ATOM     47  H20 RFN d   1       1.435  -6.047  -3.476  0.00  0.00     0.049 H 
ENDBRANCH  41  44
ENDBRANCH  30  41
ENDBRANCH  27  30
ENDBRANCH   1  27
TORSDOF 9
