REMARK WARNING: 32 MAX_TORS EXCEEDED!!!
REMARK  59 active torsions:
REMARK  status: ('A' for Active; 'I' for Inactive)
REMARK    1  A    between atoms: N_1  and  CA_2 
REMARK    2  A    between atoms: CA_2  and  C_3 
REMARK    3  A    between atoms: CA_2  and  CB_5 
REMARK       I    between atoms: C_3  and  N_10 
REMARK    4  A    between atoms: CB_5  and  CG_6 
REMARK    5  A    between atoms: CG_6  and  CD_7 
REMARK       I    between atoms: CD_7  and  NE2_9 
REMARK    6  A    between atoms: N_10  and  CA_11 
REMARK    7  A    between atoms: CA_11  and  C_12 
REMARK    8  A    between atoms: CA_11  and  CB_14 
REMARK       I    between atoms: C_12  and  N_19 
REMARK    9  A    between atoms: CB_14  and  CG_15 
REMARK   10  A    between atoms: CG_15  and  CD_16 
REMARK   11  A    between atoms: CD_16  and  CE_17 
REMARK   12  A    between atoms: CE_17  and  NZ_18 
REMARK   13  A    between atoms: N_19  and  CA_20 
REMARK   14  A    between atoms: CA_20  and  C_21 
REMARK   15  A    between atoms: CA_20  and  CB_23 
REMARK       I    between atoms: C_21  and  N_24 
REMARK   16  A    between atoms: CA_25  and  C_26 
REMARK       I    between atoms: C_26  and  N_31 
REMARK   17  A    between atoms: CA_32  and  C_33 
REMARK       I    between atoms: C_33  and  N_38 
REMARK   18  A    between atoms: N_38  and  CA_39 
REMARK   19  A    between atoms: CA_39  and  C_40 
REMARK       I    between atoms: C_40  and  N_42 
REMARK   20  A    between atoms: N_42  and  CA_43 
REMARK   21  A    between atoms: CA_43  and  C_44 
REMARK   22  A    between atoms: CA_43  and  CB_46 
REMARK       I    between atoms: C_44  and  N_49 
REMARK   23  A    between atoms: CB_46  and  OG1_47 
REMARK   24  A    between atoms: CB_46  and  CG2_48 
REMARK   25  A    between atoms: N_49  and  CA_50 
REMARK   26  A    between atoms: CA_50  and  C_51 
REMARK   27  A    between atoms: CA_50  and  CB_53 
REMARK       I    between atoms: C_51  and  N_54 
REMARK   28  A    between atoms: N_54  and  CA_55 
REMARK   29  A    between atoms: CA_55  and  C_56 
REMARK   30  A    between atoms: CA_55  and  CB_58 
REMARK       I    between atoms: C_56  and  N_65 
REMARK   31  A    between atoms: CB_58  and  CG_59 
REMARK   32  A    between atoms: CG_59  and  CD_60 
REMARK   33  A    between atoms: CD_60  and  NE_61 
REMARK       I    between atoms: NE_61  and  CZ_62 
REMARK       I    between atoms: CZ_62  and  NH1_63 
REMARK       I    between atoms: CZ_62  and  NH2_64 
REMARK   34  A    between atoms: N_65  and  CA_66 
REMARK   35  A    between atoms: CA_66  and  C_67 
REMARK   36  A    between atoms: CA_66  and  CB_69 
REMARK       I    between atoms: C_67  and  N_76 
REMARK   37  A    between atoms: CB_69  and  CG_70 
REMARK   38  A    between atoms: CG_70  and  CD_71 
REMARK   39  A    between atoms: CD_71  and  NE_72 
REMARK       I    between atoms: NE_72  and  CZ_73 
REMARK       I    between atoms: CZ_73  and  NH1_74 
REMARK       I    between atoms: CZ_73  and  NH2_75 
REMARK   40  A    between atoms: N_76  and  CA_77 
REMARK   41  A    between atoms: CA_77  and  C_78 
REMARK   42  A    between atoms: CA_77  and  CB_80 
REMARK       I    between atoms: C_78  and  N_85 
REMARK   43  A    between atoms: CB_80  and  CG_81 
REMARK   44  A    between atoms: CG_81  and  CD_82 
REMARK   45  A    between atoms: CD_82  and  CE_83 
REMARK   46  A    between atoms: CE_83  and  NZ_84 
REMARK   47  A    between atoms: N_85  and  CA_86 
REMARK   48  A    between atoms: CA_86  and  C_87 
REMARK   49  A    between atoms: CA_86  and  CB_89 
REMARK       I    between atoms: C_87  and  N_96 
REMARK   50  A    between atoms: CB_89  and  CG_90 
REMARK   51  A    between atoms: CG_90  and  CD_91 
REMARK   52  A    between atoms: CD_91  and  NE_92 
REMARK       I    between atoms: NE_92  and  CZ_93 
REMARK       I    between atoms: CZ_93  and  NH1_94 
REMARK   53  A    between atoms: N_96  and  CA_97 
REMARK   54  A    between atoms: CA_97  and  C_98 
REMARK   55  A    between atoms: CA_97  and  CB_100 
REMARK   56  A    between atoms: CB_100  and  CG_101 
REMARK   57  A    between atoms: CG_101  and  CD_102 
REMARK   58  A    between atoms: CD_102  and  CE_103 
REMARK   59  A    between atoms: CE_103  and  NZ_104 
ROOT
ATOM      1  CA  ARG d   1     -40.641   4.759  31.236  0.00  0.00     0.089 C 
ATOM      2  H59 ARG d   1     -40.137   5.590  30.720  0.00  0.00     0.087 H 
ENDROOT
BRANCH   1   3
ATOM      3  N   ARG d   1     -41.300   5.314  32.423  0.00  0.00    -0.346 N 
ATOM      4  C   ALA d   1     -42.071   6.398  32.380  0.00  0.00     0.240 C 
ATOM      5  O   ALA d   1     -42.403   6.933  31.324  0.00  0.00    -0.271 OA
ATOM      6  H58 ARG d   1     -41.164   4.858  33.303  0.00  0.00     0.163 HD
BRANCH   4   7
ATOM      7  CA  ALA d   1     -42.559   6.945  33.735  0.00  0.00     0.086 C 
ATOM      8  H54 ALA d   1     -41.776   6.737  34.479  0.00  0.00     0.086 H 
BRANCH   7   9
ATOM      9  N   ALA d   1     -42.774   8.397  33.711  0.00  0.00    -0.346 N 
ATOM     10  C   THR d   1     -42.683   9.172  34.796  0.00  0.00     0.243 C 
ATOM     11  O   THR d   1     -42.467   8.738  35.931  0.00  0.00    -0.271 OA
ATOM     12  H53 ALA d   1     -43.000   8.829  32.838  0.00  0.00     0.163 HD
BRANCH  10  13
ATOM     13  CA  THR d   1     -42.859  10.673  34.559  0.00  0.00     0.113 C 
ATOM     14  H47 THR d   1     -43.818  10.822  34.040  0.00  0.00     0.091 H 
BRANCH  13  15
ATOM     15  N   THR d   1     -42.916  11.446  35.804  0.00  0.00    -0.344 N 
ATOM     16  C   GLY d   1     -43.899  12.322  36.026  0.00  0.00     0.236 C 
ATOM     17  O   GLY d   1     -44.815  12.509  35.233  0.00  0.00    -0.272 OA
ATOM     18  H46 THR d   1     -42.208  11.315  36.498  0.00  0.00     0.163 HD
BRANCH  16  19
ATOM     19  CA  GLY d   1     -43.878  13.109  37.322  0.00  0.00     0.069 C 
ATOM     20  H44 GLY d   1     -44.151  14.150  37.095  0.00  0.00     0.078 H 
ATOM     21  H45 GLY d   1     -44.627  12.673  37.999  0.00  0.00     0.078 H 
BRANCH  19  22
ATOM     22  N   GLY d   1     -42.603  13.117  38.006  0.00  0.00    -0.351 N 
ATOM     23  C   PRO d   1     -41.633  13.965  37.674  0.00  0.00     0.241 C 
ATOM     24  O   PRO d   1     -41.729  14.783  36.749  0.00  0.00    -0.271 OA
ATOM     25  H43 GLY d   1     -42.446  12.467  38.749  0.00  0.00     0.163 HD
BRANCH  23  26
ATOM     26  CA  PRO d   1     -40.359  13.882  38.510  0.00  0.00     0.091 C 
ATOM     27  N   PRO d   1     -39.182  13.602  37.691  0.00  0.00    -0.337 N 
ATOM     28  C   PRO d   1     -38.980  12.387  37.167  0.00  0.00     0.243 C 
ATOM     29  CD  PRO d   1     -38.373  14.810  37.501  0.00  0.00    -0.001 C 
ATOM     30  O   PRO d   1     -39.824  11.492  37.223  0.00  0.00    -0.271 OA
ATOM     31  CG  PRO d   1     -38.636  15.559  38.763  0.00  0.00    -0.048 C 
ATOM     32  H41 PRO d   1     -38.706  15.380  36.621  0.00  0.00     0.064 H 
ATOM     33  H42 PRO d   1     -37.306  14.564  37.397  0.00  0.00     0.064 H 
ATOM     34  CB  PRO d   1     -40.048  15.257  39.127  0.00  0.00    -0.036 C 
ATOM     35  H39 PRO d   1     -37.955  15.221  39.558  0.00  0.00     0.035 H 
ATOM     36  H40 PRO d   1     -38.505  16.639  38.602  0.00  0.00     0.035 H 
ATOM     37  H37 PRO d   1     -40.161  15.220  40.221  0.00  0.00     0.036 H 
ATOM     38  H38 PRO d   1     -40.721  16.023  38.714  0.00  0.00     0.036 H 
ATOM     39  H36 PRO d   1     -40.482  13.116  39.289  0.00  0.00     0.087 H 
BRANCH  28  40
ATOM     40  CA  PRO d   1     -37.640  12.143  36.452  0.00  0.00     0.092 C 
ATOM     41  N   PRO d   1     -37.326  10.712  36.293  0.00  0.00    -0.337 N 
ATOM     42  C   ALA d   1     -37.505   9.766  37.255  0.00  0.00     0.243 C 
ATOM     43  CD  PRO d   1     -36.770  10.429  34.954  0.00  0.00    -0.001 C 
ATOM     44  O   ALA d   1     -37.880  10.026  38.403  0.00  0.00    -0.271 OA
ATOM     45  CG  PRO d   1     -36.883  11.749  34.226  0.00  0.00    -0.048 C 
ATOM     46  H34 PRO d   1     -37.355   9.650  34.444  0.00  0.00     0.064 H 
ATOM     47  H35 PRO d   1     -35.720  10.111  35.026  0.00  0.00     0.064 H 
ATOM     48  CB  PRO d   1     -37.720  12.647  35.002  0.00  0.00    -0.036 C 
ATOM     49  H32 PRO d   1     -35.883  12.190  34.105  0.00  0.00     0.035 H 
ATOM     50  H33 PRO d   1     -37.335  11.587  33.236  0.00  0.00     0.035 H 
ATOM     51  H30 PRO d   1     -37.343  13.678  34.933  0.00  0.00     0.036 H 
ATOM     52  H31 PRO d   1     -38.758  12.611  34.641  0.00  0.00     0.036 H 
ATOM     53  H29 PRO d   1     -36.838  12.654  37.005  0.00  0.00     0.087 H 
BRANCH  42  54
ATOM     54  CA  ALA d   1     -37.222   8.315  36.864  0.00  0.00     0.086 C 
ATOM     55  H25 ALA d   1     -36.744   8.320  35.873  0.00  0.00     0.086 H 
BRANCH  54  56
ATOM     56  N   ALA d   1     -36.303   7.645  37.799  0.00  0.00    -0.346 N 
ATOM     57  C   LYS d   1     -35.012   7.970  37.923  0.00  0.00     0.241 C 
ATOM     58  O   LYS d   1     -34.470   8.842  37.240  0.00  0.00    -0.271 OA
ATOM     59  H24 ALA d   1     -36.663   6.908  38.371  0.00  0.00     0.163 HD
BRANCH  57  60
ATOM     60  CA  LYS d   1     -34.223   7.210  39.008  0.00  0.00     0.089 C 
ATOM     61  H12 LYS d   1     -34.785   6.288  39.219  0.00  0.00     0.087 H 
BRANCH  60  62
ATOM     62  N   LYS d   1     -32.864   6.798  38.641  0.00  0.00    -0.346 N 
ATOM     63  C   GLN d   1     -32.622   5.742  37.866  0.00  0.00     0.249 C 
ATOM     64  O   GLN d   1     -33.512   5.068  37.351  0.00  0.00    -0.271 OA
ATOM     65  H11 LYS d   1     -32.090   7.330  38.985  0.00  0.00     0.163 HD
BRANCH  63  66
ATOM     66  CA  GLN d   1     -31.160   5.397  37.629  0.00  0.00     0.176 C 
ATOM     67  H4  GLN d   1     -30.663   6.261  37.162  0.00  0.00     0.099 H 
BRANCH  66  68
ATOM     68  N   GLN d   1     -30.490   5.105  38.889  0.00  0.00    -0.066 N 
ATOM     69  H1  GLN d   1     -29.524   4.879  38.711  0.00  0.00     0.275 HD
ATOM     70  H2  GLN d   1     -30.941   4.322  39.336  0.00  0.00     0.275 HD
ATOM     71  H3  GLN d   1     -30.541   5.912  39.492  0.00  0.00     0.275 HD
ENDBRANCH  66  68
BRANCH  66  72
ATOM     72  CB  GLN d   1     -31.071   4.203  36.674  0.00  0.00    -0.022 C 
ATOM     73  H5  GLN d   1     -30.009   3.953  36.533  0.00  0.00     0.037 H 
ATOM     74  H6  GLN d   1     -31.509   4.500  35.710  0.00  0.00     0.037 H 
BRANCH  72  75
ATOM     75  CG  GLN d   1     -31.803   2.939  37.169  0.00  0.00     0.011 C 
ATOM     76  H7  GLN d   1     -32.703   3.249  37.721  0.00  0.00     0.047 H 
ATOM     77  H8  GLN d   1     -31.131   2.388  37.843  0.00  0.00     0.047 H 
BRANCH  75  78
ATOM     78  CD  GLN d   1     -32.230   1.998  36.026  0.00  0.00     0.215 C 
ATOM     79  OE1 GLN d   1     -31.860   2.197  34.851  0.00  0.00    -0.274 OA
ATOM     80  NE2 GLN d   1     -33.010   0.964  36.373  0.00  0.00    -0.370 N 
ATOM     81  H9  GLN d   1     -33.321   0.317  35.677  0.00  0.00     0.159 HD
ATOM     82  H10 GLN d   1     -33.281   0.840  37.328  0.00  0.00     0.159 HD
ENDBRANCH  75  78
ENDBRANCH  72  75
ENDBRANCH  66  72
ENDBRANCH  63  66
ENDBRANCH  60  62
BRANCH  60  83
ATOM     83  CB  LYS d   1     -34.187   8.045  40.296  0.00  0.00    -0.038 C 
ATOM     84  H13 LYS d   1     -35.095   8.665  40.327  0.00  0.00     0.036 H 
ATOM     85  H14 LYS d   1     -33.300   8.695  40.257  0.00  0.00     0.036 H 
BRANCH  83  86
ATOM     86  CG  LYS d   1     -34.123   7.230  41.591  0.00  0.00    -0.061 C 
ATOM     87  H15 LYS d   1     -33.133   6.755  41.661  0.00  0.00     0.033 H 
ATOM     88  H16 LYS d   1     -34.901   6.453  41.558  0.00  0.00     0.033 H 
BRANCH  86  89
ATOM     89  CD  LYS d   1     -34.344   8.098  42.845  0.00  0.00    -0.043 C 
ATOM     90  H17 LYS d   1     -35.341   8.559  42.790  0.00  0.00     0.035 H 
ATOM     91  H18 LYS d   1     -33.577   8.886  42.874  0.00  0.00     0.035 H 
BRANCH  89  92
ATOM     92  CE  LYS d   1     -34.250   7.262  44.131  0.00  0.00     0.080 C 
ATOM     93  H19 LYS d   1     -33.316   6.681  44.102  0.00  0.00     0.075 H 
ATOM     94  H20 LYS d   1     -35.108   6.575  44.164  0.00  0.00     0.075 H 
BRANCH  92  95
ATOM     95  NZ  LYS d   1     -34.256   8.090  45.379  0.00  0.00    -0.079 N 
ATOM     96  H21 LYS d   1     -34.192   7.486  46.183  0.00  0.00     0.274 HD
ATOM     97  H22 LYS d   1     -35.111   8.622  45.425  0.00  0.00     0.274 HD
ATOM     98  H23 LYS d   1     -33.469   8.719  45.368  0.00  0.00     0.274 HD
ENDBRANCH  92  95
ENDBRANCH  89  92
ENDBRANCH  86  89
ENDBRANCH  83  86
ENDBRANCH  60  83
ENDBRANCH  57  60
ENDBRANCH  54  56
BRANCH  54  99
ATOM     99  CB  ALA d   1     -38.545   7.544  36.755  0.00  0.00    -0.049 C 
ATOM    100  H26 ALA d   1     -39.214   8.062  36.053  0.00  0.00     0.030 H 
ATOM    101  H27 ALA d   1     -39.022   7.492  37.745  0.00  0.00     0.030 H 
ATOM    102  H28 ALA d   1     -38.347   6.526  36.389  0.00  0.00     0.030 H 
ENDBRANCH  54  99
ENDBRANCH  42  54
ENDBRANCH  28  40
ENDBRANCH  23  26
ENDBRANCH  19  22
ENDBRANCH  16  19
ENDBRANCH  13  15
BRANCH  13 103
ATOM    103  CB  THR d   1     -41.729  11.162  33.624  0.00  0.00     0.060 C 
ATOM    104  H48 THR d   1     -41.984  10.898  32.587  0.00  0.00     0.086 H 
BRANCH 103 105
ATOM    105  OG1 THR d   1     -40.497  10.526  33.983  0.00  0.00    -0.393 OA
ATOM    106  H49 THR d   1     -40.279  10.744  34.882  0.00  0.00     0.210 HD
ENDBRANCH 103 105
BRANCH 103 107
ATOM    107  CG2 THR d   1     -41.562  12.661  33.723  0.00  0.00    -0.050 C 
ATOM    108  H50 THR d   1     -40.754  12.985  33.050  0.00  0.00     0.031 H 
ATOM    109  H51 THR d   1     -41.309  12.934  34.758  0.00  0.00     0.031 H 
ATOM    110  H52 THR d   1     -42.501  13.155  33.432  0.00  0.00     0.031 H 
ENDBRANCH 103 107
ENDBRANCH  13 103
ENDBRANCH  10  13
ENDBRANCH   7   9
BRANCH   7 111
ATOM    111  CB  ALA d   1     -43.827   6.223  34.172  0.00  0.00    -0.049 C 
ATOM    112  H55 ALA d   1     -43.646   5.138  34.184  0.00  0.00     0.030 H 
ATOM    113  H56 ALA d   1     -44.640   6.451  33.468  0.00  0.00     0.030 H 
ATOM    114  H57 ALA d   1     -44.111   6.558  35.181  0.00  0.00     0.030 H 
ENDBRANCH   7 111
ENDBRANCH   4   7
ENDBRANCH   1   3
BRANCH   1 115
ATOM    115  C   ARG d   1     -41.603   4.109  30.227  0.00  0.00     0.241 C 
ATOM    116  O   ARG d   1     -42.430   3.273  30.602  0.00  0.00    -0.271 OA
ATOM    117  N   ARG d   1     -41.476   4.487  28.951  0.00  0.00    -0.346 N 
ATOM    118  H71 ARG d   1     -40.892   5.270  28.738  0.00  0.00     0.163 HD
BRANCH 117 119
ATOM    119  CA  ARG d   1     -42.162   3.795  27.848  0.00  0.00     0.089 C 
ATOM    120  H72 ARG d   1     -42.346   2.763  28.181  0.00  0.00     0.087 H 
BRANCH 119 121
ATOM    121  C   ARG d   1     -41.336   3.711  26.541  0.00  0.00     0.241 C 
ATOM    122  O   ARG d   1     -40.333   4.414  26.374  0.00  0.00    -0.271 OA
ATOM    123  N   LYS d   1     -41.763   2.848  25.621  0.00  0.00    -0.346 N 
ATOM    124  H84 LYS d   1     -42.568   2.284  25.808  0.00  0.00     0.163 HD
BRANCH 123 125
ATOM    125  CA  LYS d   1     -41.073   2.716  24.348  0.00  0.00     0.089 C 
ATOM    126  H85 LYS d   1     -39.993   2.672  24.550  0.00  0.00     0.087 H 
BRANCH 125 127
ATOM    127  C   LYS d   1     -41.344   3.926  23.470  0.00  0.00     0.241 C 
ATOM    128  O   LYS d   1     -42.364   4.592  23.604  0.00  0.00    -0.271 OA
ATOM    129  N   ARG d   1     -40.419   4.204  22.565  0.00  0.00    -0.346 N 
ATOM    130  H97 ARG d   1     -39.646   3.581  22.448  0.00  0.00     0.163 HD
BRANCH 129 131
ATOM    131  CA  ARG d   1     -40.504   5.397  21.738  0.00  0.00     0.089 C 
ATOM    132  H98 ARG d   1     -41.044   6.168  22.307  0.00  0.00     0.087 H 
BRANCH 131 133
ATOM    133  C   ARG d   1     -41.284   5.124  20.464  0.00  0.00     0.241 C 
ATOM    134  O   ARG d   1     -41.109   4.085  19.811  0.00  0.00    -0.271 OA
ATOM    135  N   LYS d   1     -42.141   6.077  20.115  0.00  0.00    -0.345 N 
ATOM    136 0H11 LYS d   1     -42.090   6.968  20.567  0.00  0.00     0.163 HD
BRANCH 135 137
ATOM    137  CA  LYS d   1     -43.153   5.857  19.091  0.00  0.00     0.096 C 
ATOM    138 1H11 LYS d   1     -42.897   4.934  18.551  0.00  0.00     0.089 H 
BRANCH 137 139
ATOM    139  C   LYS d   1     -43.199   6.997  18.074  0.00  0.00     0.196 C 
ATOM    140  O   LYS d   1     -42.391   7.037  17.140  0.00  0.00    -0.646 OA
ATOM    141  OXT LYS d   1     -44.045   7.892  18.174  0.00  0.00    -0.646 OA
ENDBRANCH 137 139
BRANCH 137 142
ATOM    142  CB  LYS d   1     -44.523   5.664  19.757  0.00  0.00    -0.037 C 
ATOM    143 2H11 LYS d   1     -45.046   4.845  19.242  0.00  0.00     0.036 H 
ATOM    144 3H11 LYS d   1     -45.098   6.595  19.643  0.00  0.00     0.036 H 
BRANCH 142 145
ATOM    145  CG  LYS d   1     -44.445   5.322  21.260  0.00  0.00    -0.061 C 
ATOM    146 4H11 LYS d   1     -44.602   6.243  21.841  0.00  0.00     0.033 H 
ATOM    147 5H11 LYS d   1     -43.446   4.916  21.479  0.00  0.00     0.033 H 
BRANCH 145 148
ATOM    148  CD  LYS d   1     -45.492   4.297  21.676  0.00  0.00    -0.043 C 
ATOM    149 6H11 LYS d   1     -45.387   3.398  21.050  0.00  0.00     0.035 H 
ATOM    150 7H11 LYS d   1     -46.495   4.727  21.535  0.00  0.00     0.035 H 
BRANCH 148 151
ATOM    151  CE  LYS d   1     -45.315   3.913  23.134  0.00  0.00     0.080 C 
ATOM    152 8H11 LYS d   1     -45.573   4.778  23.762  0.00  0.00     0.075 H 
ATOM    153 9H11 LYS d   1     -44.264   3.637  23.303  0.00  0.00     0.075 H 
BRANCH 151 154
ATOM    154  NZ  LYS d   1     -46.178   2.768  23.519  0.00  0.00    -0.079 N 
ATOM    155 0H12 LYS d   1     -46.029   2.547  24.491  0.00  0.00     0.274 HD
ATOM    156 1H12 LYS d   1     -45.946   1.967  22.953  0.00  0.00     0.274 HD
ATOM    157 2H12 LYS d   1     -47.145   3.013  23.374  0.00  0.00     0.274 HD
ENDBRANCH 151 154
ENDBRANCH 148 151
ENDBRANCH 145 148
ENDBRANCH 142 145
ENDBRANCH 137 142
ENDBRANCH 135 137
ENDBRANCH 131 133
BRANCH 131 158
ATOM    158  CB  ARG d   1     -39.109   5.931  21.424  0.00  0.00    -0.036 C 
ATOM    159  H99 ARG d   1     -38.990   5.973  20.331  0.00  0.00     0.036 H 
ATOM    160 0H10 ARG d   1     -38.367   5.238  21.847  0.00  0.00     0.036 H 
BRANCH 158 161
ATOM    161  CG  ARG d   1     -38.853   7.313  21.989  0.00  0.00    -0.048 C 
ATOM    162 1H10 ARG d   1     -39.447   7.439  22.906  0.00  0.00     0.035 H 
ATOM    163 2H10 ARG d   1     -39.161   8.064  21.247  0.00  0.00     0.035 H 
BRANCH 161 164
ATOM    164  CD  ARG d   1     -37.383   7.523  22.321  0.00  0.00     0.009 C 
ATOM    165 3H10 ARG d   1     -36.778   7.268  21.439  0.00  0.00     0.064 H 
ATOM    166 4H10 ARG d   1     -37.108   6.864  23.157  0.00  0.00     0.064 H 
BRANCH 164 167
ATOM    167  NE  ARG d   1     -37.111   8.908  22.699  0.00  0.00    -0.227 N 
ATOM    168  CZ  ARG d   1     -36.222   9.284  23.614  0.00  0.00     0.665 C 
ATOM    169  NH1 ARG d   1     -35.508   8.370  24.260  0.00  0.00    -0.235 N 
ATOM    170  NH2 ARG d   1     -36.055  10.576  23.884  0.00  0.00    -0.235 N 
ATOM    171 6H10 ARG d   1     -34.819   8.661  24.969  0.00  0.00     0.174 HD
ATOM    172 7H10 ARG d   1     -35.643   7.370  24.052  0.00  0.00     0.174 HD
ATOM    173 8H10 ARG d   1     -36.610  11.283  23.381  0.00  0.00     0.174 HD
ATOM    174 9H10 ARG d   1     -35.370  10.869  24.596  0.00  0.00     0.174 HD
ATOM    175 5H10 ARG d   1     -37.647   9.647  22.222  0.00  0.00     0.177 HD
ENDBRANCH 164 167
ENDBRANCH 161 164
ENDBRANCH 158 161
ENDBRANCH 131 158
ENDBRANCH 129 131
ENDBRANCH 125 127
BRANCH 125 176
ATOM    176  CB  LYS d   1     -41.472   1.429  23.620  0.00  0.00    -0.038 C 
ATOM    177  H86 LYS d   1     -41.099   1.489  22.587  0.00  0.00     0.036 H 
ATOM    178  H87 LYS d   1     -42.570   1.366  23.611  0.00  0.00     0.036 H 
BRANCH 176 179
ATOM    179  CG  LYS d   1     -40.926   0.148  24.250  0.00  0.00    -0.061 C 
ATOM    180  H88 LYS d   1     -41.529  -0.105  25.134  0.00  0.00     0.033 H 
ATOM    181  H89 LYS d   1     -39.881   0.312  24.553  0.00  0.00     0.033 H 
BRANCH 179 182
ATOM    182  CD  LYS d   1     -40.984  -1.013  23.253  0.00  0.00    -0.043 C 
ATOM    183  H90 LYS d   1     -42.031  -1.325  23.126  0.00  0.00     0.035 H 
ATOM    184  H91 LYS d   1     -40.396  -1.855  23.647  0.00  0.00     0.035 H 
BRANCH 182 185
ATOM    185  CE  LYS d   1     -40.412  -0.598  21.880  0.00  0.00     0.080 C 
ATOM    186  H92 LYS d   1     -39.512   0.010  22.054  0.00  0.00     0.075 H 
ATOM    187  H93 LYS d   1     -41.170   0.009  21.363  0.00  0.00     0.075 H 
BRANCH 185 188
ATOM    188  NZ  LYS d   1     -40.035  -1.750  20.977  0.00  0.00    -0.079 N 
ATOM    189  H94 LYS d   1     -39.673  -1.391  20.108  0.00  0.00     0.274 HD
ATOM    190  H95 LYS d   1     -40.850  -2.314  20.794  0.00  0.00     0.274 HD
ATOM    191  H96 LYS d   1     -39.331  -2.313  21.427  0.00  0.00     0.274 HD
ENDBRANCH 185 188
ENDBRANCH 182 185
ENDBRANCH 179 182
ENDBRANCH 176 179
ENDBRANCH 125 176
ENDBRANCH 123 125
ENDBRANCH 119 121
BRANCH 119 192
ATOM    192  CB  ARG d   1     -43.511   4.441  27.568  0.00  0.00    -0.036 C 
ATOM    193  H73 ARG d   1     -44.045   4.558  28.523  0.00  0.00     0.036 H 
ATOM    194  H74 ARG d   1     -44.084   3.775  26.906  0.00  0.00     0.036 H 
BRANCH 192 195
ATOM    195  CG  ARG d   1     -43.409   5.786  26.914  0.00  0.00    -0.048 C 
ATOM    196  H75 ARG d   1     -42.779   5.708  26.016  0.00  0.00     0.035 H 
ATOM    197  H76 ARG d   1     -42.957   6.500  27.618  0.00  0.00     0.035 H 
BRANCH 195 198
ATOM    198  CD  ARG d   1     -44.773   6.268  26.524  0.00  0.00     0.009 C 
ATOM    199  H77 ARG d   1     -45.279   6.674  27.412  0.00  0.00     0.064 H 
ATOM    200  H78 ARG d   1     -45.353   5.423  26.126  0.00  0.00     0.064 H 
BRANCH 198 201
ATOM    201  NE  ARG d   1     -44.687   7.304  25.511  0.00  0.00    -0.227 N 
ATOM    202  CZ  ARG d   1     -45.416   8.415  25.517  0.00  0.00     0.665 C 
ATOM    203  NH1 ARG d   1     -46.292   8.645  26.488  0.00  0.00    -0.235 N 
ATOM    204  NH2 ARG d   1     -45.266   9.303  24.544  0.00  0.00    -0.235 N 
ATOM    205  H80 ARG d   1     -46.852   9.510  26.483  0.00  0.00     0.174 HD
ATOM    206  H81 ARG d   1     -46.412   7.959  27.247  0.00  0.00     0.174 HD
ATOM    207  H82 ARG d   1     -44.588   9.129  23.788  0.00  0.00     0.174 HD
ATOM    208  H83 ARG d   1     -45.828  10.166  24.544  0.00  0.00     0.174 HD
ATOM    209  H79 ARG d   1     -44.019   7.170  24.739  0.00  0.00     0.177 HD
ENDBRANCH 198 201
ENDBRANCH 195 198
ENDBRANCH 192 195
ENDBRANCH 119 192
ENDBRANCH 117 119
ENDBRANCH   1 115
BRANCH   1 210
ATOM    210  CB  ARG d   1     -39.569   3.742  31.675  0.00  0.00    -0.036 C 
ATOM    211  H60 ARG d   1     -40.091   2.851  32.054  0.00  0.00     0.036 H 
ATOM    212  H61 ARG d   1     -38.988   4.201  32.489  0.00  0.00     0.036 H 
BRANCH 210 213
ATOM    213  CG  ARG d   1     -38.572   3.274  30.597  0.00  0.00    -0.048 C 
ATOM    214  H62 ARG d   1     -38.228   4.143  30.017  0.00  0.00     0.035 H 
ATOM    215  H63 ARG d   1     -39.070   2.559  29.926  0.00  0.00     0.035 H 
BRANCH 213 216
ATOM    216  CD  ARG d   1     -37.368   2.596  31.257  0.00  0.00     0.009 C 
ATOM    217  H64 ARG d   1     -37.509   2.629  32.347  0.00  0.00     0.064 H 
ATOM    218  H65 ARG d   1     -36.463   3.160  30.987  0.00  0.00     0.064 H 
BRANCH 216 219
ATOM    219  NE  ARG d   1     -37.173   1.199  30.861  0.00  0.00    -0.227 N 
ATOM    220  CZ  ARG d   1     -38.130   0.273  30.769  0.00  0.00     0.665 C 
ATOM    221  NH1 ARG d   1     -39.396   0.563  31.029  0.00  0.00    -0.235 N 
ATOM    222  NH2 ARG d   1     -37.814  -0.964  30.411  0.00  0.00    -0.235 N 
ATOM    223  H67 ARG d   1     -40.118  -0.168  30.952  0.00  0.00     0.174 HD
ATOM    224  H68 ARG d   1     -39.658   1.519  31.309  0.00  0.00     0.174 HD
ATOM    225  H69 ARG d   1     -36.834  -1.206  30.205  0.00  0.00     0.174 HD
ATOM    226  H70 ARG d   1     -38.548  -1.683  30.339  0.00  0.00     0.174 HD
ATOM    227  H66 ARG d   1     -36.212   0.905  30.633  0.00  0.00     0.177 HD
ENDBRANCH 216 219
ENDBRANCH 213 216
ENDBRANCH 210 213
ENDBRANCH   1 210
TORSDOF 59
