REMARK  6 active torsions:
REMARK  status: ('A' for Active; 'I' for Inactive)
REMARK    1  A    between atoms: S1_3  and  O2_1 
REMARK    2  A    between atoms: S1_3  and  C1_2 
REMARK    3  A    between atoms: CA3_6  and  S1_3 
REMARK    4  A    between atoms: CC2_17  and  CA6_9 
REMARK    5  A    between atoms: CC5_20  and  CB4_13 
REMARK    6  A    between atoms: CD6_26  and  CC4_19 
ROOT
ATOM      1  NC1 SB2 d   1       5.535  31.190  38.523  0.00  0.00    -0.338 N 
ATOM      2  CC2 SB2 d   1       4.920  30.716  39.625  0.00  0.00     0.139 A 
ATOM      3  NC3 SB2 d   1       5.386  29.513  40.031  0.00  0.00    -0.227 NA
ATOM      4  CC4 SB2 d   1       6.368  29.149  39.188  0.00  0.00     0.097 A 
ATOM      5  CC5 SB2 d   1       6.447  30.260  38.206  0.00  0.00     0.074 A 
ATOM      6  H   SB2 d   1       5.347  32.066  38.036  0.00  0.00     0.167 HD
ENDROOT
BRANCH   2   7
ATOM      7  CA6 SB2 d   1       3.834  31.552  40.216  0.00  0.00     0.010 A 
ATOM      8  CA1 SB2 d   1       3.134  31.037  41.311  0.00  0.00    -0.068 A 
ATOM      9  CA2 SB2 d   1       2.108  31.774  41.902  0.00  0.00    -0.065 A 
ATOM     10  H   SB2 d   1       3.392  30.054  41.705  0.00  0.00     0.085 H 
ATOM     11  CA3 SB2 d   1       1.772  33.031  41.396  0.00  0.00     0.015 A 
ATOM     12  H   SB2 d   1       1.569  31.369  42.758  0.00  0.00     0.085 H 
ATOM     13  CA4 SB2 d   1       2.468  33.548  40.297  0.00  0.00    -0.065 A 
ATOM     14  CA5 SB2 d   1       3.496  32.810  39.705  0.00  0.00    -0.068 A 
ATOM     15  H   SB2 d   1       2.207  34.530  39.902  0.00  0.00     0.085 H 
ATOM     16  H   SB2 d   1       4.034  33.213  38.847  0.00  0.00     0.085 H 
BRANCH  11  17
ATOM     17  S1  SB2 d   1       0.475  33.969  42.139  0.00  0.00    -0.062 S 
BRANCH  17  18
ATOM     18  O2  SB2 d   1       1.367  34.621  43.559  0.00  0.00    -0.337 OA
ATOM     19  H   SB2 d   1       0.741  34.979  44.192  0.00  0.00     0.227 HD
ENDBRANCH  17  18
BRANCH  17  20
ATOM     20  C1  SB2 d   1      -0.658  32.653  42.673  0.00  0.00    -0.017 C 
ATOM     21  H   SB2 d   1      -0.982  32.080  41.804  0.00  0.00     0.044 H 
ATOM     22  H   SB2 d   1      -0.144  31.995  43.374  0.00  0.00     0.044 H 
ATOM     23  H   SB2 d   1      -1.526  33.098  43.160  0.00  0.00     0.044 H 
ENDBRANCH  17  20
ENDBRANCH  11  17
ENDBRANCH   2   7
BRANCH   5  24
ATOM     24  CB4 SB2 d   1       7.276  30.523  36.991  0.00  0.00    -0.004 A 
ATOM     25  CB3 SB2 d   1       7.617  29.470  36.142  0.00  0.00    -0.054 A 
ATOM     26  CB2 SB2 d   1       8.388  29.724  35.005  0.00  0.00     0.003 A 
ATOM     27  H   SB2 d   1       7.284  28.456  36.364  0.00  0.00     0.087 H 
ATOM     28  NB1 SB2 d   1       8.802  30.971  34.720  0.00  0.00    -0.273 NA
ATOM     29  H   SB2 d   1       8.657  28.902  34.342  0.00  0.00     0.114 H 
ATOM     30  CB6 SB2 d   1       8.487  32.007  35.521  0.00  0.00     0.003 A 
ATOM     31  CB5 SB2 d   1       7.718  31.810  36.674  0.00  0.00    -0.054 A 
ATOM     32  H   SB2 d   1       8.834  33.009  35.269  0.00  0.00     0.114 H 
ATOM     33  H   SB2 d   1       7.466  32.653  37.318  0.00  0.00     0.087 H 
ENDBRANCH   5  24
BRANCH   4  34
ATOM     34  CD6 SB2 d   1       7.142  27.878  39.260  0.00  0.00    -0.005 A 
ATOM     35  CD1 SB2 d   1       8.517  27.832  39.009  0.00  0.00    -0.068 A 
ATOM     36  CD2 SB2 d   1       9.187  26.605  39.085  0.00  0.00    -0.045 A 
ATOM     37  H   SB2 d   1       9.061  28.742  38.757  0.00  0.00     0.085 H 
ATOM     38  CD3 SB2 d   1       8.483  25.437  39.409  0.00  0.00     0.116 A 
ATOM     39  H   SB2 d   1      10.259  26.558  38.892  0.00  0.00     0.088 H 
ATOM     40  CD4 SB2 d   1       7.114  25.490  39.668  0.00  0.00    -0.045 A 
ATOM     41  FD3 SB2 d   1       9.116  24.256  39.481  0.00  0.00    -0.206 F 
ATOM     42  CD5 SB2 d   1       6.447  26.711  39.590  0.00  0.00    -0.068 A 
ATOM     43  H   SB2 d   1       6.569  24.583  39.930  0.00  0.00     0.088 H 
ATOM     44  H   SB2 d   1       5.376  26.756  39.788  0.00  0.00     0.085 H 
ENDBRANCH   4  34
TORSDOF 6
