REMARK  27 active torsions:
REMARK  status: ('A' for Active; 'I' for Inactive)
REMARK    1  A    between atoms: N_1  and  CA_2 
REMARK    2  A    between atoms: CA_2  and  C_3 
REMARK    3  A    between atoms: CA_2  and  CB_5 
REMARK       I    between atoms: C_3  and  N_6 
REMARK    4  A    between atoms: N_6  and  CA_7 
REMARK    5  A    between atoms: CA_7  and  C_8 
REMARK    6  A    between atoms: CA_7  and  CB_10 
REMARK       I    between atoms: C_8  and  N_17 
REMARK    7  A    between atoms: CB_10  and  CG_11 
REMARK    8  A    between atoms: CG_11  and  CD_12 
REMARK    9  A    between atoms: CD_12  and  NE_13 
REMARK       I    between atoms: NE_13  and  CZ_14 
REMARK       I    between atoms: CZ_14  and  NH1_15 
REMARK   10  A    between atoms: N_17  and  CA_18 
REMARK   11  A    between atoms: CA_18  and  CB_19 
REMARK   12  A    between atoms: CA_18  and  C_26 
REMARK   13  A    between atoms: CB_19  and  CG2_20 
REMARK   14  A    between atoms: CB_19  and  OG1_21 
REMARK   15  A    between atoms: OG1_21  and  P_22 
REMARK       I    between atoms: C_26  and  N_28 
REMARK   16  A    between atoms: N_28  and  CA_29 
REMARK   17  A    between atoms: CA_29  and  C_30 
REMARK   18  A    between atoms: CA_29  and  CB_32 
REMARK       I    between atoms: C_30  and  N_37 
REMARK   19  A    between atoms: CB_32  and  CG_33 
REMARK   20  A    between atoms: CG_33  and  CD_34 
REMARK   21  A    between atoms: CD_34  and  CE_35 
REMARK   22  A    between atoms: CE_35  and  NZ_36 
REMARK   23  A    between atoms: N_37  and  CA_38 
REMARK   24  A    between atoms: CA_38  and  C_39 
REMARK   25  A    between atoms: CA_38  and  CB_41 
REMARK   26  A    between atoms: CB_41  and  CG_42 
REMARK   27  A    between atoms: CG_42  and  CD_43 
REMARK       I    between atoms: CD_43  and  NE2_45 
ROOT
ATOM      1  CA  TPO d   1      34.177  -7.535  -3.109  0.00  0.00     0.114 C 
ATOM      2  H22 TPO d   1      33.681  -7.079  -2.240  0.00  0.00     0.091 H 
ENDROOT
BRANCH   1   3
ATOM      3  N   TPO d   1      34.872  -8.746  -2.660  0.00  0.00    -0.344 N 
ATOM      4  C   ARG d   1      34.232  -9.867  -2.326  0.00  0.00     0.241 C 
ATOM      5  O   ARG d   1      32.998  -9.971  -2.315  0.00  0.00    -0.271 OA
ATOM      6  H21 TPO d   1      35.870  -8.730  -2.602  0.00  0.00     0.163 HD
BRANCH   4   7
ATOM      7  CA  ARG d   1      35.114 -11.057  -1.969  0.00  0.00     0.089 C 
ATOM      8  H9  ARG d   1      36.045 -10.685  -1.517  0.00  0.00     0.087 H 
BRANCH   7   9
ATOM      9  N   ARG d   1      34.452 -11.934  -1.015  0.00  0.00    -0.346 N 
ATOM     10  C   ALA d   1      35.147 -12.550  -0.065  0.00  0.00     0.248 C 
ATOM     11  O   ALA d   1      36.338 -12.309   0.152  0.00  0.00    -0.271 OA
ATOM     12  H8  ARG d   1      33.464 -12.075  -1.075  0.00  0.00     0.163 HD
BRANCH  10  13
ATOM     13  CA  ALA d   1      34.391 -13.575   0.777  0.00  0.00     0.172 C 
ATOM     14  H4  ALA d   1      33.748 -14.166   0.108  0.00  0.00     0.098 H 
BRANCH  13  15
ATOM     15  N   ALA d   1      35.319 -14.484   1.445  0.00  0.00    -0.067 N 
ATOM     16  H1  ALA d   1      34.799 -15.151   1.994  0.00  0.00     0.275 HD
ATOM     17  H2  ALA d   1      35.931 -13.956   2.048  0.00  0.00     0.275 HD
ATOM     18  H3  ALA d   1      35.867 -14.972   0.754  0.00  0.00     0.275 HD
ENDBRANCH  13  15
BRANCH  13  19
ATOM     19  CB  ALA d   1      33.512 -12.881   1.796  0.00  0.00    -0.042 C 
ATOM     20  H5  ALA d   1      32.819 -12.200   1.280  0.00  0.00     0.030 H 
ATOM     21  H6  ALA d   1      34.141 -12.306   2.491  0.00  0.00     0.030 H 
ATOM     22  H7  ALA d   1      32.938 -13.633   2.357  0.00  0.00     0.030 H 
ENDBRANCH  13  19
ENDBRANCH  10  13
ENDBRANCH   7   9
BRANCH   7  23
ATOM     23  CB  ARG d   1      35.456 -11.837  -3.251  0.00  0.00    -0.036 C 
ATOM     24  H10 ARG d   1      35.822 -12.835  -2.970  0.00  0.00     0.036 H 
ATOM     25  H11 ARG d   1      36.246 -11.296  -3.793  0.00  0.00     0.036 H 
BRANCH  23  26
ATOM     26  CG  ARG d   1      34.247 -12.000  -4.179  0.00  0.00    -0.048 C 
ATOM     27  H12 ARG d   1      34.084 -11.046  -4.702  0.00  0.00     0.035 H 
ATOM     28  H13 ARG d   1      33.368 -12.234  -3.560  0.00  0.00     0.035 H 
BRANCH  26  29
ATOM     29  CD  ARG d   1      34.396 -13.096  -5.226  0.00  0.00     0.009 C 
ATOM     30  H14 ARG d   1      34.701 -14.030  -4.731  0.00  0.00     0.064 H 
ATOM     31  H15 ARG d   1      35.165 -12.798  -5.954  0.00  0.00     0.064 H 
BRANCH  29  32
ATOM     32  NE  ARG d   1      33.128 -13.315  -5.927  0.00  0.00    -0.227 N 
ATOM     33  CZ  ARG d   1      32.295 -14.326  -5.681  0.00  0.00     0.665 C 
ATOM     34  NH1 ARG d   1      31.160 -14.444  -6.362  0.00  0.00    -0.235 N 
ATOM     35  NH2 ARG d   1      32.602 -15.226  -4.757  0.00  0.00    -0.235 N 
ATOM     36  H17 ARG d   1      30.521 -15.228  -6.166  0.00  0.00     0.174 HD
ATOM     37  H18 ARG d   1      30.919 -13.752  -7.085  0.00  0.00     0.174 HD
ATOM     38  H19 ARG d   1      33.480 -15.140  -4.226  0.00  0.00     0.174 HD
ATOM     39  H20 ARG d   1      31.962 -16.011  -4.570  0.00  0.00     0.174 HD
ATOM     40  H16 ARG d   1      32.862 -12.642  -6.660  0.00  0.00     0.177 HD
ENDBRANCH  29  32
ENDBRANCH  26  29
ENDBRANCH  23  26
ENDBRANCH   7  23
ENDBRANCH   4   7
ENDBRANCH   1   3
BRANCH   1  41
ATOM     41  CB  TPO d   1      35.187  -6.527  -3.669  0.00  0.00     0.076 C 
ATOM     42  H23 TPO d   1      35.714  -6.954  -4.535  0.00  0.00     0.087 H 
BRANCH  41  43
ATOM     43  CG2 TPO d   1      34.482  -5.235  -4.084  0.00  0.00    -0.049 C 
ATOM     44  H24 TPO d   1      35.222  -4.525  -4.483  0.00  0.00     0.031 H 
ATOM     45  H25 TPO d   1      33.983  -4.792  -3.209  0.00  0.00     0.031 H 
ATOM     46  H26 TPO d   1      33.734  -5.458  -4.859  0.00  0.00     0.031 H 
ENDBRANCH  41  43
BRANCH  41  47
ATOM     47  OG1 TPO d   1      36.105  -6.264  -2.606  0.00  0.00    -0.275 OA
BRANCH  47  48
ATOM     48  P   TPO d   1      37.411  -5.510  -3.147  0.00  0.00     0.422 P 
ATOM     49  O1P TPO d   1      37.943  -6.272  -4.297  0.00  0.00    -0.617 OA
ATOM     50  O2P TPO d   1      37.007  -4.024  -3.613  0.00  0.00    -0.617 OA
ATOM     51  O3P TPO d   1      38.492  -5.414  -1.950  0.00  0.00    -0.617 OA
ENDBRANCH  47  48
ENDBRANCH  41  47
ENDBRANCH   1  41
BRANCH   1  52
ATOM     52  C   TPO d   1      33.111  -7.873  -4.137  0.00  0.00     0.243 C 
ATOM     53  O   TPO d   1      33.267  -8.815  -4.902  0.00  0.00    -0.271 OA
ATOM     54  N   LYS d   1      32.017  -7.127  -4.145  0.00  0.00    -0.346 N 
ATOM     55  H27 LYS d   1      31.960  -6.325  -3.551  0.00  0.00     0.163 HD
BRANCH  54  56
ATOM     56  CA  LYS d   1      30.893  -7.465  -5.014  0.00  0.00     0.089 C 
ATOM     57  H28 LYS d   1      30.597  -8.501  -4.792  0.00  0.00     0.087 H 
BRANCH  56  58
ATOM     58  C   LYS d   1      31.264  -7.387  -6.494  0.00  0.00     0.241 C 
ATOM     59  O   LYS d   1      32.299  -6.826  -6.845  0.00  0.00    -0.271 OA
ATOM     60  N   GLN d   1      30.413  -7.973  -7.339  0.00  0.00    -0.345 N 
ATOM     61  H40 GLN d   1      29.671  -8.519  -6.950  0.00  0.00     0.163 HD
BRANCH  60  62
ATOM     62  CA  GLN d   1      30.494  -7.869  -8.795  0.00  0.00     0.096 C 
ATOM     63  H41 GLN d   1      30.928  -8.805  -9.175  0.00  0.00     0.089 H 
BRANCH  62  64
ATOM     64  C   GLN d   1      31.378  -6.720  -9.271  0.00  0.00     0.196 C 
ATOM     65  O   GLN d   1      32.457  -6.938  -9.826  0.00  0.00    -0.646 OA
ATOM     66  OXT GLN d   1      31.034  -5.547  -9.112  0.00  0.00    -0.646 OA
ENDBRANCH  62  64
BRANCH  62  67
ATOM     67  CB  GLN d   1      29.084  -7.716  -9.376  0.00  0.00    -0.029 C 
ATOM     68  H42 GLN d   1      28.547  -6.965  -8.778  0.00  0.00     0.037 H 
ATOM     69  H43 GLN d   1      28.572  -8.686  -9.291  0.00  0.00     0.037 H 
BRANCH  67  70
ATOM     70  CG  GLN d   1      29.037  -7.280 -10.840  0.00  0.00     0.011 C 
ATOM     71  H44 GLN d   1      28.111  -7.669 -11.290  0.00  0.00     0.047 H 
ATOM     72  H45 GLN d   1      29.906  -7.710 -11.360  0.00  0.00     0.047 H 
BRANCH  70  73
ATOM     73  CD  GLN d   1      29.065  -5.763 -11.025  0.00  0.00     0.215 C 
ATOM     74  OE1 GLN d   1      28.090  -5.067 -10.726  0.00  0.00    -0.274 OA
ATOM     75  NE2 GLN d   1      30.184  -5.249 -11.531  0.00  0.00    -0.370 N 
ATOM     76  H46 GLN d   1      30.261  -4.262 -11.675  0.00  0.00     0.159 HD
ATOM     77  H47 GLN d   1      30.948  -5.850 -11.767  0.00  0.00     0.159 HD
ENDBRANCH  70  73
ENDBRANCH  67  70
ENDBRANCH  62  67
ENDBRANCH  60  62
ENDBRANCH  56  58
BRANCH  56  78
ATOM     78  CB  LYS d   1      29.694  -6.553  -4.737  0.00  0.00    -0.038 C 
ATOM     79  H29 LYS d   1      29.965  -5.526  -5.023  0.00  0.00     0.036 H 
ATOM     80  H30 LYS d   1      29.472  -6.588  -3.660  0.00  0.00     0.036 H 
BRANCH  78  81
ATOM     81  CG  LYS d   1      28.439  -6.950  -5.500  0.00  0.00    -0.061 C 
ATOM     82  H31 LYS d   1      27.961  -7.790  -4.974  0.00  0.00     0.033 H 
ATOM     83  H32 LYS d   1      28.731  -7.269  -6.512  0.00  0.00     0.033 H 
BRANCH  81  84
ATOM     84  CD  LYS d   1      27.433  -5.821  -5.621  0.00  0.00    -0.043 C 
ATOM     85  H33 LYS d   1      27.892  -4.984  -6.168  0.00  0.00     0.035 H 
ATOM     86  H34 LYS d   1      27.142  -5.486  -4.614  0.00  0.00     0.035 H 
BRANCH  84  87
ATOM     87  CE  LYS d   1      26.191  -6.290  -6.372  0.00  0.00     0.080 C 
ATOM     88  H35 LYS d   1      25.597  -6.930  -5.703  0.00  0.00     0.075 H 
ATOM     89  H36 LYS d   1      26.510  -6.873  -7.249  0.00  0.00     0.075 H 
BRANCH  87  90
ATOM     90  NZ  LYS d   1      25.332  -5.160  -6.838  0.00  0.00    -0.079 N 
ATOM     91  H37 LYS d   1      24.530  -5.527  -7.325  0.00  0.00     0.274 HD
ATOM     92  H38 LYS d   1      25.862  -4.569  -7.460  0.00  0.00     0.274 HD
ATOM     93  H39 LYS d   1      25.025  -4.621  -6.043  0.00  0.00     0.274 HD
ENDBRANCH  87  90
ENDBRANCH  84  87
ENDBRANCH  81  84
ENDBRANCH  78  81
ENDBRANCH  56  78
ENDBRANCH  54  56
ENDBRANCH   1  52
TORSDOF 27
