REMARK  15 active torsions:
REMARK  status: ('A' for Active; 'I' for Inactive)
REMARK    1  A    between atoms: N_1  and  CA_2 
REMARK    2  A    between atoms: CA_2  and  C_3 
REMARK    3  A    between atoms: CA_2  and  CB_5 
REMARK       I    between atoms: C_3  and  N_6 
REMARK    4  A    between atoms: N_6  and  CA_7 
REMARK    5  A    between atoms: CA_7  and  C_8 
REMARK    6  A    between atoms: CA_7  and  CB_10 
REMARK       I    between atoms: C_8  and  N_13 
REMARK    7  A    between atoms: CB_10  and  CG1_11 
REMARK    8  A    between atoms: CB_10  and  CG2_12 
REMARK    9  A    between atoms: CA_14  and  C_15 
REMARK       I    between atoms: C_15  and  N_20 
REMARK   10  A    between atoms: N_20  and  CA_21 
REMARK   11  A    between atoms: CA_21  and  C_22 
REMARK   12  A    between atoms: CA_21  and  CB_24 
REMARK   13  A    between atoms: CB_24  and  CG1_25 
REMARK   14  A    between atoms: CB_24  and  CG2_26 
REMARK   15  A    between atoms: CG1_25  and  CD1_27 
ROOT
ATOM      1  C   VAL d   1     -34.321 -10.062   2.479  0.00  0.00     0.243 C 
ATOM      2  O   VAL d   1     -33.127 -10.251   2.356  0.00  0.00    -0.271 OA
ATOM      3  N   PRO d   1     -34.831  -8.980   3.038  0.00  0.00    -0.337 N 
ATOM      4  CA  PRO d   1     -34.002  -7.875   3.500  0.00  0.00     0.091 C 
ATOM      5  CB  PRO d   1     -35.031  -6.882   4.009  0.00  0.00    -0.036 C 
ATOM      6  CG  PRO d   1     -36.185  -7.099   3.140  0.00  0.00    -0.048 C 
ATOM      7  CD  PRO d   1     -36.221  -8.561   2.826  0.00  0.00    -0.001 C 
ATOM      8  H17 PRO d   1     -33.424  -7.454   2.664  0.00  0.00     0.087 H 
ATOM      9  H18 PRO d   1     -34.660  -5.851   3.917  0.00  0.00     0.036 H 
ATOM     10  H19 PRO d   1     -35.287  -7.087   5.059  0.00  0.00     0.036 H 
ATOM     11  H20 PRO d   1     -36.077  -6.515   2.214  0.00  0.00     0.035 H 
ATOM     12  H21 PRO d   1     -37.109  -6.800   3.656  0.00  0.00     0.035 H 
ATOM     13  H22 PRO d   1     -36.902  -9.094   3.505  0.00  0.00     0.064 H 
ATOM     14  H23 PRO d   1     -36.531  -8.734   1.785  0.00  0.00     0.064 H 
ENDROOT
BRANCH   1  15
ATOM     15  CA  VAL d   1     -35.322 -11.084   2.016  0.00  0.00     0.092 C 
ATOM     16  H9  VAL d   1     -36.071 -10.589   1.380  0.00  0.00     0.088 H 
BRANCH  15  17
ATOM     17  N   VAL d   1     -34.696 -12.138   1.245  0.00  0.00    -0.346 N 
ATOM     18  C   ALA d   1     -35.339 -12.724   0.249  0.00  0.00     0.248 C 
ATOM     19  O   ALA d   1     -36.456 -12.389  -0.107  0.00  0.00    -0.271 OA
ATOM     20  H8  VAL d   1     -33.765 -12.427   1.469  0.00  0.00     0.163 HD
BRANCH  18  21
ATOM     21  CA  ALA d   1     -34.614 -13.848  -0.443  0.00  0.00     0.172 C 
ATOM     22  H4  ALA d   1     -34.652 -14.739   0.200  0.00  0.00     0.098 H 
BRANCH  21  23
ATOM     23  N   ALA d   1     -35.259 -14.161  -1.704  0.00  0.00    -0.067 N 
ATOM     24  H1  ALA d   1     -34.765 -14.914  -2.156  0.00  0.00     0.275 HD
ATOM     25  H2  ALA d   1     -35.248 -13.347  -2.298  0.00  0.00     0.275 HD
ATOM     26  H3  ALA d   1     -36.213 -14.440  -1.534  0.00  0.00     0.275 HD
ENDBRANCH  21  23
BRANCH  21  27
ATOM     27  CB  ALA d   1     -33.185 -13.481  -0.661  0.00  0.00    -0.042 C 
ATOM     28  H5  ALA d   1     -32.715 -13.248   0.306  0.00  0.00     0.030 H 
ATOM     29  H6  ALA d   1     -33.129 -12.601  -1.318  0.00  0.00     0.030 H 
ATOM     30  H7  ALA d   1     -32.657 -14.324  -1.131  0.00  0.00     0.030 H 
ENDBRANCH  21  27
ENDBRANCH  18  21
ENDBRANCH  15  17
BRANCH  15  31
ATOM     31  CB  VAL d   1     -36.013 -11.647   3.259  0.00  0.00    -0.033 C 
ATOM     32  H10 VAL d   1     -36.189 -10.819   3.961  0.00  0.00     0.042 H 
BRANCH  31  33
ATOM     33  CG1 VAL d   1     -37.351 -12.248   2.894  0.00  0.00    -0.071 C 
ATOM     34  H11 VAL d   1     -37.833 -12.647   3.799  0.00  0.00     0.028 H 
ATOM     35  H12 VAL d   1     -37.202 -13.061   2.169  0.00  0.00     0.028 H 
ATOM     36  H13 VAL d   1     -37.992 -11.473   2.449  0.00  0.00     0.028 H 
ENDBRANCH  31  33
BRANCH  31  37
ATOM     37  CG2 VAL d   1     -35.124 -12.666   3.943  0.00  0.00    -0.071 C 
ATOM     38  H14 VAL d   1     -34.160 -12.200   4.196  0.00  0.00     0.028 H 
ATOM     39  H15 VAL d   1     -34.954 -13.517   3.267  0.00  0.00     0.028 H 
ATOM     40  H16 VAL d   1     -35.612 -13.020   4.863  0.00  0.00     0.028 H 
ENDBRANCH  31  37
ENDBRANCH  15  31
ENDBRANCH   1  15
BRANCH   4  41
ATOM     41  C   PRO d   1     -33.049  -8.253   4.614  0.00  0.00     0.241 C 
ATOM     42  O   PRO d   1     -33.429  -8.914   5.565  0.00  0.00    -0.271 OA
ATOM     43  N   ILE d   1     -31.808  -7.816   4.489  0.00  0.00    -0.344 N 
ATOM     44  H24 ILE d   1     -31.560  -7.296   3.672  0.00  0.00     0.163 HD
BRANCH  43  45
ATOM     45  CA  ILE d   1     -30.796  -8.063   5.493  0.00  0.00     0.099 C 
ATOM     46  H25 ILE d   1     -30.429  -9.094   5.385  0.00  0.00     0.090 H 
BRANCH  45  47
ATOM     47  C   ILE d   1     -31.360  -7.871   6.884  0.00  0.00     0.197 C 
ATOM     48  O   ILE d   1     -30.617  -7.592   7.821  0.00  0.00    -0.646 OA
ATOM     49  OXT ILE d   1     -32.565  -7.993   7.086  0.00  0.00    -0.646 OA
ENDBRANCH  45  47
BRANCH  45  50
ATOM     50  CB  ILE d   1     -29.644  -7.092   5.326  0.00  0.00    -0.029 C 
ATOM     51  H26 ILE d   1     -29.199  -7.234   4.330  0.00  0.00     0.043 H 
BRANCH  50  52
ATOM     52  CG1 ILE d   1     -28.582  -7.350   6.383  0.00  0.00    -0.063 C 
ATOM     53  H27 ILE d   1     -28.383  -8.431   6.423  0.00  0.00     0.033 H 
ATOM     54  H28 ILE d   1     -28.967  -7.012   7.356  0.00  0.00     0.033 H 
BRANCH  52  55
ATOM     55  CD1 ILE d   1     -27.293  -6.638   6.107  0.00  0.00    -0.076 C 
ATOM     56  H32 ILE d   1     -26.570  -6.865   6.905  0.00  0.00     0.027 H 
ATOM     57  H33 ILE d   1     -27.473  -5.553   6.074  0.00  0.00     0.027 H 
ATOM     58  H34 ILE d   1     -26.889  -6.973   5.140  0.00  0.00     0.027 H 
ENDBRANCH  52  55
ENDBRANCH  50  52
BRANCH  50  59
ATOM     59  CG2 ILE d   1     -30.145  -5.679   5.441  0.00  0.00    -0.070 C 
ATOM     60  H29 ILE d   1     -30.913  -5.499   4.674  0.00  0.00     0.028 H 
ATOM     61  H30 ILE d   1     -29.308  -4.980   5.294  0.00  0.00     0.028 H 
ATOM     62  H31 ILE d   1     -30.581  -5.524   6.439  0.00  0.00     0.028 H 
ENDBRANCH  50  59
ENDBRANCH  45  50
ENDBRANCH  43  45
ENDBRANCH   4  41
TORSDOF 15
