REMARK  21 active torsions:
REMARK  status: ('A' for Active; 'I' for Inactive)
REMARK    1  A    between atoms: N_1  and  CA_2 
REMARK    2  A    between atoms: CA_2  and  C_3 
REMARK    3  A    between atoms: CA_2  and  CB_5 
REMARK       I    between atoms: C_3  and  N_6 
REMARK    4  A    between atoms: N_6  and  CA_7 
REMARK    5  A    between atoms: CA_7  and  C_8 
REMARK    6  A    between atoms: CA_7  and  CB_10 
REMARK       I    between atoms: C_8  and  N_17 
REMARK    7  A    between atoms: CB_10  and  CG_11 
REMARK    8  A    between atoms: CG_11  and  CD_12 
REMARK    9  A    between atoms: CD_12  and  NE_13 
REMARK       I    between atoms: NE_13  and  CZ_14 
REMARK       I    between atoms: CZ_14  and  NH1_15 
REMARK   10  A    between atoms: N_17  and  CA_18 
REMARK   11  A    between atoms: CA_18  and  C_19 
REMARK   12  A    between atoms: CA_18  and  CB_21 
REMARK       I    between atoms: C_19  and  N_24 
REMARK   13  A    between atoms: CB_21  and  OG1_22 
REMARK   14  A    between atoms: CB_21  and  CG2_23 
REMARK   15  A    between atoms: N_24  and  CA_25 
REMARK   16  A    between atoms: CA_25  and  C_26 
REMARK   17  A    between atoms: CA_25  and  CB_28 
REMARK   18  A    between atoms: CB_28  and  CG_29 
REMARK   19  A    between atoms: CG_29  and  CD_30 
REMARK   20  A    between atoms: CD_30  and  CE_31 
REMARK   21  A    between atoms: CE_31  and  NZ_32 
ROOT
ATOM      1  C   ARG d   1      34.164  -9.617  -2.595  0.00  0.00     0.241 C 
ATOM      2  O   ARG d   1      32.971  -9.679  -2.288  0.00  0.00    -0.271 OA
ATOM      3  N   THR d   1      34.716  -8.528  -3.133  0.00  0.00    -0.344 N 
ATOM      4  H21 THR d   1      35.696  -8.531  -3.330  0.00  0.00     0.163 HD
ENDROOT
BRANCH   3   5
ATOM      5  CA  THR d   1      33.933  -7.325  -3.446  0.00  0.00     0.113 C 
ATOM      6  H22 THR d   1      33.426  -7.011  -2.522  0.00  0.00     0.091 H 
BRANCH   5   7
ATOM      7  C   THR d   1      32.854  -7.602  -4.508  0.00  0.00     0.243 C 
ATOM      8  O   THR d   1      32.946  -8.573  -5.265  0.00  0.00    -0.271 OA
ATOM      9  N   LYS d   1      31.832  -6.753  -4.548  0.00  0.00    -0.345 N 
ATOM     10  H28 LYS d   1      31.794  -6.013  -3.877  0.00  0.00     0.163 HD
BRANCH   9  11
ATOM     11  CA  LYS d   1      30.767  -6.862  -5.534  0.00  0.00     0.096 C 
ATOM     12  H29 LYS d   1      30.445  -7.912  -5.602  0.00  0.00     0.089 H 
BRANCH  11  13
ATOM     13  C   LYS d   1      31.276  -6.411  -6.904  0.00  0.00     0.196 C 
ATOM     14  O   LYS d   1      31.056  -7.080  -7.916  0.00  0.00    -0.646 OA
ATOM     15  OXT LYS d   1      31.919  -5.367  -7.031  0.00  0.00    -0.646 OA
ENDBRANCH  11  13
BRANCH  11  16
ATOM     16  CB  LYS d   1      29.576  -6.003  -5.095  0.00  0.00    -0.037 C 
ATOM     17  H30 LYS d   1      29.882  -4.948  -5.146  0.00  0.00     0.036 H 
ATOM     18  H31 LYS d   1      29.334  -6.265  -4.054  0.00  0.00     0.036 H 
BRANCH  16  19
ATOM     19  CG  LYS d   1      28.314  -6.164  -5.923  0.00  0.00    -0.061 C 
ATOM     20  H32 LYS d   1      27.847  -7.132  -5.687  0.00  0.00     0.033 H 
ATOM     21  H33 LYS d   1      28.575  -6.133  -6.991  0.00  0.00     0.033 H 
BRANCH  19  22
ATOM     22  CD  LYS d   1      27.336  -5.051  -5.617  0.00  0.00    -0.043 C 
ATOM     23  H34 LYS d   1      27.896  -4.125  -5.420  0.00  0.00     0.035 H 
ATOM     24  H35 LYS d   1      26.751  -5.322  -4.726  0.00  0.00     0.035 H 
BRANCH  22  25
ATOM     25  CE  LYS d   1      26.383  -4.816  -6.784  0.00  0.00     0.080 C 
ATOM     26  H36 LYS d   1      25.738  -5.699  -6.904  0.00  0.00     0.075 H 
ATOM     27  H37 LYS d   1      26.971  -4.663  -7.701  0.00  0.00     0.075 H 
BRANCH  25  28
ATOM     28  NZ  LYS d   1      25.524  -3.614  -6.550  0.00  0.00    -0.079 N 
ATOM     29  H38 LYS d   1      24.906  -3.484  -7.336  0.00  0.00     0.274 HD
ATOM     30  H39 LYS d   1      26.108  -2.799  -6.444  0.00  0.00     0.274 HD
ATOM     31  H40 LYS d   1      24.979  -3.748  -5.713  0.00  0.00     0.274 HD
ENDBRANCH  25  28
ENDBRANCH  22  25
ENDBRANCH  19  22
ENDBRANCH  16  19
ENDBRANCH  11  16
ENDBRANCH   9  11
ENDBRANCH   5   7
BRANCH   5  32
ATOM     32  CB  THR d   1      34.837  -6.151  -3.919  0.00  0.00     0.060 C 
ATOM     33  H23 THR d   1      34.904  -6.179  -5.017  0.00  0.00     0.086 H 
BRANCH  32  34
ATOM     34  OG1 THR d   1      36.155  -6.284  -3.367  0.00  0.00    -0.393 OA
ATOM     35  H24 THR d   1      36.696  -5.561  -3.664  0.00  0.00     0.210 HD
ENDBRANCH  32  34
BRANCH  32  36
ATOM     36  CG2 THR d   1      34.247  -4.804  -3.493  0.00  0.00    -0.050 C 
ATOM     37  H25 THR d   1      34.903  -3.991  -3.838  0.00  0.00     0.031 H 
ATOM     38  H26 THR d   1      34.166  -4.769  -2.397  0.00  0.00     0.031 H 
ATOM     39  H27 THR d   1      33.248  -4.684  -3.938  0.00  0.00     0.031 H 
ENDBRANCH  32  36
ENDBRANCH   5  32
ENDBRANCH   3   5
BRANCH   1  40
ATOM     40  CA  ARG d   1      35.080 -10.830  -2.380  0.00  0.00     0.089 C 
ATOM     41  H9  ARG d   1      36.062 -10.460  -2.049  0.00  0.00     0.087 H 
BRANCH  40  42
ATOM     42  N   ARG d   1      34.538 -11.694  -1.330  0.00  0.00    -0.346 N 
ATOM     43  C   ALA d   1      35.299 -12.221  -0.373  0.00  0.00     0.248 C 
ATOM     44  O   ALA d   1      36.511 -12.008  -0.282  0.00  0.00    -0.271 OA
ATOM     45  H8  ARG d   1      33.559 -11.896  -1.331  0.00  0.00     0.163 HD
BRANCH  43  46
ATOM     46  CA  ALA d   1      34.582 -13.126   0.634  0.00  0.00     0.172 C 
ATOM     47  H4  ALA d   1      33.847 -13.723   0.074  0.00  0.00     0.098 H 
BRANCH  46  48
ATOM     48  N   ALA d   1      35.509 -14.085   1.321  0.00  0.00    -0.067 N 
ATOM     49  H1  ALA d   1      34.986 -14.652   1.969  0.00  0.00     0.275 HD
ATOM     50  H2  ALA d   1      36.216 -13.569   1.821  0.00  0.00     0.275 HD
ATOM     51  H3  ALA d   1      35.948 -14.678   0.634  0.00  0.00     0.275 HD
ENDBRANCH  46  48
BRANCH  46  52
ATOM     52  CB  ALA d   1      33.826 -12.292   1.652  0.00  0.00    -0.042 C 
ATOM     53  H5  ALA d   1      33.153 -11.597   1.129  0.00  0.00     0.030 H 
ATOM     54  H6  ALA d   1      34.541 -11.721   2.262  0.00  0.00     0.030 H 
ATOM     55  H7  ALA d   1      33.236 -12.954   2.303  0.00  0.00     0.030 H 
ENDBRANCH  46  52
ENDBRANCH  43  46
ENDBRANCH  40  42
BRANCH  40  56
ATOM     56  CB  ARG d   1      35.289 -11.629  -3.692  0.00  0.00    -0.036 C 
ATOM     57  H10 ARG d   1      35.650 -12.633  -3.423  0.00  0.00     0.036 H 
ATOM     58  H11 ARG d   1      36.056 -11.110  -4.286  0.00  0.00     0.036 H 
BRANCH  56  59
ATOM     59  CG  ARG d   1      34.036 -11.797  -4.578  0.00  0.00    -0.048 C 
ATOM     60  H12 ARG d   1      33.750 -10.810  -4.971  0.00  0.00     0.035 H 
ATOM     61  H13 ARG d   1      33.220 -12.195  -3.958  0.00  0.00     0.035 H 
BRANCH  59  62
ATOM     62  CD  ARG d   1      34.257 -12.747  -5.761  0.00  0.00     0.009 C 
ATOM     63  H14 ARG d   1      35.339 -12.897  -5.895  0.00  0.00     0.064 H 
ATOM     64  H15 ARG d   1      33.836 -12.285  -6.666  0.00  0.00     0.064 H 
BRANCH  62  65
ATOM     65  NE  ARG d   1      33.623 -14.055  -5.563  0.00  0.00    -0.227 N 
ATOM     66  CZ  ARG d   1      32.417 -14.394  -6.026  0.00  0.00     0.665 C 
ATOM     67  NH1 ARG d   1      31.927 -15.609  -5.795  0.00  0.00    -0.235 N 
ATOM     68  NH2 ARG d   1      31.693 -13.522  -6.723  0.00  0.00    -0.235 N 
ATOM     69  H17 ARG d   1      30.996 -15.866  -6.154  0.00  0.00     0.174 HD
ATOM     70  H18 ARG d   1      32.478 -16.293  -5.257  0.00  0.00     0.174 HD
ATOM     71  H19 ARG d   1      32.062 -12.578  -6.908  0.00  0.00     0.174 HD
ATOM     72  H20 ARG d   1      30.764 -13.791  -7.077  0.00  0.00     0.174 HD
ATOM     73  H16 ARG d   1      34.146 -14.763  -5.028  0.00  0.00     0.177 HD
ENDBRANCH  62  65
ENDBRANCH  59  62
ENDBRANCH  56  59
ENDBRANCH  40  56
ENDBRANCH   1  40
TORSDOF 21
