REMARK  15 active torsions:
REMARK  status: ('A' for Active; 'I' for Inactive)
REMARK    1  A    between atoms: N_1  and  CA_2 
REMARK    2  A    between atoms: CA_2  and  C_3 
REMARK    3  A    between atoms: CA_2  and  CB_5 
REMARK       I    between atoms: C_3  and  N_6 
REMARK    4  A    between atoms: N_6  and  CA_7 
REMARK    5  A    between atoms: CA_7  and  C_8 
REMARK    6  A    between atoms: CA_7  and  CB_10 
REMARK       I    between atoms: C_8  and  N_13 
REMARK    7  A    between atoms: CB_10  and  CG1_11 
REMARK    8  A    between atoms: CB_10  and  CG2_12 
REMARK    9  A    between atoms: CA_14  and  C_15 
REMARK       I    between atoms: C_15  and  N_20 
REMARK   10  A    between atoms: N_20  and  CA_21 
REMARK   11  A    between atoms: CA_21  and  C_22 
REMARK   12  A    between atoms: CA_21  and  CB_24 
REMARK   13  A    between atoms: CB_24  and  CG1_25 
REMARK   14  A    between atoms: CB_24  and  CG2_26 
REMARK   15  A    between atoms: CG1_25  and  CD1_27 
ROOT
ATOM      1  C   VAL d   1     -33.958 -10.390   2.692  0.00  0.00     0.243 C 
ATOM      2  O   VAL d   1     -32.736 -10.476   2.588  0.00  0.00    -0.271 OA
ATOM      3  N   PRO d   1     -34.566  -9.281   3.136  0.00  0.00    -0.337 N 
ATOM      4  CA  PRO d   1     -33.797  -8.119   3.597  0.00  0.00     0.091 C 
ATOM      5  CB  PRO d   1     -34.880  -7.129   4.035  0.00  0.00    -0.036 C 
ATOM      6  CG  PRO d   1     -36.114  -7.560   3.324  0.00  0.00    -0.048 C 
ATOM      7  CD  PRO d   1     -36.018  -9.045   3.188  0.00  0.00    -0.001 C 
ATOM      8  H17 PRO d   1     -33.177  -7.706   2.788  0.00  0.00     0.087 H 
ATOM      9  H18 PRO d   1     -34.606  -6.104   3.745  0.00  0.00     0.036 H 
ATOM     10  H19 PRO d   1     -35.027  -7.175   5.124  0.00  0.00     0.036 H 
ATOM     11  H20 PRO d   1     -36.167  -7.089   2.332  0.00  0.00     0.035 H 
ATOM     12  H21 PRO d   1     -37.006  -7.287   3.908  0.00  0.00     0.035 H 
ATOM     13  H22 PRO d   1     -36.470  -9.551   4.054  0.00  0.00     0.064 H 
ATOM     14  H23 PRO d   1     -36.508  -9.390   2.265  0.00  0.00     0.064 H 
ENDROOT
BRANCH   1  15
ATOM     15  CA  VAL d   1     -34.857 -11.566   2.305  0.00  0.00     0.092 C 
ATOM     16  H9  VAL d   1     -35.785 -11.165   1.871  0.00  0.00     0.088 H 
BRANCH  15  17
ATOM     17  N   VAL d   1     -34.220 -12.412   1.298  0.00  0.00    -0.346 N 
ATOM     18  C   ALA d   1     -34.917 -13.006   0.333  0.00  0.00     0.248 C 
ATOM     19  O   ALA d   1     -36.137 -12.889   0.213  0.00  0.00    -0.271 OA
ATOM     20  H8  VAL d   1     -33.230 -12.549   1.335  0.00  0.00     0.163 HD
BRANCH  18  21
ATOM     21  CA  ALA d   1     -34.118 -13.858  -0.644  0.00  0.00     0.172 C 
ATOM     22  H4  ALA d   1     -33.515 -14.573  -0.066  0.00  0.00     0.098 H 
BRANCH  21  23
ATOM     23  N   ALA d   1     -35.003 -14.612  -1.523  0.00  0.00    -0.067 N 
ATOM     24  H1  ALA d   1     -34.452 -15.167  -2.159  0.00  0.00     0.275 HD
ATOM     25  H2  ALA d   1     -35.580 -13.973  -2.048  0.00  0.00     0.275 HD
ATOM     26  H3  ALA d   1     -35.589 -15.218  -0.970  0.00  0.00     0.275 HD
ENDBRANCH  21  23
BRANCH  21  27
ATOM     27  CB  ALA d   1     -33.180 -12.988  -1.458  0.00  0.00    -0.042 C 
ATOM     28  H5  ALA d   1     -32.520 -12.427  -0.780  0.00  0.00     0.030 H 
ATOM     29  H6  ALA d   1     -33.767 -12.283  -2.065  0.00  0.00     0.030 H 
ATOM     30  H7  ALA d   1     -32.572 -13.623  -2.119  0.00  0.00     0.030 H 
ENDBRANCH  21  27
ENDBRANCH  18  21
ENDBRANCH  15  17
BRANCH  15  31
ATOM     31  CB  VAL d   1     -35.224 -12.369   3.580  0.00  0.00    -0.033 C 
ATOM     32  H10 VAL d   1     -35.660 -11.671   4.310  0.00  0.00     0.042 H 
BRANCH  31  33
ATOM     33  CG1 VAL d   1     -36.265 -13.436   3.266  0.00  0.00    -0.071 C 
ATOM     34  H11 VAL d   1     -36.509 -13.991   4.184  0.00  0.00     0.028 H 
ATOM     35  H12 VAL d   1     -35.863 -14.130   2.513  0.00  0.00     0.028 H 
ATOM     36  H13 VAL d   1     -37.175 -12.957   2.875  0.00  0.00     0.028 H 
ENDBRANCH  31  33
BRANCH  31  37
ATOM     37  CG2 VAL d   1     -33.980 -12.992   4.205  0.00  0.00    -0.071 C 
ATOM     38  H14 VAL d   1     -33.245 -12.203   4.422  0.00  0.00     0.028 H 
ATOM     39  H15 VAL d   1     -33.542 -13.719   3.505  0.00  0.00     0.028 H 
ATOM     40  H16 VAL d   1     -34.256 -13.503   5.139  0.00  0.00     0.028 H 
ENDBRANCH  31  37
ENDBRANCH  15  31
ENDBRANCH   1  15
BRANCH   4  41
ATOM     41  C   PRO d   1     -32.921  -8.478   4.792  0.00  0.00     0.241 C 
ATOM     42  O   PRO d   1     -33.138  -9.512   5.424  0.00  0.00    -0.271 OA
ATOM     43  N   ILE d   1     -31.947  -7.628   5.097  0.00  0.00    -0.344 N 
ATOM     44  H24 ILE d   1     -31.805  -6.824   4.519  0.00  0.00     0.163 HD
BRANCH  43  45
ATOM     45  CA  ILE d   1     -31.079  -7.835   6.252  0.00  0.00     0.099 C 
ATOM     46  H25 ILE d   1     -31.194  -8.879   6.580  0.00  0.00     0.090 H 
BRANCH  45  47
ATOM     47  C   ILE d   1     -31.467  -6.920   7.413  0.00  0.00     0.197 C 
ATOM     48  O   ILE d   1     -31.479  -7.336   8.574  0.00  0.00    -0.646 OA
ATOM     49  OXT ILE d   1     -31.778  -5.742   7.218  0.00  0.00    -0.646 OA
ENDBRANCH  45  47
BRANCH  45  50
ATOM     50  CB  ILE d   1     -29.602  -7.600   5.888  0.00  0.00    -0.029 C 
ATOM     51  H26 ILE d   1     -29.179  -8.543   5.513  0.00  0.00     0.043 H 
BRANCH  50  52
ATOM     52  CG1 ILE d   1     -28.810  -7.165   7.122  0.00  0.00    -0.063 C 
ATOM     53  H27 ILE d   1     -28.721  -8.027   7.799  0.00  0.00     0.033 H 
ATOM     54  H28 ILE d   1     -29.365  -6.360   7.625  0.00  0.00     0.033 H 
BRANCH  52  55
ATOM     55  CD1 ILE d   1     -27.418  -6.660   6.804  0.00  0.00    -0.076 C 
ATOM     56  H32 ILE d   1     -26.912  -6.367   7.736  0.00  0.00     0.027 H 
ATOM     57  H33 ILE d   1     -27.488  -5.789   6.136  0.00  0.00     0.027 H 
ATOM     58  H34 ILE d   1     -26.843  -7.457   6.310  0.00  0.00     0.027 H 
ENDBRANCH  52  55
ENDBRANCH  50  52
BRANCH  50  59
ATOM     59  CG2 ILE d   1     -29.487  -6.549   4.799  0.00  0.00    -0.070 C 
ATOM     60  H29 ILE d   1     -30.059  -6.871   3.917  0.00  0.00     0.028 H 
ATOM     61  H30 ILE d   1     -28.430  -6.421   4.523  0.00  0.00     0.028 H 
ATOM     62  H31 ILE d   1     -29.888  -5.593   5.168  0.00  0.00     0.028 H 
ENDBRANCH  50  59
ENDBRANCH  45  50
ENDBRANCH  43  45
ENDBRANCH   4  41
TORSDOF 15
