REMARK  21 active torsions:
REMARK  status: ('A' for Active; 'I' for Inactive)
REMARK    1  A    between atoms: N_1  and  CA_2 
REMARK    2  A    between atoms: CA_2  and  C_3 
REMARK    3  A    between atoms: CA_2  and  CB_5 
REMARK       I    between atoms: C_3  and  N_6 
REMARK    4  A    between atoms: N_6  and  CA_7 
REMARK    5  A    between atoms: CA_7  and  C_8 
REMARK    6  A    between atoms: CA_7  and  CB_10 
REMARK       I    between atoms: C_8  and  N_17 
REMARK    7  A    between atoms: CB_10  and  CG_11 
REMARK    8  A    between atoms: CG_11  and  CD_12 
REMARK    9  A    between atoms: CD_12  and  NE_13 
REMARK       I    between atoms: NE_13  and  CZ_14 
REMARK       I    between atoms: CZ_14  and  NH1_15 
REMARK   10  A    between atoms: N_17  and  CA_18 
REMARK   11  A    between atoms: CA_18  and  C_19 
REMARK   12  A    between atoms: CA_18  and  CB_21 
REMARK       I    between atoms: C_19  and  N_24 
REMARK   13  A    between atoms: CB_21  and  OG1_22 
REMARK   14  A    between atoms: CB_21  and  CG2_23 
REMARK   15  A    between atoms: N_24  and  CA_25 
REMARK   16  A    between atoms: CA_25  and  C_26 
REMARK   17  A    between atoms: CA_25  and  CB_28 
REMARK   18  A    between atoms: CB_28  and  CG_29 
REMARK   19  A    between atoms: CG_29  and  CD_30 
REMARK   20  A    between atoms: CD_30  and  CE_31 
REMARK   21  A    between atoms: CE_31  and  NZ_32 
ROOT
ATOM      1  C   ARG d   1      34.499  -9.320  -2.496  0.00  0.00     0.241 C 
ATOM      2  O   ARG d   1      33.286  -9.409  -2.338  0.00  0.00    -0.271 OA
ATOM      3  N   THR d   1      35.095  -8.172  -2.813  0.00  0.00    -0.344 N 
ATOM      4  H21 THR d   1      36.094  -8.134  -2.848  0.00  0.00     0.163 HD
ENDROOT
BRANCH   3   5
ATOM      5  CA  THR d   1      34.322  -6.965  -3.111  0.00  0.00     0.113 C 
ATOM      6  H22 THR d   1      33.771  -6.654  -2.211  0.00  0.00     0.091 H 
BRANCH   5   7
ATOM      7  C   THR d   1      33.350  -7.249  -4.253  0.00  0.00     0.243 C 
ATOM      8  O   THR d   1      33.626  -8.085  -5.100  0.00  0.00    -0.271 OA
ATOM      9  N   LYS d   1      32.214  -6.561  -4.275  0.00  0.00    -0.345 N 
ATOM     10  H28 LYS d   1      32.041  -5.880  -3.563  0.00  0.00     0.163 HD
BRANCH   9  11
ATOM     11  CA  LYS d   1      31.211  -6.777  -5.317  0.00  0.00     0.096 C 
ATOM     12  H29 LYS d   1      30.737  -7.753  -5.137  0.00  0.00     0.089 H 
BRANCH  11  13
ATOM     13  C   LYS d   1      31.833  -6.799  -6.692  0.00  0.00     0.196 C 
ATOM     14  O   LYS d   1      31.130  -6.701  -7.691  0.00  0.00    -0.646 OA
ATOM     15  OXT LYS d   1      33.046  -6.915  -6.821  0.00  0.00    -0.646 OA
ENDBRANCH  11  13
BRANCH  11  16
ATOM     16  CB  LYS d   1      30.135  -5.699  -5.259  0.00  0.00    -0.037 C 
ATOM     17  H30 LYS d   1      30.592  -4.747  -5.569  0.00  0.00     0.036 H 
ATOM     18  H31 LYS d   1      29.791  -5.619  -4.217  0.00  0.00     0.036 H 
BRANCH  16  19
ATOM     19  CG  LYS d   1      28.909  -5.943  -6.142  0.00  0.00    -0.061 C 
ATOM     20  H32 LYS d   1      28.476  -6.926  -5.907  0.00  0.00     0.033 H 
ATOM     21  H33 LYS d   1      29.207  -5.917  -7.201  0.00  0.00     0.033 H 
BRANCH  19  22
ATOM     22  CD  LYS d   1      27.873  -4.851  -5.875  0.00  0.00    -0.043 C 
ATOM     23  H34 LYS d   1      28.318  -3.877  -6.126  0.00  0.00     0.035 H 
ATOM     24  H35 LYS d   1      27.611  -4.870  -4.807  0.00  0.00     0.035 H 
BRANCH  22  25
ATOM     25  CE  LYS d   1      26.602  -5.027  -6.689  0.00  0.00     0.080 C 
ATOM     26  H36 LYS d   1      26.200  -6.034  -6.504  0.00  0.00     0.075 H 
ATOM     27  H37 LYS d   1      26.848  -4.921  -7.756  0.00  0.00     0.075 H 
BRANCH  25  28
ATOM     28  NZ  LYS d   1      25.556  -4.018  -6.333  0.00  0.00    -0.079 N 
ATOM     29  H38 LYS d   1      24.734  -4.173  -6.896  0.00  0.00     0.274 HD
ATOM     30  H39 LYS d   1      25.911  -3.091  -6.505  0.00  0.00     0.274 HD
ATOM     31  H40 LYS d   1      25.318  -4.111  -5.358  0.00  0.00     0.274 HD
ENDBRANCH  25  28
ENDBRANCH  22  25
ENDBRANCH  19  22
ENDBRANCH  16  19
ENDBRANCH  11  16
ENDBRANCH   9  11
ENDBRANCH   5   7
BRANCH   5  32
ATOM     32  CB  THR d   1      35.236  -5.824  -3.585  0.00  0.00     0.060 C 
ATOM     33  H23 THR d   1      34.941  -4.894  -3.077  0.00  0.00     0.086 H 
BRANCH  32  34
ATOM     34  OG1 THR d   1      35.087  -5.660  -5.001  0.00  0.00    -0.393 OA
ATOM     35  H24 THR d   1      35.330  -6.467  -5.439  0.00  0.00     0.210 HD
ENDBRANCH  32  34
BRANCH  32  36
ATOM     36  CG2 THR d   1      36.686  -6.122  -3.266  0.00  0.00    -0.050 C 
ATOM     37  H25 THR d   1      37.316  -5.291  -3.615  0.00  0.00     0.031 H 
ATOM     38  H26 THR d   1      36.989  -7.050  -3.772  0.00  0.00     0.031 H 
ATOM     39  H27 THR d   1      36.805  -6.241  -2.179  0.00  0.00     0.031 H 
ENDBRANCH  32  36
ENDBRANCH   5  32
ENDBRANCH   3   5
BRANCH   1  40
ATOM     40  CA  ARG d   1      35.387 -10.559  -2.366  0.00  0.00     0.089 C 
ATOM     41  H9  ARG d   1      36.365 -10.253  -1.967  0.00  0.00     0.087 H 
BRANCH  40  42
ATOM     42  N   ARG d   1      34.797 -11.540  -1.449  0.00  0.00    -0.346 N 
ATOM     43  C   ALA d   1      35.511 -12.174  -0.516  0.00  0.00     0.248 C 
ATOM     44  O   ALA d   1      36.703 -11.948  -0.302  0.00  0.00    -0.271 OA
ATOM     45  H8  ARG d   1      33.821 -11.742  -1.526  0.00  0.00     0.163 HD
BRANCH  43  46
ATOM     46  CA  ALA d   1      34.767 -13.202   0.320  0.00  0.00     0.172 C 
ATOM     47  H4  ALA d   1      34.025 -13.699  -0.322  0.00  0.00     0.098 H 
BRANCH  46  48
ATOM     48  N   ALA d   1      35.674 -14.219   0.846  0.00  0.00    -0.067 N 
ATOM     49  H1  ALA d   1      35.151 -14.884   1.394  0.00  0.00     0.275 HD
ATOM     50  H2  ALA d   1      36.371 -13.780   1.426  0.00  0.00     0.275 HD
ATOM     51  H3  ALA d   1      36.125 -14.695   0.081  0.00  0.00     0.275 HD
ENDBRANCH  46  48
BRANCH  46  52
ATOM     52  CB  ALA d   1      34.044 -12.521   1.448  0.00  0.00    -0.042 C 
ATOM     53  H5  ALA d   1      33.364 -11.758   1.040  0.00  0.00     0.030 H 
ATOM     54  H6  ALA d   1      34.775 -12.042   2.116  0.00  0.00     0.030 H 
ATOM     55  H7  ALA d   1      33.463 -13.265   2.013  0.00  0.00     0.030 H 
ENDBRANCH  46  52
ENDBRANCH  43  46
ENDBRANCH  40  42
BRANCH  40  56
ATOM     56  CB  ARG d   1      35.589 -11.182  -3.758  0.00  0.00    -0.036 C 
ATOM     57  H10 ARG d   1      35.917 -12.224  -3.626  0.00  0.00     0.036 H 
ATOM     58  H11 ARG d   1      36.373 -10.614  -4.280  0.00  0.00     0.036 H 
BRANCH  56  59
ATOM     59  CG  ARG d   1      34.331 -11.181  -4.634  0.00  0.00    -0.048 C 
ATOM     60  H12 ARG d   1      34.123 -10.147  -4.946  0.00  0.00     0.035 H 
ATOM     61  H13 ARG d   1      33.489 -11.560  -4.036  0.00  0.00     0.035 H 
BRANCH  59  62
ATOM     62  CD  ARG d   1      34.465 -12.044  -5.881  0.00  0.00     0.009 C 
ATOM     63  H14 ARG d   1      35.532 -12.145  -6.130  0.00  0.00     0.064 H 
ATOM     64  H15 ARG d   1      33.939 -11.551  -6.712  0.00  0.00     0.064 H 
BRANCH  62  65
ATOM     65  NE  ARG d   1      33.897 -13.378  -5.687  0.00  0.00    -0.227 N 
ATOM     66  CZ  ARG d   1      32.652 -13.716  -6.008  0.00  0.00     0.665 C 
ATOM     67  NH1 ARG d   1      32.223 -14.956  -5.796  0.00  0.00    -0.235 N 
ATOM     68  NH2 ARG d   1      31.839 -12.811  -6.543  0.00  0.00    -0.235 N 
ATOM     69  H17 ARG d   1      31.258 -15.217  -6.045  0.00  0.00     0.174 HD
ATOM     70  H18 ARG d   1      32.855 -15.656  -5.383  0.00  0.00     0.174 HD
ATOM     71  H19 ARG d   1      32.174 -11.851  -6.706  0.00  0.00     0.174 HD
ATOM     72  H20 ARG d   1      30.874 -13.070  -6.794  0.00  0.00     0.174 HD
ATOM     73  H16 ARG d   1      34.501 -14.103  -5.275  0.00  0.00     0.177 HD
ENDBRANCH  62  65
ENDBRANCH  59  62
ENDBRANCH  56  59
ENDBRANCH  40  56
ENDBRANCH   1  40
TORSDOF 21
