REMARK  7 active torsions:
REMARK  status: ('A' for Active; 'I' for Inactive)
REMARK    1  A    between atoms: C5_5  and  C8_8 
REMARK    2  A    between atoms: C6_6  and  O7_7 
REMARK    3  A    between atoms: C10_10  and  N18_18 
REMARK    4  A    between atoms: N18_18  and  C19_19 
REMARK    5  A    between atoms: C19_19  and  C20_20 
REMARK    6  A    between atoms: C20_20  and  C21_21 
REMARK    7  A    between atoms: C21_21  and  N22_22 
ROOT
ATOM      1  C8  Q17 d   1     -40.510  -2.163   0.789  0.00  0.00     0.165 A 
ATOM      2  N9  Q17 d   1     -40.786  -1.970   2.112  0.00  0.00    -0.210 NA
ATOM      3  C10 Q17 d   1     -42.040  -1.666   2.506  0.00  0.00     0.138 A 
ATOM      4  C11 Q17 d   1     -43.053  -1.546   1.545  0.00  0.00     0.038 A 
ATOM      5  C12 Q17 d   1     -42.744  -1.750   0.209  0.00  0.00     0.073 A 
ATOM      6  N13 Q17 d   1     -41.471  -2.050  -0.139  0.00  0.00    -0.228 NA
ATOM      7  C14 Q17 d   1     -43.718  -1.655  -0.789  0.00  0.00    -0.054 A 
ATOM      8  C15 Q17 d   1     -45.033  -1.335  -0.434  0.00  0.00    -0.081 A 
ATOM      9  C16 Q17 d   1     -45.343  -1.143   0.907  0.00  0.00    -0.082 A 
ATOM     10  C17 Q17 d   1     -44.368  -1.239   1.905  0.00  0.00    -0.067 A 
ATOM     11  H6  Q17 d   1     -43.457  -1.827  -1.827  0.00  0.00     0.087 H 
ATOM     12  H7  Q17 d   1     -45.799  -1.238  -1.194  0.00  0.00     0.083 H 
ATOM     13  H8  Q17 d   1     -46.365  -0.913   1.186  0.00  0.00     0.083 H 
ATOM     14  H9  Q17 d   1     -44.629  -1.077   2.945  0.00  0.00     0.085 H 
ENDROOT
BRANCH   3  15
ATOM     15  N18 Q17 d   1     -42.293  -1.504   3.823  0.00  0.00    -0.374 N 
ATOM     16  H10 Q17 d   1     -43.272  -1.507   4.143  0.00  0.00     0.161 HD
BRANCH  15  17
ATOM     17  C19 Q17 d   1     -41.230  -1.324   4.813  0.00  0.00    -0.004 C 
ATOM     18  H11 Q17 d   1     -41.713  -1.097   5.775  0.00  0.00     0.064 H 
ATOM     19  H12 Q17 d   1     -40.627  -0.462   4.493  0.00  0.00     0.064 H 
BRANCH  17  20
ATOM     20  C20 Q17 d   1     -40.258  -2.500   5.054  0.00  0.00    -0.028 C 
ATOM     21  H13 Q17 d   1     -39.551  -2.193   5.839  0.00  0.00     0.037 H 
ATOM     22  H14 Q17 d   1     -39.711  -2.678   4.117  0.00  0.00     0.037 H 
BRANCH  20  23
ATOM     23  C21 Q17 d   1     -40.877  -3.817   5.482  0.00  0.00     0.081 C 
ATOM     24  H15 Q17 d   1     -41.101  -4.417   4.588  0.00  0.00     0.075 H 
ATOM     25  H16 Q17 d   1     -41.809  -3.615   6.031  0.00  0.00     0.075 H 
BRANCH  23  26
ATOM     26  N22 Q17 d   1     -39.960  -4.571   6.351  0.00  0.00    -0.079 N 
ATOM     27  H17 Q17 d   1     -40.392  -5.440   6.622  0.00  0.00     0.274 HD
ATOM     28  H18 Q17 d   1     -39.754  -4.027   7.174  0.00  0.00     0.274 HD
ATOM     29  H19 Q17 d   1     -39.105  -4.762   5.852  0.00  0.00     0.274 HD
ENDBRANCH  23  26
ENDBRANCH  20  23
ENDBRANCH  17  20
ENDBRANCH  15  17
ENDBRANCH   3  15
BRANCH   1  30
ATOM     30  C5  Q17 d   1     -39.133  -2.508   0.379  0.00  0.00     0.045 A 
ATOM     31  C4  Q17 d   1     -38.179  -2.632   1.371  0.00  0.00    -0.067 A 
ATOM     32  C3  Q17 d   1     -36.874  -2.987   1.016  0.00  0.00    -0.082 A 
ATOM     33  H4  Q17 d   1     -38.438  -2.457   2.409  0.00  0.00     0.085 H 
ATOM     34  C2  Q17 d   1     -36.515  -3.209  -0.312  0.00  0.00    -0.080 A 
ATOM     35  H3  Q17 d   1     -36.124  -3.092   1.792  0.00  0.00     0.083 H 
ATOM     36  C1  Q17 d   1     -37.455  -3.115  -1.348  0.00  0.00    -0.050 A 
ATOM     37  H2  Q17 d   1     -35.487  -3.460  -0.549  0.00  0.00     0.083 H 
ATOM     38  C6  Q17 d   1     -38.764  -2.779  -1.045  0.00  0.00     0.079 A 
ATOM     39  H1  Q17 d   1     -37.161  -3.303  -2.374  0.00  0.00     0.087 H 
BRANCH  38  40
ATOM     40  O7  Q17 d   1     -39.683  -2.701  -2.051  0.00  0.00    -0.360 OA
ATOM     41  H5  Q17 d   1     -39.263  -2.905  -2.878  0.00  0.00     0.217 HD
ENDBRANCH  38  40
ENDBRANCH   1  30
TORSDOF 7
