REMARK  11 active torsions:
REMARK  status: ('A' for Active; 'I' for Inactive)
REMARK    1  A    between atoms: N_1  and  CA_2 
REMARK    2  A    between atoms: CA_2  and  CB_3 
REMARK    3  A    between atoms: CA_2  and  C_6 
REMARK    4  A    between atoms: CB_3  and  CG_4 
REMARK    5  A    between atoms: CG_4  and  SD_5 
REMARK    6  A    between atoms: SD_5  and  C5'_9 
REMARK    7  A    between atoms: C5'_9  and  C4'_10 
REMARK    8  A    between atoms: C3'_12  and  O3'_13 
REMARK    9  A    between atoms: C2'_14  and  O2'_15 
REMARK   10  A    between atoms: C1'_16  and  N9_17 
REMARK   11  A    between atoms: C6_21  and  N6_22 
ROOT
ATOM      1  C4' SAH d   1      47.008   3.766  28.357  0.00  0.00     0.076 C 
ATOM      2  O4' SAH d   1      47.751   3.601  29.592  0.00  0.00    -0.355 OA
ATOM      3  C3' SAH d   1      46.055   4.888  28.593  0.00  0.00     0.090 C 
ATOM      4  C2' SAH d   1      46.279   5.278  30.003  0.00  0.00     0.105 C 
ATOM      5  C1' SAH d   1      46.904   4.057  30.599  0.00  0.00     0.139 C 
ATOM      6  H11 SAH d   1      46.461   2.848  28.096  0.00  0.00     0.088 H 
ATOM      7  H12 SAH d   1      46.291   5.737  27.935  0.00  0.00     0.091 H 
ATOM      8  H14 SAH d   1      46.994   6.113  30.040  0.00  0.00     0.093 H 
ATOM      9  H16 SAH d   1      46.124   3.309  30.805  0.00  0.00     0.122 H 
ENDROOT
BRANCH   1  10
ATOM     10  C5' SAH d   1      47.952   4.087  27.329  0.00  0.00     0.003 C 
ATOM     11  H9  SAH d   1      48.388   5.065  27.581  0.00  0.00     0.052 H 
ATOM     12  H10 SAH d   1      48.738   3.318  27.356  0.00  0.00     0.052 H 
BRANCH  10  13
ATOM     13  SD  SAH d   1      47.359   4.187  25.624  0.00  0.00    -0.166 SA
BRANCH  13  14
ATOM     14  CG  SAH d   1      47.276   2.469  25.028  0.00  0.00    -0.021 C 
ATOM     15  H7  SAH d   1      47.346   2.477  23.930  0.00  0.00     0.049 H 
ATOM     16  H8  SAH d   1      48.129   1.913  25.446  0.00  0.00     0.049 H 
BRANCH  14  17
ATOM     17  CB  SAH d   1      45.984   1.748  25.427  0.00  0.00    -0.021 C 
ATOM     18  H5  SAH d   1      45.928   1.718  26.525  0.00  0.00     0.037 H 
ATOM     19  H6  SAH d   1      45.131   2.319  25.031  0.00  0.00     0.037 H 
BRANCH  17  20
ATOM     20  CA  SAH d   1      45.891   0.276  24.885  0.00  0.00     0.183 C 
ATOM     21  H4  SAH d   1      44.908  -0.123  25.175  0.00  0.00     0.101 H 
BRANCH  20  22
ATOM     22  N   SAH d   1      46.941  -0.571  25.505  0.00  0.00    -0.065 N 
ATOM     23  H1  SAH d   1      46.870  -0.512  26.509  0.00  0.00     0.275 HD
ATOM     24  H2  SAH d   1      47.850  -0.247  25.213  0.00  0.00     0.275 HD
ATOM     25  H3  SAH d   1      46.816  -1.528  25.215  0.00  0.00     0.275 HD
ENDBRANCH  20  22
BRANCH  20  26
ATOM     26  C   SAH d   1      45.997   0.188  23.416  0.00  0.00     0.204 C 
ATOM     27  O   SAH d   1      46.963  -0.365  22.916  0.00  0.00    -0.646 OA
ATOM     28  OXT SAH d   1      45.180   0.744  22.718  0.00  0.00    -0.646 OA
ENDBRANCH  20  26
ENDBRANCH  17  20
ENDBRANCH  14  17
ENDBRANCH  13  14
ENDBRANCH  10  13
ENDBRANCH   1  10
BRANCH   3  29
ATOM     29  O3' SAH d   1      44.731   4.457  28.317  0.00  0.00    -0.390 OA
ATOM     30  H13 SAH d   1      44.510   3.730  28.888  0.00  0.00     0.210 HD
ENDBRANCH   3  29
BRANCH   5  31
ATOM     31  N9  SAH d   1      47.662   4.304  31.882  0.00  0.00    -0.294 N 
ATOM     32  C8  SAH d   1      48.609   5.223  32.101  0.00  0.00     0.071 A 
ATOM     33  N7  SAH d   1      49.034   5.092  33.358  0.00  0.00    -0.236 NA
ATOM     34  H17 SAH d   1      48.971   5.952  31.378  0.00  0.00     0.144 H 
ATOM     35  C5  SAH d   1      48.366   4.078  33.940  0.00  0.00     0.149 A 
ATOM     36  C6  SAH d   1      48.389   3.516  35.228  0.00  0.00     0.155 A 
ATOM     37  C4  SAH d   1      47.472   3.570  32.986  0.00  0.00     0.167 A 
ATOM     38  N1  SAH d   1      47.558   2.493  35.489  0.00  0.00    -0.222 NA
ATOM     39  C2  SAH d   1      46.723   2.017  34.557  0.00  0.00     0.091 A 
ATOM     40  N3  SAH d   1      46.666   2.541  33.308  0.00  0.00    -0.222 NA
ATOM     41  H20 SAH d   1      46.073   1.187  34.809  0.00  0.00     0.146 H 
BRANCH  36  42
ATOM     42  N6  SAH d   1      49.236   3.993  36.197  0.00  0.00    -0.382 N 
ATOM     43  H18 SAH d   1      49.237   3.567  37.135  0.00  0.00     0.157 HD
ATOM     44  H19 SAH d   1      49.870   4.777  35.986  0.00  0.00     0.157 HD
ENDBRANCH  36  42
ENDBRANCH   5  31
BRANCH   4  45
ATOM     45  O2' SAH d   1      45.110   5.690  30.687  0.00  0.00    -0.388 OA
ATOM     46  H15 SAH d   1      44.480   4.979  30.692  0.00  0.00     0.210 HD
ENDBRANCH   4  45
TORSDOF 11
