REMARK  5 active torsions:
REMARK  status: ('A' for Active; 'I' for Inactive)
REMARK    1  A    between atoms: CAQ_1  and  CAP_2 
REMARK    2  A    between atoms: CAD_10  and  CAE_11 
REMARK    3  A    between atoms: CAE_11  and  CAF_12 
REMARK    4  A    between atoms: CAF_12  and  NAG_13 
REMARK       I    between atoms: NAG_13  and  CAH_14 
REMARK    5  A    between atoms: CAH_14  and  CAI_16 
ROOT
ATOM      1  CAE CKH d   1       0.895  17.512  38.072  0.00  0.00    -0.024 C 
ATOM      2  H9  CKH d   1       0.688  18.283  37.315  0.00  0.00     0.042 H 
ATOM      3  H10 CKH d   1       1.968  17.513  38.313  0.00  0.00     0.042 H 
ENDROOT
BRANCH   1   4
ATOM      4  CAD CKH d   1       0.514  16.142  37.503  0.00  0.00    -0.022 A 
ATOM      5  CAP CKH d   1       1.160  14.929  37.701  0.00  0.00     0.013 A 
ATOM      6  NAO CKH d   1       0.577  13.975  36.982  0.00  0.00    -0.359 N 
ATOM      7  CAN CKH d   1      -0.448  14.509  36.317  0.00  0.00     0.043 A 
ATOM      8  H4  CKH d   1       0.869  12.988  36.945  0.00  0.00     0.166 HD
ATOM      9  CAM CKH d   1      -1.387  13.946  35.460  0.00  0.00    -0.056 A 
ATOM     10  CAC CKH d   1      -0.522  15.865  36.619  0.00  0.00    -0.001 A 
ATOM     11  CAL CKH d   1      -2.395  14.732  34.912  0.00  0.00    -0.081 A 
ATOM     12  H5  CKH d   1      -1.333  12.891  35.218  0.00  0.00     0.086 H 
ATOM     13  CAA CKH d   1      -2.467  16.085  35.217  0.00  0.00    -0.082 A 
ATOM     14  H6  CKH d   1      -3.126  14.288  34.246  0.00  0.00     0.083 H 
ATOM     15  CAB CKH d   1      -1.527  16.653  36.072  0.00  0.00    -0.070 A 
ATOM     16  H7  CKH d   1      -3.253  16.697  34.790  0.00  0.00     0.083 H 
ATOM     17  H8  CKH d   1      -1.579  17.709  36.311  0.00  0.00     0.084 H 
BRANCH   5  18
ATOM     18  CAQ CKH d   1       2.345  14.709  38.644  0.00  0.00    -0.037 C 
ATOM     19  H1  CKH d   1       2.626  15.665  39.109  0.00  0.00     0.035 H 
ATOM     20  H2  CKH d   1       3.199  14.314  38.074  0.00  0.00     0.035 H 
ATOM     21  H3  CKH d   1       2.062  13.989  39.426  0.00  0.00     0.035 H 
ENDBRANCH   5  18
ENDBRANCH   1   4
BRANCH   1  22
ATOM     22  CAF CKH d   1       0.101  17.835  39.340  0.00  0.00    -0.001 C 
ATOM     23  H11 CKH d   1      -0.974  17.715  39.138  0.00  0.00     0.064 H 
ATOM     24  H12 CKH d   1       0.303  18.873  39.643  0.00  0.00     0.064 H 
BRANCH  22  25
ATOM     25  NAG CKH d   1       0.499  16.924  40.423  0.00  0.00    -0.356 N 
ATOM     26  CAH CKH d   1       1.403  17.282  41.329  0.00  0.00     0.254 C 
ATOM     27  OAR CKH d   1       1.949  18.387  41.327  0.00  0.00    -0.268 OA
ATOM     28  H13 CKH d   1       0.081  16.017  40.479  0.00  0.00     0.162 HD
BRANCH  26  29
ATOM     29  CAI CKH d   1       1.740  16.252  42.411  0.00  0.00     0.070 A 
ATOM     30  CAJ CKH d   1       2.837  16.488  43.228  0.00  0.00    -0.065 A 
ATOM     31  CAK CKH d   1       3.186  15.586  44.229  0.00  0.00    -0.082 A 
ATOM     32  H14 CKH d   1       3.429  17.385  43.085  0.00  0.00     0.085 H 
ATOM     33  CAU CKH d   1       2.432  14.433  44.416  0.00  0.00    -0.080 A 
ATOM     34  H15 CKH d   1       4.044  15.782  44.862  0.00  0.00     0.083 H 
ATOM     35  CAT CKH d   1       1.333  14.193  43.600  0.00  0.00    -0.045 A 
ATOM     36  H16 CKH d   1       2.700  13.726  45.193  0.00  0.00     0.083 H 
ATOM     37  CAS CKH d   1       0.986  15.095  42.603  0.00  0.00     0.132 A 
ATOM     38  H17 CKH d   1       0.743  13.295  43.743  0.00  0.00     0.088 H 
ATOM     39  FAV CKH d   1      -0.098  14.830  41.845  0.00  0.00    -0.205 F 
ENDBRANCH  26  29
ENDBRANCH  22  25
ENDBRANCH   1  22
TORSDOF 5
