REMARK  11 active torsions:
REMARK  status: ('A' for Active; 'I' for Inactive)
REMARK    1  A    between atoms: C1_1  and  O2_2 
REMARK    2  A    between atoms: O2_2  and  C3_3 
REMARK    3  A    between atoms: C6_6  and  C9_9 
REMARK    4  A    between atoms: C14_14  and  N19_19 
REMARK    5  A    between atoms: N19_19  and  C20_20 
REMARK    6  A    between atoms: C20_20  and  C21_21 
REMARK    7  A    between atoms: C21_21  and  C22_22 
REMARK    8  A    between atoms: C22_22  and  N23_23 
REMARK       I    between atoms: N23_23  and  C24_24 
REMARK    9  A    between atoms: C24_24  and  C26_26 
REMARK   10  A    between atoms: C26_26  and  C29_29 
REMARK   11  A    between atoms: C29_29  and  N30_30 
ROOT
ATOM      1  C9  1N3 d   1       3.072  28.319   7.249  0.00  0.00     0.140 A 
ATOM      2  N10 1N3 d   1       3.207  29.628   6.787  0.00  0.00    -0.323 N 
ATOM      3  C11 1N3 d   1       2.092  30.233   7.178  0.00  0.00     0.160 A 
ATOM      4  C12 1N3 d   1       1.273  29.182   7.869  0.00  0.00     0.132 A 
ATOM      5  N13 1N3 d   1       1.946  28.075   7.865  0.00  0.00    -0.224 NA
ATOM      6  C14 1N3 d   1       0.040  29.524   8.405  0.00  0.00     0.080 A 
ATOM      7  C15 1N3 d   1      -0.317  30.858   8.209  0.00  0.00     0.057 A 
ATOM      8  C16 1N3 d   1       0.478  31.779   7.562  0.00  0.00     0.024 A 
ATOM      9  N17 1N3 d   1       1.660  31.458   7.061  0.00  0.00    -0.239 NA
ATOM     10 BR1  1N3 d   1      -1.966  31.526   8.845  0.00  0.00    -0.047 Br
ATOM     11  H8  1N3 d   1       3.994  30.034   6.261  0.00  0.00     0.169 HD
ATOM     12  H9  1N3 d   1       0.124  32.798   7.460  0.00  0.00     0.117 H 
ENDROOT
BRANCH   6  13
ATOM     13  N19 1N3 d   1      -0.885  28.700   9.095  0.00  0.00    -0.387 N 
ATOM     14  H10 1N3 d   1      -1.821  29.048   9.347  0.00  0.00     0.159 HD
BRANCH  13  15
ATOM     15  C20 1N3 d   1      -0.468  27.342   9.437  0.00  0.00    -0.006 C 
ATOM     16  H11 1N3 d   1       0.113  26.916   8.606  0.00  0.00     0.064 H 
ATOM     17  H12 1N3 d   1      -1.357  26.720   9.621  0.00  0.00     0.064 H 
BRANCH  15  18
ATOM     18  C21 1N3 d   1       0.393  27.381  10.691  0.00  0.00    -0.036 C 
ATOM     19  H13 1N3 d   1       1.333  27.902  10.457  0.00  0.00     0.037 H 
ATOM     20  H14 1N3 d   1       0.613  26.349  11.000  0.00  0.00     0.037 H 
BRANCH  18  21
ATOM     21  C22 1N3 d   1      -0.286  28.097  11.838  0.00  0.00    -0.003 C 
ATOM     22  H15 1N3 d   1      -0.640  29.079  11.492  0.00  0.00     0.064 H 
ATOM     23  H16 1N3 d   1       0.436  28.234  12.657  0.00  0.00     0.064 H 
BRANCH  21  24
ATOM     24  N23 1N3 d   1      -1.408  27.332  12.319  0.00  0.00    -0.360 N 
ATOM     25  C24 1N3 d   1      -2.701  27.652  11.964  0.00  0.00     0.235 C 
ATOM     26  O25 1N3 d   1      -3.000  28.648  11.308  0.00  0.00    -0.272 OA
ATOM     27  H17 1N3 d   1      -1.245  26.552  12.923  0.00  0.00     0.162 HD
BRANCH  25  28
ATOM     28  C26 1N3 d   1      -3.770  26.709  12.410  0.00  0.00     0.099 A 
ATOM     29  C27 1N3 d   1      -4.835  26.389  11.395  0.00  0.00    -0.083 A 
ATOM     30  C28 1N3 d   1      -5.162  27.276  12.537  0.00  0.00    -0.083 A 
ATOM     31  H18 1N3 d   1      -5.142  25.878  10.484  0.00  0.00     0.079 H 
ATOM     32  H19 1N3 d   1      -5.883  27.890  13.075  0.00  0.00     0.079 H 
BRANCH  28  33
ATOM     33  C29 1N3 d   1      -3.502  25.613  13.401  0.00  0.00     0.101 C 
ATOM     34  H20 1N3 d   1      -2.619  25.054  13.058  0.00  0.00     0.078 H 
ATOM     35  H21 1N3 d   1      -4.376  24.945  13.413  0.00  0.00     0.078 H 
BRANCH  33  36
ATOM     36  N30 1N3 d   1      -3.249  26.059  14.791  0.00  0.00    -0.077 N 
ATOM     37  H22 1N3 d   1      -3.081  25.256  15.376  0.00  0.00     0.274 HD
ATOM     38  H23 1N3 d   1      -4.052  26.562  15.134  0.00  0.00     0.274 HD
ATOM     39  H24 1N3 d   1      -2.442  26.662  14.809  0.00  0.00     0.274 HD
ENDBRANCH  33  36
ENDBRANCH  28  33
ENDBRANCH  25  28
ENDBRANCH  21  24
ENDBRANCH  18  21
ENDBRANCH  15  18
ENDBRANCH  13  15
ENDBRANCH   6  13
BRANCH   1  40
ATOM     40  C6  1N3 d   1       4.153  27.298   7.159  0.00  0.00     0.010 A 
ATOM     41  C5  1N3 d   1       4.182  26.334   8.157  0.00  0.00    -0.067 A 
ATOM     42  C4  1N3 d   1       5.178  25.383   8.194  0.00  0.00    -0.050 A 
ATOM     43  H5  1N3 d   1       3.410  26.329   8.918  0.00  0.00     0.085 H 
ATOM     44  C3  1N3 d   1       6.164  25.407   7.225  0.00  0.00     0.068 A 
ATOM     45  H4  1N3 d   1       5.189  24.627   8.971  0.00  0.00     0.087 H 
ATOM     46  C8  1N3 d   1       6.132  26.369   6.225  0.00  0.00    -0.050 A 
ATOM     47  C7  1N3 d   1       5.135  27.324   6.187  0.00  0.00    -0.067 A 
ATOM     48  H7  1N3 d   1       6.902  26.371   5.462  0.00  0.00     0.087 H 
ATOM     49  H6  1N3 d   1       5.123  28.079   5.410  0.00  0.00     0.085 H 
BRANCH  44  50
ATOM     50  O2  1N3 d   1       7.210  24.470   7.218  0.00  0.00    -0.356 OA
BRANCH  50  51
ATOM     51  C1  1N3 d   1       6.965  23.370   8.118  0.00  0.00     0.010 C 
ATOM     52  H1  1N3 d   1       7.810  22.667   8.076  0.00  0.00     0.066 H 
ATOM     53  H2  1N3 d   1       6.041  22.852   7.821  0.00  0.00     0.066 H 
ATOM     54  H3  1N3 d   1       6.857  23.753   9.144  0.00  0.00     0.066 H 
ENDBRANCH  50  51
ENDBRANCH  44  50
ENDBRANCH   1  40
TORSDOF 11
