REMARK  11 active torsions:
REMARK  status: ('A' for Active; 'I' for Inactive)
REMARK    1  A    between atoms: O3B_8  and  PG_1 
REMARK    2  A    between atoms: PB_5  and  O3B_8 
REMARK    3  A    between atoms: O3A_12  and  PB_5 
REMARK    4  A    between atoms: PA_9  and  O3A_12 
REMARK    5  A    between atoms: PA_9  and  O5'_13 
REMARK    6  A    between atoms: O5'_13  and  C5'_14 
REMARK    7  A    between atoms: C5'_14  and  C4'_15 
REMARK    8  A    between atoms: C3'_17  and  O3'_18 
REMARK    9  A    between atoms: C2'_19  and  O2'_20 
REMARK   10  A    between atoms: C1'_21  and  N9_22 
REMARK   11  A    between atoms: C6_26  and  N6_27 
ROOT
ATOM      1  C4' ATP d   1       5.805 -22.431  14.901  0.00  0.00     0.089 C 
ATOM      2  O4' ATP d   1       4.629 -21.691  14.507  0.00  0.00    -0.353 OA
ATOM      3  C3' ATP d   1       6.136 -23.216  13.701  0.00  0.00     0.091 C 
ATOM      4  C2' ATP d   1       4.809 -23.572  13.170  0.00  0.00     0.105 C 
ATOM      5  C1' ATP d   1       4.051 -22.319  13.386  0.00  0.00     0.139 C 
ATOM      6  H3  ATP d   1       5.603 -23.092  15.757  0.00  0.00     0.090 H 
ATOM      7  H4  ATP d   1       6.681 -22.596  12.974  0.00  0.00     0.091 H 
ATOM      8  H6  ATP d   1       4.848 -23.871  12.112  0.00  0.00     0.093 H 
ATOM      9  H8  ATP d   1       2.997 -22.556  13.591  0.00  0.00     0.122 H 
ENDROOT
BRANCH   1  10
ATOM     10  C5' ATP d   1       6.850 -21.470  15.249  0.00  0.00     0.058 C 
ATOM     11  H1  ATP d   1       6.594 -21.044  16.230  0.00  0.00     0.079 H 
ATOM     12  H2  ATP d   1       7.797 -22.024  15.325  0.00  0.00     0.079 H 
BRANCH  10  13
ATOM     13  O5' ATP d   1       7.055 -20.412  14.376  0.00  0.00    -0.287 OA
BRANCH  13  14
ATOM     14  PA  ATP d   1       8.540 -20.113  13.834  0.00  0.00     0.417 P 
ATOM     15  O1A ATP d   1       8.422 -19.065  12.767  0.00  0.00    -0.624 OA
ATOM     16  O2A ATP d   1       9.226 -21.394  13.355  0.00  0.00    -0.624 OA
BRANCH  14  17
ATOM     17  O3A ATP d   1       9.282 -19.556  15.079  0.00  0.00    -0.180 OA
BRANCH  17  18
ATOM     18  PB  ATP d   1       9.796 -18.103  15.468  0.00  0.00     0.428 P 
ATOM     19  O1B ATP d   1      10.559 -17.484  14.257  0.00  0.00    -0.624 OA
ATOM     20  O2B ATP d   1      10.670 -18.309  16.723  0.00  0.00    -0.624 OA
BRANCH  18  21
ATOM     21  O3B ATP d   1       8.468 -17.289  15.811  0.00  0.00    -0.173 OA
BRANCH  21  22
ATOM     22  PG  ATP d   1       8.535 -15.794  16.241  0.00  0.00     0.431 P 
ATOM     23  O1G ATP d   1       9.387 -15.645  17.452  0.00  0.00    -0.616 OA
ATOM     24  O2G ATP d   1       7.121 -15.471  16.716  0.00  0.00    -0.616 OA
ATOM     25  O3G ATP d   1       8.943 -14.908  15.115  0.00  0.00    -0.616 OA
ENDBRANCH  21  22
ENDBRANCH  18  21
ENDBRANCH  17  18
ENDBRANCH  14  17
ENDBRANCH  13  14
ENDBRANCH  10  13
ENDBRANCH   1  10
BRANCH   3  26
ATOM     26  O3' ATP d   1       6.913 -24.312  14.006  0.00  0.00    -0.390 OA
ATOM     27  H5  ATP d   1       7.106 -24.793  13.210  0.00  0.00     0.210 HD
ENDBRANCH   3  26
BRANCH   5  28
ATOM     28  N9  ATP d   1       4.121 -21.438  12.222  0.00  0.00    -0.294 N 
ATOM     29  C8  ATP d   1       4.945 -20.385  12.069  0.00  0.00     0.071 A 
ATOM     30  N7  ATP d   1       4.695 -19.841  10.852  0.00  0.00    -0.236 NA
ATOM     31  H9  ATP d   1       5.680 -20.033  12.792  0.00  0.00     0.144 H 
ATOM     32  C5  ATP d   1       3.720 -20.548  10.244  0.00  0.00     0.149 A 
ATOM     33  C6  ATP d   1       3.070 -20.441   9.010  0.00  0.00     0.155 A 
ATOM     34  C4  ATP d   1       3.347 -21.574  11.116  0.00  0.00     0.167 A 
ATOM     35  N1  ATP d   1       2.115 -21.338   8.709  0.00  0.00    -0.222 NA
ATOM     36  C2  ATP d   1       1.781 -22.318   9.566  0.00  0.00     0.091 A 
ATOM     37  N3  ATP d   1       2.384 -22.439  10.752  0.00  0.00    -0.222 NA
ATOM     38  H12 ATP d   1       1.007 -23.024   9.289  0.00  0.00     0.146 H 
BRANCH  33  39
ATOM     39  N6  ATP d   1       3.427 -19.358   8.034  0.00  0.00    -0.382 N 
ATOM     40  H10 ATP d   1       2.936 -19.297   7.130  0.00  0.00     0.157 HD
ATOM     41  H11 ATP d   1       4.163 -18.676   8.268  0.00  0.00     0.157 HD
ENDBRANCH  33  39
ENDBRANCH   5  28
BRANCH   4  42
ATOM     42  O2' ATP d   1       4.239 -24.551  13.939  0.00  0.00    -0.388 OA
ATOM     43  H7  ATP d   1       3.385 -24.772  13.587  0.00  0.00     0.210 HD
ENDBRANCH   4  42
TORSDOF 11
