REMARK  11 active torsions:
REMARK  status: ('A' for Active; 'I' for Inactive)
REMARK    1  A    between atoms: O3B_8  and  PG_1 
REMARK    2  A    between atoms: PB_5  and  O3B_8 
REMARK    3  A    between atoms: O3A_12  and  PB_5 
REMARK    4  A    between atoms: PA_9  and  O3A_12 
REMARK    5  A    between atoms: PA_9  and  O5'_13 
REMARK    6  A    between atoms: O5'_13  and  C5'_14 
REMARK    7  A    between atoms: C5'_14  and  C4'_15 
REMARK    8  A    between atoms: C3'_17  and  O3'_18 
REMARK    9  A    between atoms: C2'_19  and  O2'_20 
REMARK   10  A    between atoms: C1'_21  and  N9_22 
REMARK   11  A    between atoms: C6_26  and  N6_27 
ROOT
ATOM      1  C4' ATP d   1      16.118  66.831  14.961  0.00  0.00     0.089 C 
ATOM      2  O4' ATP d   1      17.300  66.100  14.546  0.00  0.00    -0.353 OA
ATOM      3  C3' ATP d   1      15.772  67.584  13.750  0.00  0.00     0.091 C 
ATOM      4  C2' ATP d   1      17.092  67.961  13.204  0.00  0.00     0.105 C 
ATOM      5  C1' ATP d   1      17.868  66.732  13.410  0.00  0.00     0.139 C 
ATOM      6  H3  ATP d   1      16.315  67.507  15.806  0.00  0.00     0.090 H 
ATOM      7  H4  ATP d   1      15.225  66.948  13.039  0.00  0.00     0.091 H 
ATOM      8  H6  ATP d   1      17.037  68.265  12.148  0.00  0.00     0.093 H 
ATOM      9  H8  ATP d   1      18.921  66.984  13.606  0.00  0.00     0.122 H 
ENDROOT
BRANCH   1  10
ATOM     10  C5' ATP d   1      15.109  65.830  15.333  0.00  0.00     0.058 C 
ATOM     11  H1  ATP d   1      15.425  65.374  16.283  0.00  0.00     0.079 H 
ATOM     12  H2  ATP d   1      14.155  66.357  15.479  0.00  0.00     0.079 H 
BRANCH  10  13
ATOM     13  O5' ATP d   1      14.888  64.800  14.423  0.00  0.00    -0.287 OA
BRANCH  13  14
ATOM     14  PA  ATP d   1      13.403  64.479  13.865  0.00  0.00     0.417 P 
ATOM     15  O1A ATP d   1      13.542  63.408  12.810  0.00  0.00    -0.624 OA
ATOM     16  O2A ATP d   1      12.734  65.745  13.372  0.00  0.00    -0.624 OA
BRANCH  14  17
ATOM     17  O3A ATP d   1      12.638  63.966  15.114  0.00  0.00    -0.180 OA
BRANCH  17  18
ATOM     18  PB  ATP d   1      12.106  62.521  15.512  0.00  0.00     0.428 P 
ATOM     19  O1B ATP d   1      11.413  61.861  14.283  0.00  0.00    -0.624 OA
ATOM     20  O2B ATP d   1      11.224  62.697  16.781  0.00  0.00    -0.624 OA
BRANCH  18  21
ATOM     21  O3B ATP d   1      13.421  61.713  15.894  0.00  0.00    -0.173 OA
BRANCH  21  22
ATOM     22  PG  ATP d   1      13.367  60.220  16.288  0.00  0.00     0.431 P 
ATOM     23  O1G ATP d   1      12.495  60.039  17.488  0.00  0.00    -0.616 OA
ATOM     24  O2G ATP d   1      14.786  59.898  16.768  0.00  0.00    -0.616 OA
ATOM     25  O3G ATP d   1      13.025  59.373  15.119  0.00  0.00    -0.616 OA
ENDBRANCH  21  22
ENDBRANCH  18  21
ENDBRANCH  17  18
ENDBRANCH  14  17
ENDBRANCH  13  14
ENDBRANCH  10  13
ENDBRANCH   1  10
BRANCH   3  26
ATOM     26  O3' ATP d   1      15.007  68.686  14.045  0.00  0.00    -0.390 OA
ATOM     27  H5  ATP d   1      14.800  69.151  13.243  0.00  0.00     0.210 HD
ENDBRANCH   3  26
BRANCH   5  28
ATOM     28  N9  ATP d   1      17.801  65.857  12.252  0.00  0.00    -0.294 N 
ATOM     29  C8  ATP d   1      16.990  64.786  12.116  0.00  0.00     0.071 A 
ATOM     30  N7  ATP d   1      17.249  64.250  10.901  0.00  0.00    -0.236 NA
ATOM     31  H9  ATP d   1      16.266  64.423  12.845  0.00  0.00     0.144 H 
ATOM     32  C5  ATP d   1      18.211  64.990  10.287  0.00  0.00     0.149 A 
ATOM     33  C6  ATP d   1      18.867  64.917   9.055  0.00  0.00     0.155 A 
ATOM     34  C4  ATP d   1      18.572  66.019  11.153  0.00  0.00     0.167 A 
ATOM     35  N1  ATP d   1      19.807  65.835   8.760  0.00  0.00    -0.222 NA
ATOM     36  C2  ATP d   1      20.124  66.814   9.620  0.00  0.00     0.091 A 
ATOM     37  N3  ATP d   1      19.519  66.913  10.808  0.00  0.00    -0.222 NA
ATOM     38  H12 ATP d   1      20.884  67.537   9.347  0.00  0.00     0.146 H 
BRANCH  33  39
ATOM     39  N6  ATP d   1      18.526  63.838   8.082  0.00  0.00    -0.382 N 
ATOM     40  H10 ATP d   1      19.013  63.789   7.176  0.00  0.00     0.157 HD
ATOM     41  H11 ATP d   1      17.804  63.142   8.317  0.00  0.00     0.157 HD
ENDBRANCH  33  39
ENDBRANCH   5  28
BRANCH   4  42
ATOM     42  O2' ATP d   1      17.672  68.934  13.972  0.00  0.00    -0.388 OA
ATOM     43  H7  ATP d   1      18.518  69.163  13.606  0.00  0.00     0.210 HD
ENDBRANCH   4  42
TORSDOF 11
