REMARK  6 active torsions:
REMARK  status: ('A' for Active; 'I' for Inactive)
REMARK    1  A    between atoms: N3_3  and  C7_7 
REMARK    2  A    between atoms: C7_7  and  C8_8 
REMARK    3  A    between atoms: C13_13  and  O14_14 
REMARK    4  A    between atoms: O14_14  and  C15_15 
REMARK    5  A    between atoms: C17_17  and  C20_20 
REMARK    6  A    between atoms: C20_20  and  C21_21 
ROOT
ATOM      1  C8  596 d   1      17.805 -34.455  -0.426  0.00  0.00     0.038 A 
ATOM      2  C9  596 d   1      17.531 -34.696   0.924  0.00  0.00     0.101 A 
ATOM      3  C10 596 d   1      16.562 -33.971   1.614  0.00  0.00     0.051 A 
ATOM      4  C11 596 d   1      15.839 -32.965   1.015  0.00  0.00    -0.064 A 
ATOM      5  C12 596 d   1      16.099 -32.719  -0.326  0.00  0.00    -0.049 A 
ATOM      6  C13 596 d   1      17.065 -33.434  -1.044  0.00  0.00     0.079 A 
ATOM      7  O16 596 d   1      18.165 -35.683   1.720  0.00  0.00    -0.305 OA
ATOM      8  C17 596 d   1      17.641 -35.616   2.977  0.00  0.00     0.129 A 
ATOM      9  C18 596 d   1      16.624 -34.560   2.975  0.00  0.00     0.218 A 
ATOM     10  O19 596 d   1      15.932 -34.248   4.022  0.00  0.00    -0.284 OA
ATOM     11  H   596 d   1      15.097 -32.389   1.568  0.00  0.00     0.085 H 
ATOM     12  H   596 d   1      15.531 -31.942  -0.838  0.00  0.00     0.087 H 
ENDROOT
BRANCH   1  13
ATOM     13  C7  596 d   1      18.853 -35.284  -1.181  0.00  0.00     0.142 C 
ATOM     14  H   596 d   1      19.343 -34.623  -1.896  0.00  0.00     0.087 H 
ATOM     15  H   596 d   1      19.537 -35.702  -0.443  0.00  0.00     0.087 H 
BRANCH  13  16
ATOM     16  N3  596 d   1      18.265 -36.421  -1.946  0.00  0.00     0.096 N 
ATOM     17  C2  596 d   1      17.412 -35.952  -3.051  0.00  0.00     0.136 C 
ATOM     18  C1  596 d   1      16.862 -37.129  -3.879  0.00  0.00     0.106 C 
ATOM     19  H   596 d   1      16.570 -35.404  -2.628  0.00  0.00     0.082 H 
ATOM     20  H   596 d   1      18.012 -35.320  -3.706  0.00  0.00     0.082 H 
ATOM     21  N6  596 d   1      16.299 -38.178  -3.022  0.00  0.00    -0.072 N 
ATOM     22  H   596 d   1      17.683 -37.558  -4.454  0.00  0.00     0.078 H 
ATOM     23  H   596 d   1      16.070 -36.753  -4.527  0.00  0.00     0.078 H 
ATOM     24  C5  596 d   1      17.080 -38.571  -1.867  0.00  0.00     0.106 C 
ATOM     25  H   596 d   1      16.230 -39.010  -3.608  0.00  0.00     0.277 HD
ATOM     26  H   596 d   1      15.427 -37.799  -2.653  0.00  0.00     0.277 HD
ATOM     27  C4  596 d   1      17.519 -37.342  -1.076  0.00  0.00     0.136 C 
ATOM     28  H   596 d   1      16.469 -39.206  -1.225  0.00  0.00     0.078 H 
ATOM     29  H   596 d   1      17.965 -39.110  -2.205  0.00  0.00     0.078 H 
ATOM     30  H   596 d   1      16.637 -36.832  -0.688  0.00  0.00     0.082 H 
ATOM     31  H   596 d   1      18.162 -37.657  -0.254  0.00  0.00     0.082 H 
ENDBRANCH  13  16
ENDBRANCH   1  13
BRANCH   6  32
ATOM     32  O14 596 d   1      17.279 -33.132  -2.370  0.00  0.00    -0.355 OA
BRANCH  32  33
ATOM     33  C15 596 d   1      16.454 -32.214  -3.125  0.00  0.00     0.010 C 
ATOM     34  H   596 d   1      15.426 -32.577  -3.137  0.00  0.00     0.066 H 
ATOM     35  H   596 d   1      16.488 -31.229  -2.659  0.00  0.00     0.066 H 
ATOM     36  H   596 d   1      16.829 -32.147  -4.146  0.00  0.00     0.066 H 
ENDBRANCH  32  33
ENDBRANCH   6  32
BRANCH   8  37
ATOM     37  C20 596 d   1      18.043 -36.471   4.109  0.00  0.00    -0.018 C 
ATOM     38  H   596 d   1      17.517 -36.270   5.042  0.00  0.00     0.091 H 
BRANCH  37  39
ATOM     39  C21 596 d   1      19.046 -37.559   4.184  0.00  0.00     0.065 A 
ATOM     40  N22 596 d   1      19.309 -38.103   5.385  0.00  0.00    -0.277 N 
ATOM     41  N23 596 d   1      20.262 -39.099   5.143  0.00  0.00    -0.174 NA
ATOM     42  H   596 d   1      18.900 -37.844   6.283  0.00  0.00     0.189 HD
ATOM     43  C24 596 d   1      20.590 -39.147   3.831  0.00  0.00     0.089 A 
ATOM     44  C25 596 d   1      19.862 -38.192   3.139  0.00  0.00     0.022 A 
ATOM     45  C29 596 d   1      21.473 -39.962   3.133  0.00  0.00    -0.053 A 
ATOM     46  C26 596 d   1      19.961 -38.020   1.766  0.00  0.00    -0.069 A 
ATOM     47  C27 596 d   1      20.844 -38.833   1.072  0.00  0.00    -0.082 A 
ATOM     48  H   596 d   1      19.363 -37.269   1.249  0.00  0.00     0.085 H 
ATOM     49  C28 596 d   1      21.594 -39.800   1.752  0.00  0.00    -0.081 A 
ATOM     50  H   596 d   1      20.955 -38.719  -0.006  0.00  0.00     0.083 H 
ATOM     51  H   596 d   1      22.282 -40.435   1.195  0.00  0.00     0.083 H 
ATOM     52  H   596 d   1      22.062 -40.716   3.656  0.00  0.00     0.087 H 
ENDBRANCH  37  39
ENDBRANCH   8  37
TORSDOF 6
