REMARK  5 active torsions:
REMARK  status: ('A' for Active; 'I' for Inactive)
REMARK    1  A    between atoms: N4_4  and  C8_8 
REMARK    2  A    between atoms: C8_8  and  C9_9 
REMARK    3  A    between atoms: C14_14  and  O29_29 
REMARK    4  A    between atoms: C16_16  and  C18_18 
REMARK    5  A    between atoms: C18_18  and  C19_19 
ROOT
ATOM      1  C9  Q18 d   1      21.167  32.310  -1.498  0.00  0.00     0.027 A 
ATOM      2  C10 Q18 d   1      21.449  32.386  -0.124  0.00  0.00     0.094 A 
ATOM      3  C11 Q18 d   1      21.281  31.265   0.667  0.00  0.00     0.047 A 
ATOM      4  C12 Q18 d   1      20.836  30.035   0.245  0.00  0.00    -0.064 A 
ATOM      5  C13 Q18 d   1      20.558  29.886  -1.115  0.00  0.00    -0.049 A 
ATOM      6  C14 Q18 d   1      20.682  30.975  -1.996  0.00  0.00     0.076 A 
ATOM      7  O15 Q18 d   1      21.906  33.553   0.594  0.00  0.00    -0.336 OA
ATOM      8  C16 Q18 d   1      22.053  33.176   1.899  0.00  0.00     0.111 A 
ATOM      9  C17 Q18 d   1      21.655  31.739   1.987  0.00  0.00     0.191 A 
ATOM     10  O28 Q18 d   1      21.617  30.982   3.022  0.00  0.00    -0.289 OA
ATOM     11  H   Q18 d   1      20.705  29.209   0.944  0.00  0.00     0.085 H 
ATOM     12  H   Q18 d   1      20.242  28.916  -1.498  0.00  0.00     0.087 H 
ATOM     13  H   Q18 d   1      22.494  33.592   2.805  0.00  0.00     0.097 H 
ENDROOT
BRANCH   1  14
ATOM     14  C8  Q18 d   1      21.352  33.511  -2.458  0.00  0.00     0.019 C 
ATOM     15  H   Q18 d   1      20.564  33.405  -3.203  0.00  0.00     0.071 H 
ATOM     16  H   Q18 d   1      21.345  34.392  -1.817  0.00  0.00     0.071 H 
BRANCH  14  17
ATOM     17  N4  Q18 d   1      22.630  33.608  -3.247  0.00  0.00    -0.408 N 
ATOM     18  C3  Q18 d   1      22.889  34.827  -4.058  0.00  0.00    -0.009 C 
ATOM     19  C2  Q18 d   1      23.003  34.377  -5.536  0.00  0.00    -0.051 C 
ATOM     20  H   Q18 d   1      22.080  35.548  -3.937  0.00  0.00     0.063 H 
ATOM     21  H   Q18 d   1      23.807  35.316  -3.733  0.00  0.00     0.063 H 
ATOM     22  C1  Q18 d   1      24.117  33.325  -5.764  0.00  0.00    -0.064 C 
ATOM     23  H   Q18 d   1      22.054  33.922  -5.819  0.00  0.00     0.035 H 
ATOM     24  H   Q18 d   1      23.249  35.255  -6.133  0.00  0.00     0.035 H 
ATOM     25  C7  Q18 d   1      23.765  31.850  -5.451  0.00  0.00    -0.064 C 
ATOM     26  H   Q18 d   1      24.922  33.591  -5.079  0.00  0.00     0.033 H 
ATOM     27  H   Q18 d   1      24.343  33.357  -6.830  0.00  0.00     0.033 H 
ATOM     28  C6  Q18 d   1      23.642  31.506  -3.955  0.00  0.00    -0.051 C 
ATOM     29  H   Q18 d   1      24.581  31.244  -5.845  0.00  0.00     0.033 H 
ATOM     30  H   Q18 d   1      22.788  31.661  -5.896  0.00  0.00     0.033 H 
ATOM     31  C5  Q18 d   1      23.789  32.721  -3.012  0.00  0.00    -0.009 C 
ATOM     32  H   Q18 d   1      22.643  31.097  -3.800  0.00  0.00     0.035 H 
ATOM     33  H   Q18 d   1      24.450  30.814  -3.716  0.00  0.00     0.035 H 
ATOM     34  H   Q18 d   1      23.816  32.396  -1.972  0.00  0.00     0.063 H 
ATOM     35  H   Q18 d   1      24.721  33.249  -3.213  0.00  0.00     0.063 H 
ENDBRANCH  14  17
ENDBRANCH   1  14
BRANCH   6  36
ATOM     36  O29 Q18 d   1      20.366  30.787  -3.316  0.00  0.00    -0.360 OA
ATOM     37  H   Q18 d   1      20.497  31.608  -3.795  0.00  0.00     0.217 HD
ENDBRANCH   6  36
BRANCH   8  38
ATOM     38  C18 Q18 d   1      22.495  34.092   2.998  0.00  0.00    -0.007 C 
ATOM     39  H   Q18 d   1      23.426  33.609   3.295  0.00  0.00     0.044 H 
ATOM     40  H   Q18 d   1      21.562  34.202   3.550  0.00  0.00     0.044 H 
BRANCH  38  41
ATOM     41  C19 Q18 d   1      22.936  35.507   2.931  0.00  0.00    -0.027 A 
ATOM     42  C20 Q18 d   1      23.018  36.311   1.737  0.00  0.00    -0.002 A 
ATOM     43  C21 Q18 d   1      23.548  37.511   2.211  0.00  0.00     0.042 A 
ATOM     44  C24 Q18 d   1      22.692  36.037   0.411  0.00  0.00    -0.070 A 
ATOM     45  N22 Q18 d   1      23.785  37.449   3.565  0.00  0.00    -0.365 N 
ATOM     46  C27 Q18 d   1      23.760  38.526   1.296  0.00  0.00    -0.056 A 
ATOM     47  C23 Q18 d   1      23.425  36.217   4.021  0.00  0.00    -0.015 A 
ATOM     48  H   Q18 d   1      24.168  38.203   4.135  0.00  0.00     0.165 HD
ATOM     49  H   Q18 d   1      23.505  35.856   5.046  0.00  0.00     0.112 H 
ATOM     50  C26 Q18 d   1      23.454  38.304  -0.050  0.00  0.00    -0.081 A 
ATOM     51  H   Q18 d   1      24.160  39.487   1.620  0.00  0.00     0.086 H 
ATOM     52  C25 Q18 d   1      22.940  37.065  -0.494  0.00  0.00    -0.082 A 
ATOM     53  H   Q18 d   1      23.615  39.104  -0.772  0.00  0.00     0.083 H 
ATOM     54  H   Q18 d   1      22.736  36.913  -1.554  0.00  0.00     0.083 H 
ATOM     55  H   Q18 d   1      22.270  35.080   0.102  0.00  0.00     0.084 H 
ENDBRANCH  38  41
ENDBRANCH   8  38
TORSDOF 5
