REMARK  5 active torsions:
REMARK  status: ('A' for Active; 'I' for Inactive)
REMARK    1  A    between atoms: C06_1  and  C11_2 
REMARK    2  A    between atoms: C09_5  and  N01_8 
REMARK    3  A    between atoms: N01_8  and  C12_9 
REMARK    4  A    between atoms: C13_13  and  N04_15 
REMARK    5  A    between atoms: N04_15  and  C16_16 
ROOT
ATOM      1  C12 0BX d   1      77.573  67.979  63.998  0.00  0.00     0.728 A 
ATOM      2  N03 0BX d   1      77.940  69.265  63.998  0.00  0.00    -0.075 NA
ATOM      3  C15 0BX d   1      78.936  69.705  63.209  0.00  0.00     0.025 A 
ATOM      4  C14 0BX d   1      79.571  68.784  62.373  0.00  0.00    -0.021 A 
ATOM      5  C13 0BX d   1      79.171  67.445  62.391  0.00  0.00     0.148 A 
ATOM      6  N02 0BX d   1      78.177  67.082  63.218  0.00  0.00    -0.045 NA
ATOM      7  H6  0BX d   1      79.238  70.746  63.221  0.00  0.00     0.115 H 
ATOM      8  H7  0BX d   1      80.369  69.106  61.714  0.00  0.00     0.091 H 
ENDROOT
BRANCH   1   9
ATOM      9  N01 0BX d   1      76.507  67.564  64.852  0.00  0.00    -0.188 N 
ATOM     10  H5  0BX d   1      76.174  68.241  65.553  0.00  0.00     0.184 HD
BRANCH   9  11
ATOM     11  C09 0BX d   1      75.862  66.287  64.817  0.00  0.00     0.049 A 
ATOM     12  C10 0BX d   1      75.049  66.009  65.901  0.00  0.00    -0.056 A 
ATOM     13  C05 0BX d   1      74.382  64.804  65.965  0.00  0.00    -0.064 A 
ATOM     14  H2  0BX d   1      74.937  66.736  66.697  0.00  0.00     0.087 H 
ATOM     15  C06 0BX d   1      74.506  63.868  64.958  0.00  0.00     0.041 A 
ATOM     16  H1  0BX d   1      73.751  64.588  66.819  0.00  0.00     0.085 H 
ATOM     17  C07 0BX d   1      75.316  64.132  63.853  0.00  0.00    -0.064 A 
ATOM     18  C08 0BX d   1      76.000  65.352  63.786  0.00  0.00    -0.056 A 
ATOM     19  H4  0BX d   1      75.414  63.403  63.057  0.00  0.00     0.085 H 
ATOM     20  H3  0BX d   1      76.636  65.572  62.936  0.00  0.00     0.087 H 
BRANCH  15  21
ATOM     21  C11 0BX d   1      73.744  62.595  65.123  0.00  0.00     0.209 C 
ATOM     22  O22 0BX d   1      72.778  62.565  65.945  0.00  0.00    -0.644 OA
ATOM     23  O23 0BX d   1      74.054  61.560  64.471  0.00  0.00    -0.644 OA
ENDBRANCH  15  21
ENDBRANCH   9  11
ENDBRANCH   1   9
BRANCH   5  24
ATOM     24  N04 0BX d   1      79.756  66.434  61.558  0.00  0.00    -0.340 N 
ATOM     25  H8  0BX d   1      79.306  65.507  61.553  0.00  0.00     0.167 HD
BRANCH  24  26
ATOM     26  C16 0BX d   1      80.913  66.608  60.734  0.00  0.00     0.033 A 
ATOM     27  C17 0BX d   1      82.075  67.163  61.255  0.00  0.00    -0.057 A 
ATOM     28  C18 0BX d   1      83.211  67.328  60.471  0.00  0.00    -0.081 A 
ATOM     29  H9  0BX d   1      82.096  67.474  62.293  0.00  0.00     0.086 H 
ATOM     30  C19 0BX d   1      83.199  66.907  59.146  0.00  0.00    -0.083 A 
ATOM     31  H10 0BX d   1      84.101  67.782  60.890  0.00  0.00     0.083 H 
ATOM     32  C20 0BX d   1      82.038  66.331  58.637  0.00  0.00    -0.081 A 
ATOM     33  H11 0BX d   1      84.077  67.025  58.521  0.00  0.00     0.083 H 
ATOM     34  C21 0BX d   1      80.893  66.178  59.414  0.00  0.00    -0.057 A 
ATOM     35  H12 0BX d   1      82.025  65.992  57.607  0.00  0.00     0.083 H 
ATOM     36  H13 0BX d   1      79.999  65.730  58.995  0.00  0.00     0.086 H 
ENDBRANCH  24  26
ENDBRANCH   5  24
TORSDOF 5
