REMARK  5 active torsions:
REMARK  status: ('A' for Active; 'I' for Inactive)
REMARK    1  A    between atoms: C09_9  and  N01_1 
REMARK    2  A    between atoms: N01_1  and  C12_12 
REMARK    3  A    between atoms: C13_13  and  N04_4 
REMARK    4  A    between atoms: N04_4  and  C16_16 
REMARK    5  A    between atoms: C06_6  and  C11_11 
ROOT
ATOM      1  N02 0BY d   1     -11.760   9.268  13.206  0.00  0.00    -0.045 NA
ATOM      2  N03 0BY d   1     -11.372  10.030  15.375  0.00  0.00    -0.075 NA
ATOM      3  C12 0BY d   1     -11.059   9.994  14.080  0.00  0.00     0.728 A 
ATOM      4  C13 0BY d   1     -12.824   8.536  13.605  0.00  0.00     0.148 A 
ATOM      5  C14 0BY d   1     -13.159   8.565  14.954  0.00  0.00    -0.021 A 
ATOM      6  C15 0BY d   1     -12.412   9.329  15.850  0.00  0.00     0.025 A 
ATOM      7  H7  0BY d   1     -14.006   7.990  15.311  0.00  0.00     0.091 H 
ATOM      8  H8  0BY d   1     -12.665   9.356  16.904  0.00  0.00     0.115 H 
ENDROOT
BRANCH   3   9
ATOM      9  N01 0BY d   1      -9.936  10.771  13.652  0.00  0.00    -0.188 N 
ATOM     10  H1  0BY d   1      -9.498  11.399  14.341  0.00  0.00     0.184 HD
BRANCH   9  11
ATOM     11  C09 0BY d   1      -9.376  10.737  12.331  0.00  0.00     0.049 A 
ATOM     12  C08 0BY d   1      -8.547  11.798  11.999  0.00  0.00    -0.056 A 
ATOM     13  C07 0BY d   1      -7.944  11.865  10.760  0.00  0.00    -0.064 A 
ATOM     14  H5  0BY d   1      -8.370  12.585  12.723  0.00  0.00     0.087 H 
ATOM     15  C06 0BY d   1      -8.156  10.868   9.827  0.00  0.00     0.041 A 
ATOM     16  H4  0BY d   1      -7.301  12.703  10.517  0.00  0.00     0.085 H 
ATOM     17  C05 0BY d   1      -8.977   9.775  10.146  0.00  0.00    -0.064 A 
ATOM     18  C10 0BY d   1      -9.601   9.714  11.398  0.00  0.00    -0.056 A 
ATOM     19  H3  0BY d   1      -9.128   8.980   9.425  0.00  0.00     0.085 H 
ATOM     20  H6  0BY d   1     -10.252   8.883  11.644  0.00  0.00     0.087 H 
BRANCH  15  21
ATOM     21  C11 0BY d   1      -7.460  11.016   8.509  0.00  0.00     0.209 C 
ATOM     22  O25 0BY d   1      -7.794  10.295   7.532  0.00  0.00    -0.644 OA
ATOM     23  O26 0BY d   1      -6.521  11.858   8.385  0.00  0.00    -0.644 OA
ENDBRANCH  15  21
ENDBRANCH   9  11
ENDBRANCH   3   9
BRANCH   4  24
ATOM     24  N04 0BY d   1     -13.576   7.759  12.668  0.00  0.00    -0.339 N 
ATOM     25  H2  0BY d   1     -13.252   7.707  11.692  0.00  0.00     0.167 HD
BRANCH  24  26
ATOM     26  C16 0BY d   1     -14.772   7.046  13.043  0.00  0.00     0.055 A 
ATOM     27  C17 0BY d   1     -15.836   7.711  13.649  0.00  0.00    -0.056 A 
ATOM     28  C18 0BY d   1     -16.974   6.998  13.989  0.00  0.00    -0.081 A 
ATOM     29  H9  0BY d   1     -15.774   8.774  13.852  0.00  0.00     0.087 H 
ATOM     30  C19 0BY d   1     -17.082   5.638  13.713  0.00  0.00    -0.081 A 
ATOM     31  H10 0BY d   1     -17.795   7.508  14.479  0.00  0.00     0.083 H 
ATOM     32  C20 0BY d   1     -16.034   4.975  13.098  0.00  0.00    -0.060 A 
ATOM     33  H11 0BY d   1     -17.984   5.099  13.979  0.00  0.00     0.083 H 
ATOM     34  C21 0BY d   1     -14.886   5.685  12.767  0.00  0.00     0.060 A 
ATOM     35  H12 0BY d   1     -16.108   3.916  12.877  0.00  0.00     0.086 H 
ATOM     36 CL2  0BY d   1     -13.580   4.866  12.000  0.00  0.00    -0.082 Cl
ENDBRANCH  24  26
ENDBRANCH   4  24
TORSDOF 5
