REMARK WARNING: 32 MAX_TORS EXCEEDED!!!
REMARK  39 active torsions:
REMARK  status: ('A' for Active; 'I' for Inactive)
REMARK    1  A    between atoms: N_1  and  CA_2 
REMARK    2  A    between atoms: CA_2  and  C_3 
REMARK    3  A    between atoms: CA_2  and  CB_5 
REMARK       I    between atoms: C_3  and  N_9 
REMARK    4  A    between atoms: CB_5  and  CG_6 
REMARK    5  A    between atoms: CG_6  and  SD_7 
REMARK    6  A    between atoms: SD_7  and  CE_8 
REMARK    7  A    between atoms: N_9  and  CA_10 
REMARK    8  A    between atoms: CA_10  and  C_11 
REMARK    9  A    between atoms: CA_10  and  CB_13 
REMARK       I    between atoms: C_11  and  N_18 
REMARK   10  A    between atoms: CB_13  and  CG_14 
REMARK   11  A    between atoms: CG_14  and  CD_15 
REMARK   12  A    between atoms: N_18  and  CA_19 
REMARK   13  A    between atoms: CA_19  and  C_20 
REMARK   14  A    between atoms: CA_19  and  CB_22 
REMARK       I    between atoms: C_20  and  N_26 
REMARK   15  A    between atoms: CB_22  and  CG_23 
REMARK   16  A    between atoms: N_26  and  CA_27 
REMARK   17  A    between atoms: CA_27  and  CB_28 
REMARK   18  A    between atoms: CA_27  and  C_35 
REMARK   19  A    between atoms: CB_28  and  CG2_29 
REMARK   20  A    between atoms: CB_28  and  OG1_30 
REMARK   21  A    between atoms: OG1_30  and  P_31 
REMARK       I    between atoms: C_35  and  N_37 
REMARK   22  A    between atoms: N_37  and  CA_38 
REMARK   23  A    between atoms: CA_38  and  C_39 
REMARK   24  A    between atoms: CA_38  and  CB_41 
REMARK       I    between atoms: C_39  and  N_46 
REMARK   25  A    between atoms: CB_41  and  CG_42 
REMARK   26  A    between atoms: CG_42  and  CD_43 
REMARK       I    between atoms: CD_43  and  NE2_45 
REMARK   27  A    between atoms: N_46  and  CA_47 
REMARK   28  A    between atoms: CA_47  and  C_48 
REMARK   29  A    between atoms: CA_47  and  CB_50 
REMARK       I    between atoms: C_48  and  N_51 
REMARK   30  A    between atoms: N_51  and  CA_52 
REMARK   31  A    between atoms: CA_52  and  C_53 
REMARK   32  A    between atoms: CA_52  and  CB_55 
REMARK       I    between atoms: C_53  and  N_59 
REMARK   33  A    between atoms: CB_55  and  CG1_56 
REMARK   34  A    between atoms: CB_55  and  CG2_57 
REMARK   35  A    between atoms: CG1_56  and  CD1_58 
REMARK   36  A    between atoms: N_59  and  CA_60 
REMARK   37  A    between atoms: CA_60  and  C_61 
REMARK   38  A    between atoms: CA_60  and  CB_63 
REMARK   39  A    between atoms: CB_63  and  CG_64 
ROOT
ATOM      1  CA  TPO d   1     -10.158  11.009  -4.338  0.00  0.00     0.114 C 
ATOM      2  H   TPO d   1      -9.623  10.084  -4.553  0.00  0.00     0.091 H 
ENDROOT
BRANCH   1   3
ATOM      3  N   TPO d   1      -9.325  11.905  -3.546  0.00  0.00    -0.344 N 
ATOM      4  C   ASP d   1      -8.086  12.208  -3.915  0.00  0.00     0.241 C 
ATOM      5  O   ASP d   1      -7.519  11.695  -4.882  0.00  0.00    -0.271 OA
ATOM      6  H   TPO d   1      -9.702  12.309  -2.689  0.00  0.00     0.163 HD
BRANCH   4   7
ATOM      7  CA  ASP d   1      -7.382  13.244  -3.054  0.00  0.00     0.098 C 
ATOM      8  H   ASP d   1      -7.735  13.158  -2.026  0.00  0.00     0.088 H 
BRANCH   7   9
ATOM      9  N   ASP d   1      -5.937  13.022  -3.029  0.00  0.00    -0.346 N 
ATOM     10  C   GLU d   1      -5.385  11.880  -2.622  0.00  0.00     0.241 C 
ATOM     11  O   GLU d   1      -6.036  10.927  -2.165  0.00  0.00    -0.271 OA
ATOM     12  H   ASP d   1      -5.323  13.776  -3.337  0.00  0.00     0.163 HD
BRANCH  10  13
ATOM     13  CA  GLU d   1      -3.857  11.801  -2.740  0.00  0.00     0.090 C 
ATOM     14  H   GLU d   1      -3.454  12.735  -2.349  0.00  0.00     0.087 H 
BRANCH  13  15
ATOM     15  N   GLU d   1      -3.293  10.723  -1.926  0.00  0.00    -0.346 N 
ATOM     16  C   MET d   1      -3.328  10.752  -0.595  0.00  0.00     0.249 C 
ATOM     17  O   MET d   1      -3.832  11.680   0.048  0.00  0.00    -0.271 OA
ATOM     18  H   GLU d   1      -2.860   9.926  -2.392  0.00  0.00     0.163 HD
BRANCH  16  19
ATOM     19  CA  MET d   1      -2.715   9.553   0.123  0.00  0.00     0.176 C 
ATOM     20  H   MET d   1      -1.853   9.210  -0.449  0.00  0.00     0.099 H 
BRANCH  19  21
ATOM     21  N   MET d   1      -2.231   9.930   1.487  0.00  0.00    -0.066 N 
ATOM     22  H   MET d   1      -1.549  10.684   1.408  0.00  0.00     0.275 HD
ATOM     23  H   MET d   1      -3.021  10.242   2.053  0.00  0.00     0.275 HD
ATOM     24  H   MET d   1      -1.795   9.120   1.927  0.00  0.00     0.275 HD
ENDBRANCH  19  21
BRANCH  19  25
ATOM     25  CB  MET d   1      -3.743   8.420   0.208  0.00  0.00    -0.022 C 
ATOM     26  H   MET d   1      -3.953   8.106  -0.815  0.00  0.00     0.037 H 
ATOM     27  H   MET d   1      -4.602   8.813   0.751  0.00  0.00     0.037 H 
BRANCH  25  28
ATOM     28  CG  MET d   1      -3.272   7.187   0.960  0.00  0.00    -0.021 C 
ATOM     29  H   MET d   1      -3.264   7.421   2.025  0.00  0.00     0.049 H 
ATOM     30  H   MET d   1      -2.282   6.921   0.590  0.00  0.00     0.049 H 
BRANCH  28  31
ATOM     31  SD  MET d   1      -4.365   5.774   0.704  0.00  0.00    -0.173 SA
BRANCH  31  32
ATOM     32  CE  MET d   1      -3.703   5.108  -0.825  0.00  0.00    -0.035 C 
ATOM     33  H   MET d   1      -3.773   5.862  -1.609  0.00  0.00     0.041 H 
ATOM     34  H   MET d   1      -2.659   4.832  -0.677  0.00  0.00     0.041 H 
ATOM     35  H   MET d   1      -4.276   4.227  -1.114  0.00  0.00     0.041 H 
ENDBRANCH  31  32
ENDBRANCH  28  31
ENDBRANCH  25  28
ENDBRANCH  19  25
ENDBRANCH  16  19
ENDBRANCH  13  15
BRANCH  13  36
ATOM     36  CB  GLU d   1      -3.431  11.664  -4.212  0.00  0.00    -0.029 C 
ATOM     37  H   GLU d   1      -2.344  11.584  -4.216  0.00  0.00     0.037 H 
ATOM     38  H   GLU d   1      -3.836  12.530  -4.736  0.00  0.00     0.037 H 
BRANCH  36  39
ATOM     39  CG  GLU d   1      -3.966  10.422  -4.937  0.00  0.00     0.018 C 
ATOM     40  H   GLU d   1      -5.021  10.323  -4.684  0.00  0.00     0.049 H 
ATOM     41  H   GLU d   1      -3.362   9.572  -4.620  0.00  0.00     0.049 H 
BRANCH  39  42
ATOM     42  CD  GLU d   1      -3.865  10.516  -6.463  0.00  0.00     0.172 C 
ATOM     43  OE1 GLU d   1      -4.786  10.010  -7.151  0.00  0.00    -0.648 OA
ATOM     44  OE2 GLU d   1      -2.871  11.085  -6.978  0.00  0.00    -0.648 OA
ENDBRANCH  39  42
ENDBRANCH  36  39
ENDBRANCH  13  36
ENDBRANCH  10  13
ENDBRANCH   7   9
BRANCH   7  45
ATOM     45  CB  ASP d   1      -7.710  14.637  -3.601  0.00  0.00     0.043 C 
ATOM     46  H   ASP d   1      -8.787  14.685  -3.763  0.00  0.00     0.052 H 
ATOM     47  H   ASP d   1      -7.134  14.778  -4.516  0.00  0.00     0.052 H 
BRANCH  45  48
ATOM     48  CG  ASP d   1      -7.336  15.757  -2.641  0.00  0.00     0.175 C 
ATOM     49  OD1 ASP d   1      -7.139  15.498  -1.433  0.00  0.00    -0.648 OA
ATOM     50  OD2 ASP d   1      -7.250  16.910  -3.106  0.00  0.00    -0.648 OA
ENDBRANCH  45  48
ENDBRANCH   7  45
ENDBRANCH   4   7
ENDBRANCH   1   3
BRANCH   1  51
ATOM     51  CB  TPO d   1     -11.417  10.669  -3.548  0.00  0.00     0.076 C 
ATOM     52  H   TPO d   1     -12.044  11.560  -3.511  0.00  0.00     0.087 H 
BRANCH  51  53
ATOM     53  CG2 TPO d   1     -12.224   9.553  -4.215  0.00  0.00    -0.049 C 
ATOM     54  H   TPO d   1     -12.522   9.870  -5.215  0.00  0.00     0.031 H 
ATOM     55  H   TPO d   1     -11.611   8.655  -4.285  0.00  0.00     0.031 H 
ATOM     56  H   TPO d   1     -13.112   9.343  -3.619  0.00  0.00     0.031 H 
ENDBRANCH  51  53
BRANCH  51  57
ATOM     57  OG1 TPO d   1     -11.043  10.256  -2.233  0.00  0.00    -0.275 OA
BRANCH  57  58
ATOM     58  P   TPO d   1     -11.446  11.116  -0.924  0.00  0.00     0.422 P 
ATOM     59  O1P TPO d   1     -10.806  12.476  -1.164  0.00  0.00    -0.617 OA
ATOM     60  O2P TPO d   1     -10.834  10.327   0.200  0.00  0.00    -0.617 OA
ATOM     61  O3P TPO d   1     -12.949  11.227  -0.931  0.00  0.00    -0.617 OA
ENDBRANCH  57  58
ENDBRANCH  51  57
ENDBRANCH   1  51
BRANCH   1  62
ATOM     62  C   TPO d   1     -10.500  11.672  -5.639  0.00  0.00     0.243 C 
ATOM     63  O   TPO d   1     -10.800  12.868  -5.682  0.00  0.00    -0.271 OA
ATOM     64  N   GLN d   1     -10.461  10.897  -6.719  0.00  0.00    -0.346 N 
ATOM     65  H   GLN d   1     -10.231   9.909  -6.616  0.00  0.00     0.163 HD
BRANCH  64  66
ATOM     66  CA  GLN d   1     -10.740  11.429  -8.046  0.00  0.00     0.090 C 
ATOM     67  H   GLN d   1     -10.454  12.481  -8.052  0.00  0.00     0.087 H 
BRANCH  66  68
ATOM     68  C   GLN d   1     -12.227  11.353  -8.378  0.00  0.00     0.241 C 
ATOM     69  O   GLN d   1     -12.811  10.268  -8.393  0.00  0.00    -0.271 OA
ATOM     70  N   ALA d   1     -12.834  12.506  -8.644  0.00  0.00    -0.346 N 
ATOM     71  H   ALA d   1     -12.303  13.375  -8.585  0.00  0.00     0.163 HD
BRANCH  70  72
ATOM     72  CA  ALA d   1     -14.246  12.554  -9.019  0.00  0.00     0.086 C 
ATOM     73  H   ALA d   1     -14.828  12.041  -8.253  0.00  0.00     0.086 H 
BRANCH  72  74
ATOM     74  C   ALA d   1     -14.459  11.845 -10.352  0.00  0.00     0.240 C 
ATOM     75  O   ALA d   1     -13.610  11.913 -11.241  0.00  0.00    -0.271 OA
ATOM     76  N   ILE d   1     -15.583  11.149 -10.484  0.00  0.00    -0.346 N 
ATOM     77  H   ILE d   1     -16.206  11.041  -9.684  0.00  0.00     0.163 HD
BRANCH  76  78
ATOM     78  CA  ILE d   1     -15.937  10.537 -11.761  0.00  0.00     0.092 C 
ATOM     79  H   ILE d   1     -15.044  10.079 -12.187  0.00  0.00     0.088 H 
BRANCH  78  80
ATOM     80  C   ILE d   1     -16.438  11.615 -12.724  0.00  0.00     0.241 C 
ATOM     81  O   ILE d   1     -17.443  12.282 -12.464  0.00  0.00    -0.271 OA
ATOM     82  N   ASP d   1     -15.698  11.798 -13.815  0.00  0.00    -0.344 N 
ATOM     83  H   ASP d   1     -14.860  11.231 -13.944  0.00  0.00     0.163 HD
BRANCH  82  84
ATOM     84  CA  ASP d   1     -16.047  12.784 -14.834  0.00  0.00     0.105 C 
ATOM     85  H   ASP d   1     -17.015  13.213 -14.575  0.00  0.00     0.090 H 
BRANCH  84  86
ATOM     86  C   ASP d   1     -16.133  12.124 -16.187  0.00  0.00     0.197 C 
ATOM     87  O   ASP d   1     -15.496  11.096 -16.404  0.00  0.00    -0.646 OA
ATOM     88  OXT ASP d   1     -16.831  12.628 -17.066  0.00  0.00    -0.646 OA
ENDBRANCH  84  86
BRANCH  84  89
ATOM     89  CB  ASP d   1     -15.006  13.896 -14.883  0.00  0.00     0.044 C 
ATOM     90  H   ASP d   1     -15.221  14.522 -15.749  0.00  0.00     0.053 H 
ATOM     91  H   ASP d   1     -14.021  13.434 -14.940  0.00  0.00     0.053 H 
BRANCH  89  92
ATOM     92  CG  ASP d   1     -15.042  14.772 -13.652  0.00  0.00     0.175 C 
ATOM     93  OD1 ASP d   1     -14.030  14.797 -12.924  0.00  0.00    -0.648 OA
ATOM     94  OD2 ASP d   1     -16.093  15.412 -13.412  0.00  0.00    -0.648 OA
ENDBRANCH  89  92
ENDBRANCH  84  89
ENDBRANCH  82  84
ENDBRANCH  78  80
BRANCH  78  95
ATOM     95  CB  ILE d   1     -16.963   9.391 -11.589  0.00  0.00    -0.030 C 
ATOM     96  H   ILE d   1     -17.785   9.744 -10.966  0.00  0.00     0.043 H 
BRANCH  95  97
ATOM     97  CG1 ILE d   1     -16.286   8.192 -10.901  0.00  0.00    -0.063 C 
ATOM     98  H   ILE d   1     -15.696   8.591 -10.076  0.00  0.00     0.033 H 
ATOM     99  H   ILE d   1     -15.707   7.673 -11.665  0.00  0.00     0.033 H 
BRANCH  97 100
ATOM    100  CD1 ILE d   1     -17.249   7.175 -10.307  0.00  0.00    -0.076 C 
ATOM    101  H   ILE d   1     -17.871   7.661  -9.555  0.00  0.00     0.027 H 
ATOM    102  H   ILE d   1     -17.881   6.771 -11.097  0.00  0.00     0.027 H 
ATOM    103  H   ILE d   1     -16.682   6.367  -9.844  0.00  0.00     0.027 H 
ENDBRANCH  97 100
ENDBRANCH  95  97
BRANCH  95 104
ATOM    104  CG2 ILE d   1     -17.546   8.970 -12.954  0.00  0.00    -0.071 C 
ATOM    105  H   ILE d   1     -18.045   9.823 -13.414  0.00  0.00     0.028 H 
ATOM    106  H   ILE d   1     -16.739   8.627 -13.602  0.00  0.00     0.028 H 
ATOM    107  H   ILE d   1     -18.264   8.164 -12.808  0.00  0.00     0.028 H 
ENDBRANCH  95 104
ENDBRANCH  78  95
ENDBRANCH  76  78
ENDBRANCH  72  74
BRANCH  72 108
ATOM    108  CB  ALA d   1     -14.727  13.993  -9.100  0.00  0.00    -0.049 C 
ATOM    109  H   ALA d   1     -14.602  14.472  -8.129  0.00  0.00     0.030 H 
ATOM    110  H   ALA d   1     -14.143  14.528  -9.849  0.00  0.00     0.030 H 
ATOM    111  H   ALA d   1     -15.780  14.008  -9.380  0.00  0.00     0.030 H 
ENDBRANCH  72 108
ENDBRANCH  70  72
ENDBRANCH  66  68
BRANCH  66 112
ATOM    112  CB  GLN d   1      -9.916  10.684  -9.100  0.00  0.00    -0.030 C 
ATOM    113  H   GLN d   1     -10.089  11.172 -10.059  0.00  0.00     0.037 H 
ATOM    114  H   GLN d   1     -10.228   9.640  -9.085  0.00  0.00     0.037 H 
BRANCH 112 115
ATOM    115  CG  GLN d   1      -8.404  10.721  -8.826  0.00  0.00     0.011 C 
ATOM    116  H   GLN d   1      -7.902  10.134  -9.596  0.00  0.00     0.047 H 
ATOM    117  H   GLN d   1      -8.227  10.318  -7.829  0.00  0.00     0.047 H 
BRANCH 115 118
ATOM    118  CD  GLN d   1      -7.856  12.135  -8.872  0.00  0.00     0.215 C 
ATOM    119  OE1 GLN d   1      -7.971  12.812  -9.886  0.00  0.00    -0.274 OA
ATOM    120  NE2 GLN d   1      -7.289  12.594  -7.764  0.00  0.00    -0.370 N 
ATOM    121  H   GLN d   1      -6.927  13.547  -7.733  0.00  0.00     0.159 HD
ATOM    122  H   GLN d   1      -7.215  11.994  -6.943  0.00  0.00     0.159 HD
ENDBRANCH 115 118
ENDBRANCH 112 115
ENDBRANCH  66 112
ENDBRANCH  64  66
ENDBRANCH   1  62
TORSDOF 39
