REMARK  5 active torsions:
REMARK  status: ('A' for Active; 'I' for Inactive)
REMARK    1  A    between atoms: N01_2  and  C09_10 
REMARK    2  A    between atoms: C12_13  and  N01_2 
REMARK    3  A    between atoms: N04_5  and  C13_14 
REMARK    4  A    between atoms: C16_17  and  N04_5 
REMARK    5  A    between atoms: C06_7  and  C11_12 
ROOT
ATOM      1  N02 0BZ d   1     -29.529   8.650  10.311  0.00  0.00    -0.045 NA
ATOM      2  N03 0BZ d   1     -28.550   7.161  11.834  0.00  0.00    -0.075 NA
ATOM      3  C12 0BZ d   1     -29.583   7.909  11.422  0.00  0.00     0.728 A 
ATOM      4  C13 0BZ d   1     -28.414   8.660   9.560  0.00  0.00     0.148 A 
ATOM      5  C14 0BZ d   1     -27.329   7.884   9.964  0.00  0.00    -0.021 A 
ATOM      6  C15 0BZ d   1     -27.410   7.122  11.127  0.00  0.00     0.025 A 
ATOM      7  H   0BZ d   1     -26.416   7.873   9.369  0.00  0.00     0.091 H 
ATOM      8  H   0BZ d   1     -26.570   6.510  11.454  0.00  0.00     0.115 H 
ENDROOT
BRANCH   3   9
ATOM      9  N01 0BZ d   1     -30.762   7.895  12.231  0.00  0.00    -0.188 N 
ATOM     10  H   0BZ d   1     -30.694   7.437  13.140  0.00  0.00     0.184 HD
BRANCH   9  11
ATOM     11  C09 0BZ d   1     -32.031   8.464  11.884  0.00  0.00     0.049 A 
ATOM     12  C08 0BZ d   1     -33.151   7.974  12.536  0.00  0.00    -0.056 A 
ATOM     13  C07 0BZ d   1     -34.406   8.486  12.266  0.00  0.00    -0.064 A 
ATOM     14  H   0BZ d   1     -33.041   7.176  13.270  0.00  0.00     0.087 H 
ATOM     15  C06 0BZ d   1     -34.546   9.504  11.339  0.00  0.00     0.041 A 
ATOM     16  H   0BZ d   1     -35.281   8.090  12.781  0.00  0.00     0.085 H 
ATOM     17  C05 0BZ d   1     -33.424  10.009  10.685  0.00  0.00    -0.064 A 
ATOM     18  C10 0BZ d   1     -32.164   9.489  10.958  0.00  0.00    -0.056 A 
ATOM     19  H   0BZ d   1     -33.535  10.813   9.958  0.00  0.00     0.085 H 
ATOM     20  H   0BZ d   1     -31.286   9.884  10.448  0.00  0.00     0.087 H 
BRANCH  15  21
ATOM     21  C11 0BZ d   1     -35.913  10.037  11.064  0.00  0.00     0.209 C 
ATOM     22  O25 0BZ d   1     -36.839   9.822  11.886  0.00  0.00    -0.644 OA
ATOM     23  O26 0BZ d   1     -36.141  10.697  10.016  0.00  0.00    -0.644 OA
ENDBRANCH  15  21
ENDBRANCH   9  11
ENDBRANCH   3   9
BRANCH   4  24
ATOM     24  N04 0BZ d   1     -28.344   9.439   8.365  0.00  0.00    -0.338 N 
ATOM     25  H   0BZ d   1     -27.642   9.219   7.658  0.00  0.00     0.167 HD
BRANCH  24  26
ATOM     26  C16 0BZ d   1     -29.250  10.525   8.152  0.00  0.00     0.072 A 
ATOM     27  C17 0BZ d   1     -30.535  10.277   7.700  0.00  0.00    -0.054 A 
ATOM     28  C18 0BZ d   1     -31.410  11.329   7.492  0.00  0.00    -0.081 A 
ATOM     29  H   0BZ d   1     -30.857   9.254   7.508  0.00  0.00     0.087 H 
ATOM     30  C19 0BZ d   1     -30.999  12.631   7.734  0.00  0.00    -0.080 A 
ATOM     31  H   0BZ d   1     -32.422  11.134   7.138  0.00  0.00     0.083 H 
ATOM     32  C20 0BZ d   1     -29.712  12.879   8.187  0.00  0.00    -0.043 A 
ATOM     33  H   0BZ d   1     -31.688  13.460   7.568  0.00  0.00     0.083 H 
ATOM     34  C21 0BZ d   1     -28.839  11.824   8.397  0.00  0.00     0.143 A 
ATOM     35  H   0BZ d   1     -29.388  13.902   8.377  0.00  0.00     0.088 H 
ATOM     36  F24 0BZ d   1     -27.605  12.054   8.831  0.00  0.00    -0.204 F 
ENDBRANCH  24  26
ENDBRANCH   4  24
TORSDOF 5
