REMARK  5 active torsions:
REMARK  status: ('A' for Active; 'I' for Inactive)
REMARK    1  A    between atoms: C06_1  and  C11_2 
REMARK    2  A    between atoms: C09_5  and  N01_8 
REMARK    3  A    between atoms: N01_8  and  C12_9 
REMARK    4  A    between atoms: C13_13  and  N04_15 
REMARK    5  A    between atoms: N04_15  and  C16_16 
ROOT
ATOM      1  C12 0BX d   1      -3.993 -31.834   7.865  0.00  0.00     0.728 A 
ATOM      2  N03 0BX d   1      -3.949 -31.743   9.193  0.00  0.00    -0.075 NA
ATOM      3  C15 0BX d   1      -4.545 -30.729   9.843  0.00  0.00     0.025 A 
ATOM      4  C14 0BX d   1      -5.220 -29.764   9.110  0.00  0.00    -0.021 A 
ATOM      5  C13 0BX d   1      -5.259 -29.881   7.735  0.00  0.00     0.148 A 
ATOM      6  N02 0BX d   1      -4.642 -30.912   7.148  0.00  0.00    -0.045 NA
ATOM      7  H   0BX d   1      -4.499 -30.666  10.930  0.00  0.00     0.115 H 
ATOM      8  H   0BX d   1      -5.710 -28.929   9.610  0.00  0.00     0.091 H 
ENDROOT
BRANCH   1   9
ATOM      9  N01 0BX d   1      -3.329 -32.943   7.260  0.00  0.00    -0.188 N 
ATOM     10  H   0BX d   1      -3.076 -33.709   7.884  0.00  0.00     0.184 HD
BRANCH   9  11
ATOM     11  C09 0BX d   1      -2.973 -33.112   5.876  0.00  0.00     0.049 A 
ATOM     12  C10 0BX d   1      -1.864 -33.905   5.593  0.00  0.00    -0.056 A 
ATOM     13  C05 0BX d   1      -1.465 -34.131   4.286  0.00  0.00    -0.064 A 
ATOM     14  H   0BX d   1      -1.302 -34.354   6.412  0.00  0.00     0.087 H 
ATOM     15  C06 0BX d   1      -2.181 -33.552   3.257  0.00  0.00     0.041 A 
ATOM     16  H   0BX d   1      -0.598 -34.757   4.073  0.00  0.00     0.085 H 
ATOM     17  C07 0BX d   1      -3.288 -32.767   3.521  0.00  0.00    -0.064 A 
ATOM     18  C08 0BX d   1      -3.691 -32.552   4.830  0.00  0.00    -0.056 A 
ATOM     19  H   0BX d   1      -3.845 -32.317   2.699  0.00  0.00     0.085 H 
ATOM     20  H   0BX d   1      -4.571 -31.943   5.037  0.00  0.00     0.087 H 
BRANCH  15  21
ATOM     21  C11 0BX d   1      -1.754 -33.793   1.858  0.00  0.00     0.209 C 
ATOM     22  O22 0BX d   1      -0.574 -34.179   1.620  0.00  0.00    -0.644 OA
ATOM     23  O23 0BX d   1      -2.584 -33.624   0.928  0.00  0.00    -0.644 OA
ENDBRANCH  15  21
ENDBRANCH   9  11
ENDBRANCH   1   9
BRANCH   5  24
ATOM     24  N04 0BX d   1      -5.952 -28.919   6.943  0.00  0.00    -0.340 N 
ATOM     25  H   0BX d   1      -6.272 -28.043   7.356  0.00  0.00     0.167 HD
BRANCH  24  26
ATOM     26  C16 0BX d   1      -6.192 -29.200   5.559  0.00  0.00     0.033 A 
ATOM     27  C17 0BX d   1      -7.452 -29.585   5.128  0.00  0.00    -0.057 A 
ATOM     28  C18 0BX d   1      -7.663 -29.844   3.782  0.00  0.00    -0.081 A 
ATOM     29  H   0BX d   1      -8.270 -29.683   5.841  0.00  0.00     0.086 H 
ATOM     30  C19 0BX d   1      -6.627 -29.723   2.867  0.00  0.00    -0.083 A 
ATOM     31  H   0BX d   1      -8.653 -30.146   3.439  0.00  0.00     0.083 H 
ATOM     32  C20 0BX d   1      -5.375 -29.336   3.297  0.00  0.00    -0.081 A 
ATOM     33  H   0BX d   1      -6.802 -29.933   1.812  0.00  0.00     0.083 H 
ATOM     34  C21 0BX d   1      -5.158 -29.075   4.643  0.00  0.00    -0.057 A 
ATOM     35  H   0BX d   1      -4.558 -29.235   2.582  0.00  0.00     0.083 H 
ATOM     36  H   0BX d   1      -4.168 -28.770   4.982  0.00  0.00     0.086 H 
ENDBRANCH  24  26
ENDBRANCH   5  24
TORSDOF 5
