REMARK  5 active torsions:
REMARK  status: ('A' for Active; 'I' for Inactive)
REMARK    1  A    between atoms: C09_9  and  N01_1 
REMARK    2  A    between atoms: N01_1  and  C12_12 
REMARK    3  A    between atoms: C13_13  and  N04_4 
REMARK    4  A    between atoms: N04_4  and  C16_16 
REMARK    5  A    between atoms: C06_6  and  C11_11 
ROOT
ATOM      1  N02 0BY d   1       7.203  29.925   1.512  0.00  0.00    -0.045 NA
ATOM      2  N03 0BY d   1       8.076  28.365  -0.006  0.00  0.00    -0.075 NA
ATOM      3  C12 0BY d   1       7.916  29.626   0.415  0.00  0.00     0.728 A 
ATOM      4  C13 0BY d   1       6.615  28.953   2.244  0.00  0.00     0.148 A 
ATOM      5  C14 0BY d   1       6.785  27.629   1.815  0.00  0.00    -0.021 A 
ATOM      6  C15 0BY d   1       7.529  27.338   0.671  0.00  0.00     0.025 A 
ATOM      7  H   0BY d   1       6.330  26.817   2.382  0.00  0.00     0.091 H 
ATOM      8  H   0BY d   1       7.663  26.310   0.336  0.00  0.00     0.115 H 
ENDROOT
BRANCH   3   9
ATOM      9  N01 0BY d   1       8.535  30.657  -0.360  0.00  0.00    -0.188 N 
ATOM     10  H   0BY d   1       8.913  30.395  -1.270  0.00  0.00     0.184 HD
BRANCH   9  11
ATOM     11  C09 0BY d   1       8.669  32.030   0.037  0.00  0.00     0.049 A 
ATOM     12  C08 0BY d   1       9.713  32.768  -0.504  0.00  0.00    -0.056 A 
ATOM     13  C07 0BY d   1       9.885  34.101  -0.161  0.00  0.00    -0.064 A 
ATOM     14  H   0BY d   1      10.403  32.296  -1.204  0.00  0.00     0.087 H 
ATOM     15  C06 0BY d   1       9.000  34.711   0.714  0.00  0.00     0.041 A 
ATOM     16  H   0BY d   1      10.716  34.669  -0.580  0.00  0.00     0.085 H 
ATOM     17  C05 0BY d   1       7.948  33.973   1.256  0.00  0.00    -0.064 A 
ATOM     18  C10 0BY d   1       7.781  32.634   0.919  0.00  0.00    -0.056 A 
ATOM     19  H   0BY d   1       7.253  34.448   1.948  0.00  0.00     0.085 H 
ATOM     20  H   0BY d   1       6.957  32.061   1.345  0.00  0.00     0.087 H 
BRANCH  15  21
ATOM     21  C11 0BY d   1       9.196  36.145   1.093  0.00  0.00     0.209 C 
ATOM     22  O25 0BY d   1       9.320  37.047   0.224  0.00  0.00    -0.644 OA
ATOM     23  O26 0BY d   1       9.259  36.450   2.315  0.00  0.00    -0.644 OA
ENDBRANCH  15  21
ENDBRANCH   9  11
ENDBRANCH   3   9
BRANCH   4  24
ATOM     24  N04 0BY d   1       5.844  29.255   3.424  0.00  0.00    -0.339 N 
ATOM     25  H   0BY d   1       5.701  28.531   4.128  0.00  0.00     0.167 HD
BRANCH  24  26
ATOM     26  C16 0BY d   1       5.273  30.558   3.625  0.00  0.00     0.055 A 
ATOM     27  C17 0BY d   1       6.116  31.588   4.018  0.00  0.00    -0.056 A 
ATOM     28  C18 0BY d   1       5.622  32.866   4.229  0.00  0.00    -0.081 A 
ATOM     29  H   0BY d   1       7.178  31.390   4.162  0.00  0.00     0.087 H 
ATOM     30  C19 0BY d   1       4.269  33.128   4.044  0.00  0.00    -0.081 A 
ATOM     31  H   0BY d   1       6.294  33.666   4.540  0.00  0.00     0.083 H 
ATOM     32  C20 0BY d   1       3.417  32.106   3.646  0.00  0.00    -0.060 A 
ATOM     33  H   0BY d   1       3.878  34.132   4.211  0.00  0.00     0.083 H 
ATOM     34  C21 0BY d   1       3.912  30.824   3.440  0.00  0.00     0.060 A 
ATOM     35  H   0BY d   1       2.357  32.310   3.495  0.00  0.00     0.086 H 
ATOM     36 CL2  0BY d   1       2.798  29.600   2.949  0.00  0.00    -0.082 Cl
ENDBRANCH  24  26
ENDBRANCH   4  24
TORSDOF 5
