REMARK  5 active torsions:
REMARK  status: ('A' for Active; 'I' for Inactive)
REMARK    1  A    between atoms: N01_2  and  C09_10 
REMARK    2  A    between atoms: C12_13  and  N01_2 
REMARK    3  A    between atoms: N04_5  and  C13_14 
REMARK    4  A    between atoms: C16_17  and  N04_5 
REMARK    5  A    between atoms: C06_7  and  C11_12 
ROOT
ATOM      1  N02 0C4 d   1       7.109  19.565  10.390  0.00  0.00    -0.045 NA
ATOM      2  N03 0C4 d   1       8.008  21.231  11.784  0.00  0.00    -0.075 NA
ATOM      3  C12 0C4 d   1       7.872  19.943  11.431  0.00  0.00     0.728 A 
ATOM      4  C13 0C4 d   1       6.448  20.486   9.653  0.00  0.00     0.148 A 
ATOM      5  C14 0C4 d   1       6.590  21.831  10.016  0.00  0.00    -0.021 A 
ATOM      6  C15 0C4 d   1       7.384  22.201  11.100  0.00  0.00     0.025 A 
ATOM      7  H   0C4 d   1       6.072  22.600   9.443  0.00  0.00     0.091 H 
ATOM      8  H   0C4 d   1       7.495  23.248  11.383  0.00  0.00     0.115 H 
ENDROOT
BRANCH   3   9
ATOM      9  N01 0C4 d   1       8.586  18.981  12.222  0.00  0.00    -0.188 N 
ATOM     10  H   0C4 d   1       9.040  19.325  13.068  0.00  0.00     0.184 HD
BRANCH   9  11
ATOM     11  C09 0C4 d   1       8.722  17.579  11.935  0.00  0.00     0.049 A 
ATOM     12  C08 0C4 d   1       9.781  16.893  12.509  0.00  0.00    -0.056 A 
ATOM     13  C07 0C4 d   1       9.956  15.539  12.269  0.00  0.00    -0.064 A 
ATOM     14  H   0C4 d   1      10.482  17.423  13.154  0.00  0.00     0.087 H 
ATOM     15  C06 0C4 d   1       9.066  14.861  11.457  0.00  0.00     0.041 A 
ATOM     16  H   0C4 d   1      10.795  15.009  12.720  0.00  0.00     0.085 H 
ATOM     17  C05 0C4 d   1       7.998  15.543  10.882  0.00  0.00    -0.064 A 
ATOM     18  C10 0C4 d   1       7.826  16.902  11.117  0.00  0.00    -0.056 A 
ATOM     19  H   0C4 d   1       7.293  15.009  10.245  0.00  0.00     0.085 H 
ATOM     20  H   0C4 d   1       6.991  17.435  10.661  0.00  0.00     0.087 H 
BRANCH  15  21
ATOM     21  C11 0C4 d   1       9.270  13.408  11.204  0.00  0.00     0.209 C 
ATOM     22  O25 0C4 d   1      10.022  12.746  11.965  0.00  0.00    -0.644 OA
ATOM     23  O26 0C4 d   1       8.705  12.848  10.225  0.00  0.00    -0.644 OA
ENDBRANCH  15  21
ENDBRANCH   9  11
ENDBRANCH   3   9
BRANCH   4  24
ATOM     24  N04 0C4 d   1       5.619  20.126   8.527  0.00  0.00    -0.339 N 
ATOM     25  H   0C4 d   1       5.389  20.847   7.843  0.00  0.00     0.167 HD
BRANCH  24  26
ATOM     26  C16 0C4 d   1       5.101  18.797   8.323  0.00  0.00     0.051 A 
ATOM     27  C17 0C4 d   1       5.926  17.772   7.897  0.00  0.00    -0.056 A 
ATOM     28  C18 0C4 d   1       5.407  16.495   7.709  0.00  0.00    -0.081 A 
ATOM     29  H   0C4 d   1       6.982  17.965   7.709  0.00  0.00     0.087 H 
ATOM     30  C19 0C4 d   1       4.061  16.237   7.945  0.00  0.00    -0.082 A 
ATOM     31  H   0C4 d   1       6.061  15.690   7.374  0.00  0.00     0.083 H 
ATOM     32  C20 0C4 d   1       3.228  17.255   8.370  0.00  0.00    -0.064 A 
ATOM     33  H   0C4 d   1       3.663  15.233   7.795  0.00  0.00     0.083 H 
ATOM     34  C21 0C4 d   1       3.755  18.520   8.551  0.00  0.00     0.037 A 
ATOM     35  H   0C4 d   1       2.172  17.063   8.559  0.00  0.00     0.085 H 
ATOM     36 BR2  0C4 d   1       2.553  19.900   9.155  0.00  0.00    -0.049 Br
ENDBRANCH  24  26
ENDBRANCH   4  24
TORSDOF 5
