REMARK  5 active torsions:
REMARK  status: ('A' for Active; 'I' for Inactive)
REMARK    1  A    between atoms: C02_2  and  C03_3 
REMARK    2  A    between atoms: C08_8  and  N09_9 
REMARK    3  A    between atoms: N09_9  and  C10_10 
REMARK    4  A    between atoms: C12_12  and  N13_13 
REMARK    5  A    between atoms: N13_13  and  C14_14 
ROOT
ATOM      1  C14 0C5 d   1      -5.206  30.585   8.422  0.00  0.00     0.054 A 
ATOM      2  C15 0C5 d   1      -6.215  31.479   8.076  0.00  0.00    -0.056 A 
ATOM      3  C16 0C5 d   1      -5.897  32.811   7.841  0.00  0.00    -0.081 A 
ATOM      4  C17 0C5 d   1      -4.579  33.263   7.944  0.00  0.00    -0.081 A 
ATOM      5  C18 0C5 d   1      -3.571  32.371   8.293  0.00  0.00    -0.061 A 
ATOM      6  C19 0C5 d   1      -3.894  31.035   8.526  0.00  0.00     0.071 A 
ATOM      7  C20 0C5 d   1      -2.781  30.082   8.896  0.00  0.00     0.102 C 
ATOM      8  N21 0C5 d   1      -1.969  29.419   9.157  0.00  0.00    -0.191 NA
ATOM      9  H   0C5 d   1      -7.246  31.137   7.990  0.00  0.00     0.087 H 
ATOM     10  H   0C5 d   1      -6.687  33.513   7.573  0.00  0.00     0.083 H 
ATOM     11  H   0C5 d   1      -4.342  34.309   7.752  0.00  0.00     0.083 H 
ATOM     12  H   0C5 d   1      -2.540  32.712   8.383  0.00  0.00     0.086 H 
ENDROOT
BRANCH   1  13
ATOM     13  N13 0C5 d   1      -5.535  29.203   8.664  0.00  0.00    -0.339 N 
ATOM     14  H   0C5 d   1      -5.118  28.477   8.082  0.00  0.00     0.167 HD
BRANCH  13  15
ATOM     15  C12 0C5 d   1      -6.496  28.812   9.776  0.00  0.00     0.148 A 
ATOM     16  N11 0C5 d   1      -7.024  29.728  10.611  0.00  0.00    -0.045 NA
ATOM     17  C10 0C5 d   1      -7.870  29.367  11.582  0.00  0.00     0.728 A 
ATOM     18  N24 0C5 d   1      -8.230  28.094  11.787  0.00  0.00    -0.075 NA
ATOM     19  C23 0C5 d   1      -7.743  27.120  10.995  0.00  0.00     0.025 A 
ATOM     20  C22 0C5 d   1      -6.869  27.471   9.972  0.00  0.00    -0.021 A 
ATOM     21  H   0C5 d   1      -8.027  26.080  11.152  0.00  0.00     0.115 H 
ATOM     22  H   0C5 d   1      -6.469  26.698   9.315  0.00  0.00     0.091 H 
BRANCH  17  23
ATOM     23  N09 0C5 d   1      -8.412  30.363  12.463  0.00  0.00    -0.188 N 
ATOM     24  H   0C5 d   1      -8.680  30.074  13.404  0.00  0.00     0.184 HD
BRANCH  23  25
ATOM     25  C08 0C5 d   1      -8.600  31.742  12.102  0.00  0.00     0.049 A 
ATOM     26  C05 0C5 d   1      -9.486  32.497  12.865  0.00  0.00    -0.056 A 
ATOM     27  C04 0C5 d   1      -9.728  33.840  12.594  0.00  0.00    -0.064 A 
ATOM     28  H   0C5 d   1     -10.005  32.023  13.698  0.00  0.00     0.087 H 
ATOM     29  C03 0C5 d   1      -9.055  34.437  11.548  0.00  0.00     0.041 A 
ATOM     30  H   0C5 d   1     -10.436  34.410  13.197  0.00  0.00     0.085 H 
ATOM     31  C06 0C5 d   1      -8.161  33.688  10.771  0.00  0.00    -0.064 A 
ATOM     32  C07 0C5 d   1      -7.926  32.344  11.046  0.00  0.00    -0.056 A 
ATOM     33  H   0C5 d   1      -7.642  34.165   9.939  0.00  0.00     0.085 H 
ATOM     34  H   0C5 d   1      -7.223  31.771  10.441  0.00  0.00     0.087 H 
BRANCH  29  35
ATOM     35  C02 0C5 d   1      -9.342  35.866  11.281  0.00  0.00     0.209 C 
ATOM     36  O01 0C5 d   1      -8.878  36.468  10.283  0.00  0.00    -0.644 OA
ATOM     37  O25 0C5 d   1     -10.132  36.484  12.112  0.00  0.00    -0.644 OA
ENDBRANCH  29  35
ENDBRANCH  23  25
ENDBRANCH  17  23
ENDBRANCH  13  15
ENDBRANCH   1  13
TORSDOF 5
