REMARK  5 active torsions:
REMARK  status: ('A' for Active; 'I' for Inactive)
REMARK    1  A    between atoms: C07_7  and  N08_8 
REMARK    2  A    between atoms: N08_8  and  C09_9 
REMARK    3  A    between atoms: C14_13  and  N15_14 
REMARK    4  A    between atoms: N15_14  and  C16_15 
REMARK    5  A    between atoms: C19_18  and  C20_19 
ROOT
ATOM      1  C09 0C6 d   1      28.333   8.605  -9.822  0.00  0.00     0.187 A 
ATOM      2  C10 0C6 d   1      27.236   7.762 -10.107  0.00  0.00     0.180 A 
ATOM      3  C12 0C6 d   1      27.300   6.954 -11.250  0.00  0.00     0.062 A 
ATOM      4  N13 0C6 d   1      28.394   7.002 -12.047  0.00  0.00    -0.072 NA
ATOM      5  C14 0C6 d   1      29.402   7.810 -11.735  0.00  0.00     0.728 A 
ATOM      6  N25 0C6 d   1      29.388   8.619 -10.652  0.00  0.00    -0.042 NA
ATOM      7  F11 0C6 d   1      26.140   7.718  -9.313  0.00  0.00    -0.200 F 
ATOM      8  H   0C6 d   1      26.472   6.289 -11.497  0.00  0.00     0.120 H 
ENDROOT
BRANCH   5   9
ATOM      9  N15 0C6 d   1      30.521   7.790 -12.626  0.00  0.00    -0.188 N 
ATOM     10  H   0C6 d   1      30.395   7.407 -13.563  0.00  0.00     0.184 HD
BRANCH   9  11
ATOM     11  C16 0C6 d   1      31.877   8.312 -12.234  0.00  0.00     0.049 A 
ATOM     12  C17 0C6 d   1      32.067   9.107 -11.093  0.00  0.00    -0.056 A 
ATOM     13  C18 0C6 d   1      33.330   9.583 -10.758  0.00  0.00    -0.064 A 
ATOM     14  H   0C6 d   1      31.214   9.354 -10.461  0.00  0.00     0.087 H 
ATOM     15  C19 0C6 d   1      34.417   9.272 -11.575  0.00  0.00     0.041 A 
ATOM     16  H   0C6 d   1      33.469  10.193  -9.866  0.00  0.00     0.085 H 
ATOM     17  C23 0C6 d   1      34.226   8.478 -12.708  0.00  0.00    -0.064 A 
ATOM     18  C24 0C6 d   1      32.965   8.006 -13.044  0.00  0.00    -0.056 A 
ATOM     19  H   0C6 d   1      35.080   8.226 -13.337  0.00  0.00     0.085 H 
ATOM     20  H   0C6 d   1      32.828   7.398 -13.938  0.00  0.00     0.087 H 
BRANCH  15  21
ATOM     21  C20 0C6 d   1      35.819   9.736 -11.246  0.00  0.00     0.209 C 
ATOM     22  O21 0C6 d   1      36.048  10.692 -10.434  0.00  0.00    -0.644 OA
ATOM     23  O22 0C6 d   1      36.776   9.112 -11.761  0.00  0.00    -0.644 OA
ENDBRANCH  15  21
ENDBRANCH   9  11
ENDBRANCH   5   9
BRANCH   1  24
ATOM     24  N08 0C6 d   1      28.299   9.455  -8.653  0.00  0.00    -0.337 N 
ATOM     25  H   0C6 d   1      27.669   9.193  -7.894  0.00  0.00     0.167 HD
BRANCH  24  26
ATOM     26  C07 0C6 d   1      29.100  10.658  -8.483  0.00  0.00     0.055 A 
ATOM     27  C02 0C6 d   1      28.626  11.937  -8.803  0.00  0.00     0.060 A 
ATOM     28 CL1  0C6 d   1      27.074  12.214  -9.467  0.00  0.00    -0.082 Cl
ATOM     29  C03 0C6 d   1      29.425  13.048  -8.615  0.00  0.00    -0.060 A 
ATOM     30  C04 0C6 d   1      30.702  12.907  -8.086  0.00  0.00    -0.081 A 
ATOM     31  H   0C6 d   1      29.053  14.037  -8.882  0.00  0.00     0.086 H 
ATOM     32  C05 0C6 d   1      31.172  11.642  -7.754  0.00  0.00    -0.081 A 
ATOM     33  H   0C6 d   1      31.331  13.784  -7.932  0.00  0.00     0.083 H 
ATOM     34  C06 0C6 d   1      30.375  10.527  -7.951  0.00  0.00    -0.056 A 
ATOM     35  H   0C6 d   1      32.172  11.527  -7.337  0.00  0.00     0.083 H 
ATOM     36  H   0C6 d   1      30.752   9.539  -7.686  0.00  0.00     0.087 H 
ENDBRANCH  24  26
ENDBRANCH   1  24
TORSDOF 5
