REMARK  5 active torsions:
REMARK  status: ('A' for Active; 'I' for Inactive)
REMARK    1  A    between atoms: C07_7  and  N08_8 
REMARK    2  A    between atoms: N08_8  and  C09_9 
REMARK    3  A    between atoms: C13_13  and  N14_14 
REMARK    4  A    between atoms: N14_14  and  C15_15 
REMARK    5  A    between atoms: C18_18  and  C19_19 
ROOT
ATOM      1  C09 0C7 d   1     -21.886  19.868  -9.578  0.00  0.00     0.148 A 
ATOM      2  C10 0C7 d   1     -20.674  19.267  -9.918  0.00  0.00    -0.021 A 
ATOM      3  C11 0C7 d   1     -19.980  19.757 -11.026  0.00  0.00     0.025 A 
ATOM      4  N12 0C7 d   1     -20.526  20.773 -11.704  0.00  0.00    -0.075 NA
ATOM      5  C13 0C7 d   1     -21.676  21.333 -11.336  0.00  0.00     0.728 A 
ATOM      6  N26 0C7 d   1     -22.374  20.901 -10.293  0.00  0.00    -0.045 NA
ATOM      7  H6  0C7 d   1     -20.281  18.441  -9.337  0.00  0.00     0.091 H 
ATOM      8  H7  0C7 d   1     -19.031  19.329 -11.327  0.00  0.00     0.115 H 
ENDROOT
BRANCH   5   9
ATOM      9  N14 0C7 d   1     -22.147  22.393 -12.144  0.00  0.00    -0.188 N 
ATOM     10  H8  0C7 d   1     -21.627  22.582 -13.013  0.00  0.00     0.184 HD
BRANCH   9  11
ATOM     11  C15 0C7 d   1     -23.270  23.224 -11.873  0.00  0.00     0.049 A 
ATOM     12  C16 0C7 d   1     -23.374  24.380 -12.648  0.00  0.00    -0.056 A 
ATOM     13  C17 0C7 d   1     -24.428  25.253 -12.465  0.00  0.00    -0.067 A 
ATOM     14  H9  0C7 d   1     -22.622  24.594 -13.399  0.00  0.00     0.087 H 
ATOM     15  C18 0C7 d   1     -25.380  24.947 -11.507  0.00  0.00     0.012 A 
ATOM     16  H10 0C7 d   1     -24.508  26.157 -13.058  0.00  0.00     0.085 H 
ATOM     17  C24 0C7 d   1     -25.288  23.791 -10.736  0.00  0.00    -0.067 A 
ATOM     18  C25 0C7 d   1     -24.223  22.918 -10.920  0.00  0.00    -0.056 A 
ATOM     19  H12 0C7 d   1     -26.047  23.573  -9.993  0.00  0.00     0.085 H 
ATOM     20  H13 0C7 d   1     -24.141  22.014 -10.327  0.00  0.00     0.087 H 
BRANCH  15  21
ATOM     21  C19 0C7 d   1     -26.505  25.902 -11.336  0.00  0.00     0.168 A 
ATOM     22  N20 0C7 d   1     -26.457  27.065 -10.636  0.00  0.00    -0.268 N 
ATOM     23  N21 0C7 d   1     -27.684  27.649 -10.736  0.00  0.00    -0.005 NA
ATOM     24  H11 0C7 d   1     -25.644  27.437 -10.124  0.00  0.00     0.185 HD
ATOM     25  N22 0C7 d   1     -28.476  26.851 -11.491  0.00  0.00     0.018 NA
ATOM     26  N23 0C7 d   1     -27.740  25.762 -11.869  0.00  0.00    -0.142 NA
ENDBRANCH  15  21
ENDBRANCH   9  11
ENDBRANCH   5   9
BRANCH   1  27
ATOM     27  N08 0C7 d   1     -22.621  19.398  -8.457  0.00  0.00    -0.339 N 
ATOM     28  H5  0C7 d   1     -22.174  18.805  -7.743  0.00  0.00     0.167 HD
BRANCH  27  29
ATOM     29  C07 0C7 d   1     -24.002  19.770  -8.344  0.00  0.00     0.055 A 
ATOM     30  C02 0C7 d   1     -24.958  18.803  -8.608  0.00  0.00     0.060 A 
ATOM     31 CL2  0C7 d   1     -24.425  17.234  -9.083  0.00  0.00    -0.082 Cl
ATOM     32  C03 0C7 d   1     -26.302  19.095  -8.503  0.00  0.00    -0.060 A 
ATOM     33  C04 0C7 d   1     -26.690  20.373  -8.132  0.00  0.00    -0.081 A 
ATOM     34  H1  0C7 d   1     -27.046  18.334  -8.708  0.00  0.00     0.086 H 
ATOM     35  C05 0C7 d   1     -25.730  21.342  -7.867  0.00  0.00    -0.081 A 
ATOM     36  H2  0C7 d   1     -27.743  20.617  -8.049  0.00  0.00     0.083 H 
ATOM     37  C06 0C7 d   1     -24.383  21.046  -7.976  0.00  0.00    -0.056 A 
ATOM     38  H3  0C7 d   1     -26.039  22.338  -7.572  0.00  0.00     0.083 H 
ATOM     39  H4  0C7 d   1     -23.636  21.805  -7.775  0.00  0.00     0.087 H 
ENDBRANCH  27  29
ENDBRANCH   1  27
TORSDOF 5
