REMARK  5 active torsions:
REMARK  status: ('A' for Active; 'I' for Inactive)
REMARK    1  A    between atoms: C09_9  and  N01_1 
REMARK    2  A    between atoms: N01_1  and  C12_12 
REMARK    3  A    between atoms: N04_4  and  C16_16 
REMARK    4  A    between atoms: C06_6  and  C11_11 
REMARK    5  A    between atoms: C21_21  and  C22_22 
ROOT
ATOM      1  N02 0C9 d   1      -4.146 -30.806   6.525  0.00  0.00    -0.045 NA
ATOM      2  N03 0C9 d   1      -3.221 -31.566   8.617  0.00  0.00    -0.075 NA
ATOM      3  N04 0C9 d   1      -5.191 -28.698   6.489  0.00  0.00    -0.340 N 
ATOM      4  C12 0C9 d   1      -3.487 -31.726   7.298  0.00  0.00     0.728 A 
ATOM      5  C13 0C9 d   1      -4.555 -29.639   7.154  0.00  0.00     0.148 A 
ATOM      6  C14 0C9 d   1      -4.320 -29.394   8.508  0.00  0.00    -0.021 A 
ATOM      7  C15 0C9 d   1      -3.646 -30.402   9.188  0.00  0.00     0.025 A 
ATOM      8  H   0C9 d   1      -5.558 -27.922   7.040  0.00  0.00     0.167 HD
ATOM      9  H   0C9 d   1      -4.643 -28.476   8.998  0.00  0.00     0.091 H 
ATOM     10  H   0C9 d   1      -3.443 -30.252  10.248  0.00  0.00     0.115 H 
ENDROOT
BRANCH   4  11
ATOM     11  N01 0C9 d   1      -3.082 -32.841   6.780  0.00  0.00    -0.188 N 
ATOM     12  H   0C9 d   1      -3.116 -33.655   7.394  0.00  0.00     0.184 HD
BRANCH  11  13
ATOM     13  C09 0C9 d   1      -2.635 -33.057   5.570  0.00  0.00     0.049 A 
ATOM     14  C08 0C9 d   1      -1.353 -33.646   5.413  0.00  0.00    -0.056 A 
ATOM     15  C07 0C9 d   1      -0.840 -33.926   4.115  0.00  0.00    -0.064 A 
ATOM     16  H   0C9 d   1      -0.757 -33.886   6.293  0.00  0.00     0.087 H 
ATOM     17  C06 0C9 d   1      -1.606 -33.619   2.949  0.00  0.00     0.041 A 
ATOM     18  H   0C9 d   1       0.146 -34.379   4.010  0.00  0.00     0.085 H 
ATOM     19  C05 0C9 d   1      -2.893 -33.024   3.089  0.00  0.00    -0.064 A 
ATOM     20  C10 0C9 d   1      -3.406 -32.746   4.392  0.00  0.00    -0.056 A 
ATOM     21  H   0C9 d   1      -3.483 -32.782   2.205  0.00  0.00     0.085 H 
ATOM     22  H   0C9 d   1      -4.392 -32.293   4.497  0.00  0.00     0.087 H 
BRANCH  17  23
ATOM     23  C11 0C9 d   1      -1.108 -33.902   1.716  0.00  0.00     0.209 C 
ATOM     24  O25 0C9 d   1      -1.771 -34.531   0.941  0.00  0.00    -0.644 OA
ATOM     25  O26 0C9 d   1       0.120 -33.502   1.359  0.00  0.00    -0.644 OA
ENDBRANCH  17  23
ENDBRANCH  11  13
ENDBRANCH   4  11
BRANCH   3  26
ATOM     26  C16 0C9 d   1      -5.406 -28.647   5.188  0.00  0.00     0.050 A 
ATOM     27  C17 0C9 d   1      -4.371 -28.982   4.237  0.00  0.00    -0.056 A 
ATOM     28  C18 0C9 d   1      -4.615 -28.921   2.840  0.00  0.00    -0.081 A 
ATOM     29  H   0C9 d   1      -3.388 -29.286   4.598  0.00  0.00     0.086 H 
ATOM     30  C19 0C9 d   1      -5.890 -28.524   2.352  0.00  0.00    -0.082 A 
ATOM     31  H   0C9 d   1      -3.822 -29.180   2.139  0.00  0.00     0.083 H 
ATOM     32  C20 0C9 d   1      -6.932 -28.183   3.260  0.00  0.00    -0.064 A 
ATOM     33  H   0C9 d   1      -6.070 -28.480   1.278  0.00  0.00     0.083 H 
ATOM     34  C21 0C9 d   1      -6.716 -28.237   4.682  0.00  0.00     0.067 A 
ATOM     35  H   0C9 d   1      -7.904 -27.878   2.874  0.00  0.00     0.085 H 
BRANCH  34  36
ATOM     36  C22 0C9 d   1      -7.759 -27.894   5.534  0.00  0.00     0.211 C 
ATOM     37  O23 0C9 d   1      -7.701 -26.865   6.193  0.00  0.00    -0.644 OA
ATOM     38  O24 0C9 d   1      -8.853 -28.691   5.625  0.00  0.00    -0.644 OA
ENDBRANCH  34  36
ENDBRANCH   3  26
TORSDOF 5
