REMARK  10 active torsions:
REMARK  status: ('A' for Active; 'I' for Inactive)
REMARK    1  A    between atoms: CBR_44  and  OAC_3 
REMARK       I    between atoms: NBL_38  and  CBP_42 
REMARK    2  A    between atoms: CBS_45  and  NBL_38 
REMARK       I    between atoms: CBP_42  and  NBM_39 
REMARK    3  A    between atoms: NBM_39  and  CBT_46 
REMARK       I    between atoms: NBN_40  and  CBQ_43 
REMARK    4  A    between atoms: CBQ_43  and  CBU_47 
REMARK    5  A    between atoms: CBV_48  and  CBR_44 
REMARK    6  A    between atoms: CBW_49  and  SCI_61 
REMARK    7  A    between atoms: CBX_50  and  SCJ_62 
REMARK    8  A    between atoms: CCA_53  and  SCK_63 
REMARK    9  A    between atoms: CCB_54  and  SCL_64 
REMARK   10  A    between atoms: CCC_55  and  SCM_65 
ROOT
ATOM      1  OAA 0BU d   1      12.605 -58.437  43.483  0.00  0.00    -0.247 OA
ATOM      2  NBL 0BU d   1      14.795 -58.692  43.959  0.00  0.00    -0.309 N 
ATOM      3  NBM 0BU d   1      13.961 -59.423  41.955  0.00  0.00    -0.309 N 
ATOM      4  CBP 0BU d   1      13.724 -58.830  43.149  0.00  0.00     0.325 C 
ATOM      5  H   0BU d   1      15.707 -59.038  43.663  0.00  0.00     0.170 HD
ATOM      6  H   0BU d   1      14.910 -59.721  41.730  0.00  0.00     0.170 HD
ENDROOT
BRANCH   2   7
ATOM      7  CBS 0BU d   1      14.658 -58.102  45.148  0.00  0.00     0.037 A 
ATOM      8  CAX 0BU d   1      14.772 -56.716  45.237  0.00  0.00    -0.057 A 
ATOM      9  CAV 0BU d   1      14.641 -56.081  46.468  0.00  0.00    -0.080 A 
ATOM     10  H   0BU d   1      14.964 -56.128  44.340  0.00  0.00     0.086 H 
ATOM     11  CAZ 0BU d   1      14.411 -56.835  47.615  0.00  0.00    -0.068 A 
ATOM     12  H   0BU d   1      14.718 -54.996  46.534  0.00  0.00     0.083 H 
ATOM     13  CBU 0BU d   1      14.316 -58.223  47.538  0.00  0.00     0.034 A 
ATOM     14  H   0BU d   1      14.305 -56.337  48.579  0.00  0.00     0.085 H 
ATOM     15  CBF 0BU d   1      14.435 -58.857  46.301  0.00  0.00    -0.042 A 
ATOM     16  H   0BU d   1      14.354 -59.942  46.235  0.00  0.00     0.088 H 
BRANCH  13  17
ATOM     17  CBQ 0BU d   1      14.068 -58.958  48.694  0.00  0.00     0.256 C 
ATOM     18  OAB 0BU d   1      13.403 -59.990  48.649  0.00  0.00    -0.267 OA
ATOM     19  NBN 0BU d   1      14.565 -58.458  49.840  0.00  0.00    -0.322 N 
ATOM     20  CBY 0BU d   1      14.243 -59.127  50.952  0.00  0.00     0.047 A 
ATOM     21  H   0BU d   1      15.150 -57.623  49.859  0.00  0.00     0.169 HD
ATOM     22  CBB 0BU d   1      12.956 -59.641  51.081  0.00  0.00    -0.055 A 
ATOM     23  CCG 0BU d   1      15.186 -59.284  51.979  0.00  0.00     0.027 A 
ATOM     24  CBD 0BU d   1      12.590 -60.329  52.230  0.00  0.00    -0.056 A 
ATOM     25  H   0BU d   1      12.233 -59.503  50.277  0.00  0.00     0.087 H 
ATOM     26  CCA 0BU d   1      13.510 -60.501  53.256  0.00  0.00     0.091 A 
ATOM     27  H   0BU d   1      11.582 -60.733  52.327  0.00  0.00     0.086 H 
ATOM     28  CCE 0BU d   1      14.800 -59.981  53.129  0.00  0.00     0.004 A 
ATOM     29  CBJ 0BU d   1      15.703 -60.168  54.170  0.00  0.00    -0.047 A 
ATOM     30  CBW 0BU d   1      16.999 -59.669  54.090  0.00  0.00     0.083 A 
ATOM     31  H   0BU d   1      15.391 -60.713  55.061  0.00  0.00     0.087 H 
ATOM     32  CBH 0BU d   1      17.390 -58.975  52.947  0.00  0.00    -0.035 A 
ATOM     33  CCC 0BU d   1      16.490 -58.778  51.899  0.00  0.00     0.095 A 
ATOM     34  H   0BU d   1      18.404 -58.584  52.871  0.00  0.00     0.088 H 
BRANCH  26  35
ATOM     35  SCK 0BU d   1      13.025 -61.391  54.724  0.00  0.00     0.138 S 
ATOM     36  OAH 0BU d   1      13.110 -62.896  54.447  0.00  0.00    -0.591 OA
ATOM     37  OAI 0BU d   1      13.952 -61.016  55.883  0.00  0.00    -0.591 OA
ATOM     38  OAR 0BU d   1      11.587 -61.023  55.096  0.00  0.00    -0.591 OA
ENDBRANCH  26  35
BRANCH  30  39
ATOM     39  SCI 0BU d   1      18.129 -59.941  55.471  0.00  0.00     0.137 S 
ATOM     40  OAD 0BU d   1      17.324 -60.521  56.635  0.00  0.00    -0.591 OA
ATOM     41  OAE 0BU d   1      19.225 -60.931  55.063  0.00  0.00    -0.591 OA
ATOM     42  OAP 0BU d   1      18.773 -58.624  55.918  0.00  0.00    -0.591 OA
ENDBRANCH  30  39
BRANCH  33  43
ATOM     43  SCM 0BU d   1      17.044 -57.905  50.486  0.00  0.00     0.138 S 
ATOM     44  OAL 0BU d   1      18.445 -57.348  50.749  0.00  0.00    -0.591 OA
ATOM     45  OAM 0BU d   1      17.109 -58.886  49.314  0.00  0.00    -0.591 OA
ATOM     46  OAT 0BU d   1      16.079 -56.765  50.142  0.00  0.00    -0.591 OA
ENDBRANCH  33  43
ENDBRANCH  13  17
ENDBRANCH   2   7
BRANCH   3  47
ATOM     47  CBT 0BU d   1      12.986 -59.629  41.062  0.00  0.00     0.037 A 
ATOM     48  CAY 0BU d   1      11.646 -59.650  41.418  0.00  0.00    -0.057 A 
ATOM     49  CAW 0BU d   1      10.681 -59.891  40.440  0.00  0.00    -0.080 A 
ATOM     50  H   0BU d   1      11.349 -59.480  42.453  0.00  0.00     0.086 H 
ATOM     51  CBA 0BU d   1      11.032 -60.108  39.109  0.00  0.00    -0.070 A 
ATOM     52  H   0BU d   1       9.629 -59.910  40.723  0.00  0.00     0.083 H 
ATOM     53  CBV 0BU d   1      12.373 -60.108  38.756  0.00  0.00     0.029 A 
ATOM     54  H   0BU d   1      10.263 -60.276  38.355  0.00  0.00     0.084 H 
ATOM     55  CBG 0BU d   1      13.333 -59.855  39.732  0.00  0.00    -0.044 A 
ATOM     56  H   0BU d   1      14.385 -59.833  39.448  0.00  0.00     0.088 H 
BRANCH  53  57
ATOM     57  CBR 0BU d   1      12.806 -60.293  37.448  0.00  0.00     0.293 C 
ATOM     58  OAN 0BU d   1      13.258 -61.793  38.068  0.00  0.00    -0.208 OA
ATOM     59  SCN 0BU d   1      13.533 -63.191  37.504  0.00  0.00     0.303 S 
ATOM     60  OAO 0BU d   1      12.226 -63.984  37.406  0.00  0.00    -0.193 OA
ATOM     61  OAU 0BU d   1      14.517 -63.925  38.418  0.00  0.00    -0.193 OA
ATOM     62  CCD 0BU d   1      14.200 -63.078  35.927  0.00  0.00     0.101 A 
ATOM     63  CBI 0BU d   1      15.194 -63.979  35.545  0.00  0.00    -0.035 A 
ATOM     64  CCH 0BU d   1      13.738 -62.102  35.046  0.00  0.00     0.026 A 
ATOM     65  CBX 0BU d   1      15.748 -63.921  34.267  0.00  0.00     0.083 A 
ATOM     66  H   0BU d   1      15.540 -64.734  36.251  0.00  0.00     0.088 H 
ATOM     67  CBK 0BU d   1      15.293 -62.942  33.384  0.00  0.00    -0.047 A 
ATOM     68  CCF 0BU d   1      14.293 -62.037  33.761  0.00  0.00     0.004 A 
ATOM     69  H   0BU d   1      15.723 -62.880  32.384  0.00  0.00     0.087 H 
ATOM     70  CCB 0BU d   1      13.853 -61.074  32.844  0.00  0.00     0.091 A 
ATOM     71  CBE 0BU d   1      12.864 -60.172  33.222  0.00  0.00    -0.056 A 
ATOM     72  CBC 0BU d   1      12.308 -60.226  34.495  0.00  0.00    -0.055 A 
ATOM     73  H   0BU d   1      12.522 -59.417  32.514  0.00  0.00     0.086 H 
ATOM     74  CBZ 0BU d   1      12.726 -61.196  35.399  0.00  0.00     0.045 A 
ATOM     75  H   0BU d   1      11.543 -59.506  34.785  0.00  0.00     0.087 H 
ATOM     76  NBO 0BU d   1      12.200 -61.201  36.637  0.00  0.00    -0.330 N 
ATOM     77  H   0BU d   1      11.438 -61.812  36.932  0.00  0.00     0.165 HD
BRANCH  57  78
ATOM     78  OAC 0BU d   1      13.763 -59.625  37.077  0.00  0.00    -0.344 OA
ATOM     79  H   0BU d   1      14.351 -59.471  37.820  0.00  0.00     0.215 HD
ENDBRANCH  57  78
BRANCH  65  80
ATOM     80  SCJ 0BU d   1      17.059 -65.096  33.743  0.00  0.00     0.137 S 
ATOM     81  OAF 0BU d   1      16.766 -65.596  32.321  0.00  0.00    -0.591 OA
ATOM     82  OAG 0BU d   1      18.407 -64.367  33.772  0.00  0.00    -0.591 OA
ATOM     83  OAQ 0BU d   1      17.109 -66.327  34.646  0.00  0.00    -0.591 OA
ENDBRANCH  65  80
BRANCH  70  84
ATOM     84  SCL 0BU d   1      14.576 -60.978  31.162  0.00  0.00     0.138 S 
ATOM     85  OAJ 0BU d   1      16.103 -61.011  31.304  0.00  0.00    -0.591 OA
ATOM     86  OAK 0BU d   1      14.117 -62.188  30.341  0.00  0.00    -0.591 OA
ATOM     87  OAS 0BU d   1      14.175 -59.680  30.450  0.00  0.00    -0.591 OA
ENDBRANCH  70  84
ENDBRANCH  53  57
ENDBRANCH   3  47
TORSDOF 10
