REMARK  6 active torsions:
REMARK  status: ('A' for Active; 'I' for Inactive)
REMARK    1  A    between atoms: C7_7  and  C18_18 
REMARK    2  A    between atoms: C24_24  and  C9_9 
REMARK    3  A    between atoms: C20_20  and  C14_14 
REMARK       I    between atoms: N3_27  and  C20_20 
REMARK    4  A    between atoms: S1_35  and  C23_23 
REMARK    5  A    between atoms: N1_25  and  C24_24 
REMARK    6  A    between atoms: N3_27  and  S1_35 
ROOT
ATOM      1  C1  0C1 d   1      25.929  41.277  47.832  0.00  0.00    -0.068 A 
ATOM      2  C2  0C1 d   1      25.968  41.483  46.448  0.00  0.00    -0.055 A 
ATOM      3  C6  0C1 d   1      24.499  43.460  46.710  0.00  0.00     0.035 A 
ATOM      4  C7  0C1 d   1      23.925  44.421  45.846  0.00  0.00     0.006 A 
ATOM      5  C8  0C1 d   1      25.207  42.142  48.624  0.00  0.00     0.001 A 
ATOM      6  C10 0C1 d   1      25.260  42.582  45.912  0.00  0.00     0.049 A 
ATOM      7  C11 0C1 d   1      24.498  43.206  48.086  0.00  0.00     0.098 A 
ATOM      8  C14 0C1 d   1      24.380  44.160  44.553  0.00  0.00     0.113 A 
ATOM      9  C21 0C1 d   1      25.046  42.139  50.100  0.00  0.00    -0.049 C 
ATOM     10  C22 0C1 d   1      23.847  43.072  50.201  0.00  0.00     0.020 C 
ATOM     11  N1  0C1 d   1      25.161  43.028  44.618  0.00  0.00    -0.337 N 
ATOM     12  O5  0C1 d   1      23.844  43.955  49.060  0.00  0.00    -0.321 OA
ATOM     13  H1  0C1 d   1      26.462  40.444  48.276  0.00  0.00     0.085 H 
ATOM     14  H2  0C1 d   1      26.528  40.816  45.803  0.00  0.00     0.087 H 
ATOM     15  H10 0C1 d   1      25.613  41.626  50.875  0.00  0.00     0.087 H 
ATOM     16  H11 0C1 d   1      23.111  43.073  51.004  0.00  0.00     0.123 H 
ENDROOT
BRANCH  11  17
ATOM     17  C24 0C1 d   1      25.894  42.415  43.512  0.00  0.00     0.027 C 
ATOM     18  H15 0C1 d   1      26.171  41.385  43.779  0.00  0.00     0.072 H 
ATOM     19  H16 0C1 d   1      25.262  42.404  42.611  0.00  0.00     0.072 H 
BRANCH  17  20
ATOM     20  C9  0C1 d   1      27.145  43.226  43.246  0.00  0.00     0.002 A 
ATOM     21  C5  0C1 d   1      27.611  44.208  44.153  0.00  0.00    -0.035 A 
ATOM     22  C12 0C1 d   1      28.769  44.938  43.866  0.00  0.00     0.117 A 
ATOM     23  H5  0C1 d   1      27.069  44.395  45.073  0.00  0.00     0.089 H 
ATOM     24  C3  0C1 d   1      29.486  44.719  42.702  0.00  0.00    -0.043 A 
ATOM     25  F1  0C1 d   1      29.193  45.872  44.721  0.00  0.00    -0.206 F 
ATOM     26  C4  0C1 d   1      29.038  43.763  41.794  0.00  0.00    -0.042 A 
ATOM     27  H3  0C1 d   1      30.387  45.286  42.499  0.00  0.00     0.088 H 
ATOM     28  C13 0C1 d   1      27.884  43.038  42.067  0.00  0.00     0.124 A 
ATOM     29  H4  0C1 d   1      29.588  43.585  40.877  0.00  0.00     0.088 H 
ATOM     30  F2  0C1 d   1      27.483  42.153  41.169  0.00  0.00    -0.205 F 
ENDBRANCH  17  20
ENDBRANCH  11  17
BRANCH   8  31
ATOM     31  C20 0C1 d   1      24.238  45.037  43.415  0.00  0.00     0.282 C 
ATOM     32  N3  0C1 d   1      23.790  44.464  42.208  0.00  0.00    -0.249 N 
ATOM     33  H17 0C1 d   1      23.096  43.745  42.248  0.00  0.00     0.182 HD
ATOM     34  O2  0C1 d   1      24.286  46.264  43.519  0.00  0.00    -0.265 OA
BRANCH  32  35
ATOM     35  S1  0C1 d   1      24.382  44.944  40.683  0.00  0.00     0.229 S 
ATOM     36  O3  0C1 d   1      24.615  43.789  39.846  0.00  0.00    -0.206 OA
ATOM     37  O4  0C1 d   1      23.497  46.000  40.240  0.00  0.00    -0.206 OA
BRANCH  35  38
ATOM     38  C23 0C1 d   1      25.895  45.782  41.050  0.00  0.00     0.033 C 
ATOM     39  H12 0C1 d   1      26.356  46.133  40.115  0.00  0.00     0.051 H 
ATOM     40  H13 0C1 d   1      26.582  45.091  41.561  0.00  0.00     0.051 H 
ATOM     41  H14 0C1 d   1      25.688  46.643  41.702  0.00  0.00     0.051 H 
ENDBRANCH  35  38
ENDBRANCH  32  35
ENDBRANCH   8  31
BRANCH   4  42
ATOM     42  C18 0C1 d   1      23.087  45.531  46.220  0.00  0.00     0.071 A 
ATOM     43  C16 0C1 d   1      23.378  46.369  47.243  0.00  0.00    -0.085 A 
ATOM     44  C15 0C1 d   1      22.523  47.470  47.618  0.00  0.00    -0.068 A 
ATOM     45  H7  0C1 d   1      24.296  46.206  47.806  0.00  0.00     0.078 H 
ATOM     46  C17 0C1 d   1      21.406  47.703  46.912  0.00  0.00     0.005 A 
ATOM     47  H6  0C1 d   1      22.782  48.104  48.465  0.00  0.00     0.085 H 
ATOM     48  N2  0C1 d   1      21.064  46.901  45.858  0.00  0.00    -0.226 NA
ATOM     49  H8  0C1 d   1      20.764  48.541  47.181  0.00  0.00     0.114 H 
ATOM     50  C19 0C1 d   1      21.801  45.797  45.440  0.00  0.00     0.255 A 
ATOM     51  O1  0C1 d   1      21.431  45.073  44.498  0.00  0.00    -0.270 OA
ATOM     52  H9  0C1 d   1      23.653  46.177  45.533  0.00  0.00     0.068 H 
ENDBRANCH   4  42
TORSDOF 6
