REMARK  7 active torsions:
REMARK  status: ('A' for Active; 'I' for Inactive)
REMARK    1  A    between atoms: C7_7  and  C18_18 
REMARK    2  A    between atoms: C25_25  and  C9_9 
REMARK    3  A    between atoms: C20_20  and  C14_14 
REMARK       I    between atoms: N3_28  and  C20_20 
REMARK    4  A    between atoms: C22_22  and  C23_23 
REMARK    5  A    between atoms: S1_36  and  C24_24 
REMARK    6  A    between atoms: N1_26  and  C25_25 
REMARK    7  A    between atoms: N3_28  and  S1_36 
ROOT
ATOM      1  C1  0C2 d   1      25.792  41.273  47.340  0.00  0.00    -0.071 A 
ATOM      2  C2  0C2 d   1      25.866  41.575  45.975  0.00  0.00    -0.055 A 
ATOM      3  C6  0C2 d   1      24.486  43.604  46.366  0.00  0.00     0.035 A 
ATOM      4  C7  0C2 d   1      23.946  44.651  45.575  0.00  0.00     0.006 A 
ATOM      5  C8  0C2 d   1      25.105  42.132  48.193  0.00  0.00    -0.018 A 
ATOM      6  C10 0C2 d   1      25.205  42.737  45.515  0.00  0.00     0.049 A 
ATOM      7  C11 0C2 d   1      24.465  43.271  47.724  0.00  0.00     0.088 A 
ATOM      8  C14 0C2 d   1      24.378  44.439  44.267  0.00  0.00     0.113 A 
ATOM      9  C21 0C2 d   1      24.095  43.303  49.928  0.00  0.00     0.033 A 
ATOM     10  C22 0C2 d   1      24.919  42.037  49.659  0.00  0.00    -0.008 A 
ATOM     11  N1  0C2 d   1      25.130  43.278  44.259  0.00  0.00    -0.337 N 
ATOM     12  O5  0C2 d   1      23.842  44.016  48.709  0.00  0.00    -0.349 OA
ATOM     13  H1  0C2 d   1      26.265  40.379  47.729  0.00  0.00     0.084 H 
ATOM     14  H2  0C2 d   1      26.414  40.937  45.291  0.00  0.00     0.087 H 
ATOM     15  H10 0C2 d   1      24.651  43.955  50.618  0.00  0.00     0.076 H 
ATOM     16  H11 0C2 d   1      23.136  43.018  50.385  0.00  0.00     0.076 H 
ATOM     17  H12 0C2 d   1      25.886  42.066  50.183  0.00  0.00     0.050 H 
ENDROOT
BRANCH  11  18
ATOM     18  C25 0C2 d   1      25.818  42.741  43.090  0.00  0.00     0.027 C 
ATOM     19  H19 0C2 d   1      25.979  41.662  43.228  0.00  0.00     0.072 H 
ATOM     20  H20 0C2 d   1      25.199  42.908  42.196  0.00  0.00     0.072 H 
BRANCH  18  21
ATOM     21  C9  0C2 d   1      27.153  43.425  42.906  0.00  0.00     0.002 A 
ATOM     22  C5  0C2 d   1      27.663  44.377  43.810  0.00  0.00    -0.035 A 
ATOM     23  C12 0C2 d   1      28.900  44.975  43.585  0.00  0.00     0.117 A 
ATOM     24  H5  0C2 d   1      27.088  44.646  44.688  0.00  0.00     0.089 H 
ATOM     25  C3  0C2 d   1      29.666  44.650  42.470  0.00  0.00    -0.043 A 
ATOM     26  F1  0C2 d   1      29.348  45.872  44.465  0.00  0.00    -0.206 F 
ATOM     27  C4  0C2 d   1      29.177  43.712  41.560  0.00  0.00    -0.042 A 
ATOM     28  H3  0C2 d   1      30.630  45.119  42.310  0.00  0.00     0.088 H 
ATOM     29  C13 0C2 d   1      27.934  43.109  41.784  0.00  0.00     0.124 A 
ATOM     30  H4  0C2 d   1      29.758  43.451  40.683  0.00  0.00     0.088 H 
ATOM     31  F2  0C2 d   1      27.476  42.233  40.889  0.00  0.00    -0.205 F 
ENDBRANCH  18  21
ENDBRANCH  11  18
BRANCH   8  32
ATOM     32  C20 0C2 d   1      24.149  45.283  43.113  0.00  0.00     0.282 C 
ATOM     33  N3  0C2 d   1      24.453  44.619  41.912  0.00  0.00    -0.249 N 
ATOM     34  H21 0C2 d   1      24.737  43.663  41.977  0.00  0.00     0.182 HD
ATOM     35  O2  0C2 d   1      24.026  46.497  43.168  0.00  0.00    -0.265 OA
BRANCH  33  36
ATOM     36  S1  0C2 d   1      24.379  45.295  40.381  0.00  0.00     0.229 S 
ATOM     37  O3  0C2 d   1      23.996  44.277  39.434  0.00  0.00    -0.206 OA
ATOM     38  O4  0C2 d   1      23.762  46.603  40.453  0.00  0.00    -0.206 OA
BRANCH  36  39
ATOM     39  C24 0C2 d   1      26.120  45.583  40.186  0.00  0.00     0.033 C 
ATOM     40  H16 0C2 d   1      26.308  46.043  39.205  0.00  0.00     0.051 H 
ATOM     41  H17 0C2 d   1      26.660  44.627  40.252  0.00  0.00     0.051 H 
ATOM     42  H18 0C2 d   1      26.471  46.258  40.981  0.00  0.00     0.051 H 
ENDBRANCH  36  39
ENDBRANCH  33  36
ENDBRANCH   8  32
BRANCH   4  43
ATOM     43  C18 0C2 d   1      23.129  45.768  45.997  0.00  0.00     0.071 A 
ATOM     44  C16 0C2 d   1      23.455  46.600  47.011  0.00  0.00    -0.085 A 
ATOM     45  C15 0C2 d   1      22.610  47.706  47.404  0.00  0.00    -0.068 A 
ATOM     46  H7  0C2 d   1      24.386  46.432  47.551  0.00  0.00     0.078 H 
ATOM     47  C17 0C2 d   1      21.468  47.942  46.742  0.00  0.00     0.005 A 
ATOM     48  H6  0C2 d   1      22.901  48.346  48.236  0.00  0.00     0.085 H 
ATOM     49  N2  0C2 d   1      21.082  47.136  45.708  0.00  0.00    -0.226 NA
ATOM     50  H8  0C2 d   1      20.842  48.785  47.031  0.00  0.00     0.114 H 
ATOM     51  C19 0C2 d   1      21.815  46.040  45.267  0.00  0.00     0.255 A 
ATOM     52  O1  0C2 d   1      21.426  45.323  44.338  0.00  0.00    -0.270 OA
ATOM     53  H9  0C2 d   1      23.672  46.417  45.295  0.00  0.00     0.068 H 
ENDBRANCH   4  43
BRANCH  10  54
ATOM     54  C23 0C2 d   1      24.161  40.798  50.086  0.00  0.00    -0.067 C 
ATOM     55  H13 0C2 d   1      24.772  39.906  49.883  0.00  0.00     0.028 H 
ATOM     56  H14 0C2 d   1      23.218  40.733  49.523  0.00  0.00     0.028 H 
ATOM     57  H15 0C2 d   1      23.942  40.855  51.162  0.00  0.00     0.028 H 
ENDBRANCH  10  54
TORSDOF 7
