REMARK  5 active torsions:
REMARK  status: ('A' for Active; 'I' for Inactive)
REMARK    1  A    between atoms: CAX_6  and  CAO_7 
REMARK    2  A    between atoms: CAO_7  and  NAY_8 
REMARK    3  A    between atoms: CAU_11  and  NAA_12 
REMARK    4  A    between atoms: CAT_17  and  CAR_18 
REMARK    5  A    between atoms: CAR_18  and  CAS_20 
ROOT
ATOM      1  NAY B6A d   1      27.263  13.048  30.640  0.00  0.00    -0.179 N 
ATOM      2  CAW B6A d   1      25.949  12.967  30.782  0.00  0.00     0.082 A 
ATOM      3  CAJ B6A d   1      24.964  13.907  31.049  0.00  0.00    -0.040 A 
ATOM      4  CAU B6A d   1      27.740  11.847  30.390  0.00  0.00     0.701 A 
ATOM      5  NAP B6A d   1      26.741  10.961  30.368  0.00  0.00    -0.063 NA
ATOM      6  CAV B6A d   1      25.613  11.629  30.611  0.00  0.00     0.103 A 
ATOM      7  CAI B6A d   1      24.285  11.229  30.720  0.00  0.00    -0.051 A 
ATOM      8  CAH B6A d   1      23.292  12.171  30.991  0.00  0.00    -0.067 A 
ATOM      9  CAT B6A d   1      23.638  13.508  31.158  0.00  0.00     0.017 A 
ATOM     10  H   B6A d   1      25.230  14.957  31.173  0.00  0.00     0.088 H 
ATOM     11  H   B6A d   1      24.020  10.179  30.594  0.00  0.00     0.087 H 
ATOM     12  H   B6A d   1      22.250  11.861  31.072  0.00  0.00     0.085 H 
ENDROOT
BRANCH   1  13
ATOM     13  CAO B6A d   1      28.085  14.264  30.749  0.00  0.00     0.020 C 
ATOM     14  H   B6A d   1      27.750  14.811  31.631  0.00  0.00     0.066 H 
ATOM     15  H   B6A d   1      29.128  13.953  30.806  0.00  0.00     0.066 H 
BRANCH  13  16
ATOM     16  CAX B6A d   1      27.946  15.190  29.553  0.00  0.00    -0.035 C 
ATOM     17  CAM B6A d   1      28.637  14.551  28.356  0.00  0.00    -0.038 C 
ATOM     18  CAK B6A d   1      28.729  15.552  27.211  0.00  0.00     0.082 C 
ATOM     19  H   B6A d   1      29.642  14.243  28.645  0.00  0.00     0.036 H 
ATOM     20  H   B6A d   1      28.061  13.685  28.030  0.00  0.00     0.036 H 
ATOM     21  NAQ B6A d   1      29.482  16.725  27.674  0.00  0.00    -0.075 N 
ATOM     22  H   B6A d   1      27.729  15.852  26.899  0.00  0.00     0.075 H 
ATOM     23  H   B6A d   1      29.236  15.097  26.360  0.00  0.00     0.075 H 
ATOM     24  CAL B6A d   1      28.710  17.442  28.685  0.00  0.00     0.082 C 
ATOM     25  H   B6A d   1      29.660  17.345  26.884  0.00  0.00     0.277 HD
ATOM     26  H   B6A d   1      30.366  16.419  28.080  0.00  0.00     0.277 HD
ATOM     27  CAN B6A d   1      28.585  16.545  29.912  0.00  0.00    -0.038 C 
ATOM     28  H   B6A d   1      27.721  17.688  28.298  0.00  0.00     0.075 H 
ATOM     29  H   B6A d   1      29.212  18.373  28.950  0.00  0.00     0.075 H 
ATOM     30  H   B6A d   1      27.950  17.045  30.644  0.00  0.00     0.036 H 
ATOM     31  H   B6A d   1      29.583  16.363  30.311  0.00  0.00     0.036 H 
ATOM     32  H   B6A d   1      26.899  15.353  29.297  0.00  0.00     0.042 H 
ENDBRANCH  13  16
ENDBRANCH   1  13
BRANCH   4  33
ATOM     33  NAA B6A d   1      29.027  11.587  30.185  0.00  0.00    -0.233 N 
ATOM     34  H   B6A d   1      29.329  10.633  29.988  0.00  0.00     0.174 HD
ATOM     35  H   B6A d   1      29.712  12.341  30.224  0.00  0.00     0.174 HD
ENDBRANCH   4  33
BRANCH   9  36
ATOM     36  CAR B6A d   1      22.593  14.562  31.440  0.00  0.00     0.192 C 
ATOM     37  OAB B6A d   1      22.773  15.715  31.043  0.00  0.00    -0.287 OA
BRANCH  36  38
ATOM     38  CAS B6A d   1      21.338  14.200  32.224  0.00  0.00     0.015 A 
ATOM     39  CAF B6A d   1      20.112  14.737  31.853  0.00  0.00    -0.069 A 
ATOM     40  CAD B6A d   1      18.963  14.404  32.565  0.00  0.00    -0.082 A 
ATOM     41  H   B6A d   1      20.049  15.419  31.005  0.00  0.00     0.085 H 
ATOM     42  CAC B6A d   1      19.063  13.549  33.664  0.00  0.00    -0.083 A 
ATOM     43  H   B6A d   1      17.995  14.807  32.267  0.00  0.00     0.083 H 
ATOM     44  CAE B6A d   1      20.293  13.019  34.029  0.00  0.00    -0.082 A 
ATOM     45  H   B6A d   1      18.171  13.296  34.238  0.00  0.00     0.083 H 
ATOM     46  CAG B6A d   1      21.430  13.344  33.314  0.00  0.00    -0.069 A 
ATOM     47  H   B6A d   1      20.362  12.344  34.882  0.00  0.00     0.083 H 
ATOM     48  H   B6A d   1      22.396  12.930  33.604  0.00  0.00     0.085 H 
ENDBRANCH  36  38
ENDBRANCH   9  36
TORSDOF 5
