REMARK  3 active torsions:
REMARK  status: ('A' for Active; 'I' for Inactive)
REMARK    1  A    between atoms: CAP_6  and  CAH_7 
REMARK    2  A    between atoms: CAH_7  and  NAQ_8 
REMARK    3  A    between atoms: C6_16  and  NAA_17 
ROOT
ATOM      1  CAF B5A d   1      19.420  18.125  61.618  0.00  0.00    -0.038 C 
ATOM      2  CAD B5A d   1      19.906  18.501  60.219  0.00  0.00     0.082 C 
ATOM      3  NAL B5A d   1      18.750  18.896  59.400  0.00  0.00    -0.075 N 
ATOM      4  CAE B5A d   1      17.854  17.740  59.214  0.00  0.00     0.082 C 
ATOM      5  CAG B5A d   1      17.279  17.316  60.566  0.00  0.00    -0.038 C 
ATOM      6  CAP B5A d   1      18.394  16.982  61.570  0.00  0.00    -0.034 C 
ATOM      7  H1  B5A d   1      18.952  19.006  62.083  0.00  0.00     0.036 H 
ATOM      8  H2  B5A d   1      20.282  17.806  62.222  0.00  0.00     0.036 H 
ATOM      9  H3  B5A d   1      20.406  17.637  59.758  0.00  0.00     0.075 H 
ATOM     10  H4  B5A d   1      20.613  19.341  60.288  0.00  0.00     0.075 H 
ATOM     11  H5  B5A d   1      19.071  19.219  58.501  0.00  0.00     0.277 HD
ATOM     12  H6  B5A d   1      18.248  19.637  59.864  0.00  0.00     0.277 HD
ATOM     13  H7  B5A d   1      18.420  16.904  58.778  0.00  0.00     0.075 H 
ATOM     14  H8  B5A d   1      17.032  18.018  58.538  0.00  0.00     0.075 H 
ATOM     15  H9  B5A d   1      16.648  16.427  60.423  0.00  0.00     0.036 H 
ATOM     16  H10 B5A d   1      16.669  18.138  60.969  0.00  0.00     0.036 H 
ATOM     17  H11 B5A d   1      18.896  16.056  61.254  0.00  0.00     0.042 H 
ENDROOT
BRANCH   6  18
ATOM     18  CAH B5A d   1      17.805  16.785  62.975  0.00  0.00     0.022 C 
ATOM     19  H12 B5A d   1      17.321  17.723  63.286  0.00  0.00     0.068 H 
ATOM     20  H13 B5A d   1      18.626  16.549  63.668  0.00  0.00     0.068 H 
BRANCH  18  21
ATOM     21  NAQ B5A d   1      16.809  15.700  63.042  0.00  0.00    -0.251 N 
ATOM     22  NAK B5A d   1      15.582  15.869  63.058  0.00  0.00    -0.182 NA
ATOM     23  CAC B5A d   1      14.961  14.684  63.128  0.00  0.00     0.039 A 
ATOM     24  C5  B5A d   1      15.903  13.745  63.164  0.00  0.00     0.076 A 
ATOM     25  H14 B5A d   1      13.885  14.520  63.151  0.00  0.00     0.119 H 
ATOM     26  C4  B5A d   1      17.116  14.411  63.110  0.00  0.00     0.162 A 
ATOM     27  C6  B5A d   1      15.907  12.358  63.233  0.00  0.00     0.138 A 
ATOM     28  N3  B5A d   1      18.266  13.720  63.126  0.00  0.00    -0.222 NA
ATOM     29  C2  B5A d   1      18.238  12.395  63.195  0.00  0.00     0.091 A 
ATOM     30  N1  B5A d   1      17.093  11.719  63.248  0.00  0.00    -0.224 NA
ATOM     31  H15 B5A d   1      19.174  11.848  63.209  0.00  0.00     0.146 H 
BRANCH  27  32
ATOM     32  NAA B5A d   1      14.766  11.673  63.287  0.00  0.00    -0.383 N 
ATOM     33  H16 B5A d   1      14.785  10.644  63.338  0.00  0.00     0.157 HD
ATOM     34  H17 B5A d   1      13.865  12.172  63.278  0.00  0.00     0.157 HD
ENDBRANCH  27  32
ENDBRANCH  18  21
ENDBRANCH   6  18
TORSDOF 3
