REMARK  8 active torsions:
REMARK  status: ('A' for Active; 'I' for Inactive)
REMARK    1  A    between atoms: C6_6  and  NAD_10 
REMARK    2  A    between atoms: CAL_17  and  CAA_7 
REMARK    3  A    between atoms: CAY_25  and  CAB_8 
REMARK    4  A    between atoms: CAY_25  and  CAC_9 
REMARK    5  A    between atoms: OAP_19  and  CAL_17 
REMARK    6  A    between atoms: CAQ_20  and  OAP_19 
REMARK    7  A    between atoms: CAT_22  and  CAR_21 
REMARK    8  A    between atoms: CAY_25  and  NAZ_26 
ROOT
ATOM      1  CAE BK5 d   1      -4.474 -35.260  11.364  0.00  0.00    -0.050 A 
ATOM      2  CAF BK5 d   1      -5.440 -36.087   6.502  0.00  0.00    -0.070 A 
ATOM      3  CAG BK5 d   1      -5.587 -35.742  10.659  0.00  0.00    -0.070 A 
ATOM      4  CAH BK5 d   1      -4.334 -35.608   7.208  0.00  0.00    -0.071 A 
ATOM      5  CAJ BK5 d   1      -3.275 -35.003   9.286  0.00  0.00    -0.040 A 
ATOM      6  CAK BK5 d   1      -6.652 -36.346   8.561  0.00  0.00    -0.060 A 
ATOM      7  CAQ BK5 d   1      -3.311 -34.892  10.680  0.00  0.00     0.069 A 
ATOM      8  CAR BK5 d   1      -6.604 -36.437   7.168  0.00  0.00    -0.004 A 
ATOM      9  CAU BK5 d   1      -4.387 -35.490   8.591  0.00  0.00    -0.023 A 
ATOM     10  CAV BK5 d   1      -5.546 -35.862   9.270  0.00  0.00    -0.025 A 
ATOM     11  H   BK5 d   1      -4.516 -35.172  12.450  0.00  0.00     0.087 H 
ATOM     12  H   BK5 d   1      -5.387 -36.186   5.418  0.00  0.00     0.084 H 
ATOM     13  H   BK5 d   1      -6.490 -36.025  11.200  0.00  0.00     0.085 H 
ATOM     14  H   BK5 d   1      -3.427 -35.326   6.673  0.00  0.00     0.084 H 
ATOM     15  H   BK5 d   1      -2.378 -34.709   8.740  0.00  0.00     0.089 H 
ATOM     16  H   BK5 d   1      -7.551 -36.652   9.096  0.00  0.00     0.086 H 
ENDROOT
BRANCH   8  17
ATOM     17  CAT BK5 d   1      -7.659 -36.953   6.442  0.00  0.00     0.105 A 
ATOM     18  C5  BK5 d   1      -8.999 -36.557   6.429  0.00  0.00     0.088 A 
ATOM     19  C4  BK5 d   1      -9.594 -37.439   5.545  0.00  0.00     0.164 A 
ATOM     20  C6  BK5 d   1      -9.802 -35.577   7.023  0.00  0.00     0.139 A 
ATOM     21  N3  BK5 d   1     -10.905 -37.366   5.283  0.00  0.00    -0.222 NA
ATOM     22  NAZ BK5 d   1      -8.638 -38.257   5.128  0.00  0.00    -0.247 N 
ATOM     23  C2  BK5 d   1     -11.644 -36.431   5.863  0.00  0.00     0.091 A 
ATOM     24  N1  BK5 d   1     -11.104 -35.551   6.710  0.00  0.00    -0.224 NA
ATOM     25  H   BK5 d   1     -12.711 -36.380   5.645  0.00  0.00     0.146 H 
ATOM     26  NAO BK5 d   1      -7.548 -37.994   5.631  0.00  0.00    -0.169 NA
BRANCH  22  27
ATOM     27  CAY BK5 d   1      -8.871 -39.356   4.168  0.00  0.00     0.029 C 
ATOM     28  H   BK5 d   1      -9.935 -39.591   4.141  0.00  0.00     0.074 H 
BRANCH  27  29
ATOM     29  CAB BK5 d   1      -8.118 -40.619   4.614  0.00  0.00    -0.056 C 
ATOM     30  H   BK5 d   1      -8.327 -41.430   3.917  0.00  0.00     0.030 H 
ATOM     31  H   BK5 d   1      -7.047 -40.416   4.627  0.00  0.00     0.030 H 
ATOM     32  H   BK5 d   1      -8.447 -40.903   5.614  0.00  0.00     0.030 H 
ENDBRANCH  27  29
BRANCH  27  33
ATOM     33  CAC BK5 d   1      -8.435 -38.918   2.756  0.00  0.00    -0.056 C 
ATOM     34  H   BK5 d   1      -7.366 -38.705   2.757  0.00  0.00     0.030 H 
ATOM     35  H   BK5 d   1      -8.646 -39.719   2.047  0.00  0.00     0.030 H 
ATOM     36  H   BK5 d   1      -8.985 -38.022   2.469  0.00  0.00     0.030 H 
ENDBRANCH  27  33
ENDBRANCH  22  27
BRANCH  20  37
ATOM     37  NAD BK5 d   1      -9.320 -34.663   7.864  0.00  0.00    -0.383 N 
ATOM     38  H   BK5 d   1      -8.327 -34.659   8.099  0.00  0.00     0.157 HD
ATOM     39  H   BK5 d   1      -9.944 -33.967   8.273  0.00  0.00     0.157 HD
ENDBRANCH  20  37
ENDBRANCH   8  17
BRANCH   7  40
ATOM     40  OAP BK5 d   1      -2.225 -34.406  11.363  0.00  0.00    -0.351 OA
BRANCH  40  41
ATOM     41  CAL BK5 d   1      -1.235 -35.388  11.742  0.00  0.00     0.023 C 
ATOM     42  H   BK5 d   1      -1.631 -36.011  12.544  0.00  0.00     0.074 H 
ATOM     43  H   BK5 d   1      -0.994 -36.011  10.881  0.00  0.00     0.074 H 
BRANCH  41  44
ATOM     44  CAA BK5 d   1       0.036 -34.675  12.229  0.00  0.00    -0.056 C 
ATOM     45  H   BK5 d   1       0.431 -34.051  11.427  0.00  0.00     0.030 H 
ATOM     46  H   BK5 d   1      -0.206 -34.052  13.090  0.00  0.00     0.030 H 
ATOM     47  H   BK5 d   1       0.781 -35.418  12.514  0.00  0.00     0.030 H 
ENDBRANCH  41  44
ENDBRANCH  40  41
ENDBRANCH   7  40
TORSDOF 8
