REMARK  3 active torsions:
REMARK  status: ('A' for Active; 'I' for Inactive)
REMARK    1  A    between atoms: CAP_6  and  CAH_7 
REMARK    2  A    between atoms: CAH_7  and  NAQ_8 
REMARK    3  A    between atoms: C6_16  and  NAA_17 
ROOT
ATOM      1  CAF B5A d   1      -8.794 -41.178   2.913  0.00  0.00    -0.038 C 
ATOM      2  CAD B5A d   1      -8.529 -41.096   1.397  0.00  0.00     0.082 C 
ATOM      3  NAL B5A d   1      -7.071 -41.077   1.153  0.00  0.00    -0.075 N 
ATOM      4  CAE B5A d   1      -6.438 -39.891   1.770  0.00  0.00     0.082 C 
ATOM      5  CAG B5A d   1      -6.637 -39.901   3.296  0.00  0.00    -0.038 C 
ATOM      6  CAP B5A d   1      -8.137 -39.998   3.658  0.00  0.00    -0.034 C 
ATOM      7  H1  B5A d   1      -8.380 -42.121   3.299  0.00  0.00     0.036 H 
ATOM      8  H2  B5A d   1      -9.880 -41.154   3.090  0.00  0.00     0.036 H 
ATOM      9  H3  B5A d   1      -8.980 -40.177   0.995  0.00  0.00     0.075 H 
ATOM     10  H4  B5A d   1      -8.973 -41.971   0.899  0.00  0.00     0.075 H 
ATOM     11  H5  B5A d   1      -6.905 -41.058   0.159  0.00  0.00     0.277 HD
ATOM     12  H6  B5A d   1      -6.661 -41.910   1.546  0.00  0.00     0.277 HD
ATOM     13  H7  B5A d   1      -6.893 -38.981   1.353  0.00  0.00     0.075 H 
ATOM     14  H8  B5A d   1      -5.361 -39.899   1.546  0.00  0.00     0.075 H 
ATOM     15  H9  B5A d   1      -6.224 -38.973   3.719  0.00  0.00     0.036 H 
ATOM     16  H10 B5A d   1      -6.107 -40.766   3.722  0.00  0.00     0.036 H 
ATOM     17  H11 B5A d   1      -8.630 -39.069   3.335  0.00  0.00     0.042 H 
ENDROOT
BRANCH   6  18
ATOM     18  CAH B5A d   1      -8.326 -40.138   5.178  0.00  0.00     0.022 C 
ATOM     19  H12 B5A d   1      -7.489 -40.721   5.588  0.00  0.00     0.068 H 
ATOM     20  H13 B5A d   1      -9.271 -40.667   5.371  0.00  0.00     0.068 H 
BRANCH  18  21
ATOM     21  NAQ B5A d   1      -8.368 -38.823   5.854  0.00  0.00    -0.251 N 
ATOM     22  NAK B5A d   1      -7.375 -38.265   6.323  0.00  0.00    -0.182 NA
ATOM     23  CAC B5A d   1      -7.719 -37.101   6.877  0.00  0.00     0.039 A 
ATOM     24  C5  B5A d   1      -9.031 -36.950   6.714  0.00  0.00     0.076 A 
ATOM     25  H14 B5A d   1      -7.048 -36.401   7.373  0.00  0.00     0.119 H 
ATOM     26  C4  B5A d   1      -9.462 -38.085   6.038  0.00  0.00     0.162 A 
ATOM     27  C6  B5A d   1      -9.965 -35.960   7.048  0.00  0.00     0.138 A 
ATOM     28  N3  B5A d   1     -10.768 -38.212   5.715  0.00  0.00    -0.222 NA
ATOM     29  C2  B5A d   1     -11.634 -37.256   6.054  0.00  0.00     0.091 A 
ATOM     30  N1  B5A d   1     -11.258 -36.152   6.701  0.00  0.00    -0.224 NA
ATOM     31  H15 B5A d   1     -12.679 -37.380   5.795  0.00  0.00     0.146 H 
BRANCH  27  32
ATOM     32  NAA B5A d   1      -9.592 -34.845   7.689  0.00  0.00    -0.383 N 
ATOM     33  H16 B5A d   1     -10.293 -34.128   7.926  0.00  0.00     0.157 HD
ATOM     34  H17 B5A d   1      -8.604 -34.704   7.945  0.00  0.00     0.157 HD
ENDBRANCH  27  32
ENDBRANCH  18  21
ENDBRANCH   6  18
TORSDOF 3
