REMARK WARNING: 32 MAX_TORS EXCEEDED!!!
REMARK  40 active torsions:
REMARK  status: ('A' for Active; 'I' for Inactive)
REMARK    1  A    between atoms: C_2  and  O2_3 
REMARK       I    between atoms: N_8  and  C_2 
REMARK    2  A    between atoms: O2_3  and  CT_4 
REMARK    3  A    between atoms: CT_4  and  C1_5 
REMARK    4  A    between atoms: CT_4  and  C2_6 
REMARK    5  A    between atoms: CT_4  and  C3_7 
REMARK    6  A    between atoms: CA_9  and  N_8 
REMARK    7  A    between atoms: C_10  and  CA_9 
REMARK    8  A    between atoms: CA_9  and  CB_12 
REMARK       I    between atoms: N_24  and  C_10 
REMARK    9  A    between atoms: CB_12  and  CG1_13 
REMARK   10  A    between atoms: CB_12  and  CG2_14 
REMARK   11  A    between atoms: N_24  and  C1_15 
REMARK       I    between atoms: CD_21  and  NE2_16 
REMARK   12  A    between atoms: CB_20  and  CG_19 
REMARK   13  A    between atoms: CG_19  and  CD_21 
REMARK   14  A    between atoms: CA_23  and  CB_20 
REMARK   15  A    between atoms: C_22  and  CA_23 
REMARK       I    between atoms: N_25  and  C_22 
REMARK   16  A    between atoms: CA_23  and  N_24 
REMARK   17  A    between atoms: CA_26  and  N_25 
REMARK   18  A    between atoms: CA_26  and  CB_27 
REMARK   19  A    between atoms: CH_34  and  CA_26 
REMARK   20  A    between atoms: CB_27  and  CG_28 
REMARK   21  A    between atoms: CH_34  and  OH_35 
REMARK   22  A    between atoms: CM_36  and  CH_34 
REMARK   23  A    between atoms: C_37  and  CM_36 
REMARK       I    between atoms: N_39  and  C_37 
REMARK   24  A    between atoms: CA_40  and  N_39 
REMARK   25  A    between atoms: C_41  and  CA_40 
REMARK   26  A    between atoms: CA_40  and  CB_43 
REMARK       I    between atoms: N_47  and  C_41 
REMARK   27  A    between atoms: CB_43  and  CG_44 
REMARK   28  A    between atoms: CG_44  and  CD1_45 
REMARK   29  A    between atoms: CG_44  and  CD2_46 
REMARK   30  A    between atoms: CA_48  and  N_47 
REMARK   31  A    between atoms: C_49  and  CA_48 
REMARK   32  A    between atoms: CA_48  and  CB_51 
REMARK       I    between atoms: N_52  and  C_49 
REMARK   33  A    between atoms: CA_53  and  N_52 
REMARK   34  A    between atoms: N_52  and  C10_63 
REMARK   35  A    between atoms: C_54  and  CA_53 
REMARK   36  A    between atoms: CA_53  and  CB_56 
REMARK       I    between atoms: N_72  and  C_54 
REMARK   37  A    between atoms: CB_56  and  CG_57 
REMARK   38  A    between atoms: OXT_69  and  CM_64 
REMARK   39  A    between atoms: C_70  and  OXT_69 
REMARK   40  A    between atoms: C_70  and  CA_71 
ROOT
ATOM      1  CM  PSA d   1     -23.022 -26.588   1.968  0.00  0.00     0.035 C 
ATOM      2  H   PSA d   1     -23.521 -25.755   1.474  0.00  0.00     0.051 H 
ATOM      3  H   PSA d   1     -23.695 -26.976   2.732  0.00  0.00     0.051 H 
ENDROOT
BRANCH   1   4
ATOM      4  CH  PSA d   1     -21.693 -26.112   2.614  0.00  0.00     0.063 C 
ATOM      5  H   PSA d   1     -21.147 -27.050   2.515  0.00  0.00     0.086 H 
BRANCH   4   6
ATOM      6  CA  PSA d   1     -20.774 -25.208   1.784  0.00  0.00     0.041 C 
ATOM      7  H   PSA d   1     -20.664 -25.606   0.775  0.00  0.00     0.076 H 
BRANCH   6   8
ATOM      8  N   PSA d   1     -21.403 -23.863   1.769  0.00  0.00    -0.352 N 
ATOM      9  C   GNC d   1     -22.076 -23.341   0.560  0.00  0.00     0.241 C 
ATOM     10  O   GNC d   1     -22.120 -23.986  -0.485  0.00  0.00    -0.271 OA
ATOM     11  H   PSA d   1     -21.370 -23.287   2.610  0.00  0.00     0.163 HD
BRANCH   9  12
ATOM     12  CA  GNC d   1     -22.695 -21.939   0.689  0.00  0.00     0.091 C 
ATOM     13  H   GNC d   1     -23.289 -21.902   1.602  0.00  0.00     0.087 H 
BRANCH  12  14
ATOM     14  CB  GNC d   1     -23.608 -21.653  -0.489  0.00  0.00    -0.030 C 
ATOM     15  H   GNC d   1     -23.012 -21.347  -1.349  0.00  0.00     0.037 H 
ATOM     16  H   GNC d   1     -24.169 -22.552  -0.744  0.00  0.00     0.037 H 
BRANCH  14  17
ATOM     17  CG  GNC d   1     -24.551 -20.563  -0.122  0.00  0.00     0.011 C 
ATOM     18  H   GNC d   1     -24.024 -19.651   0.160  0.00  0.00     0.047 H 
ATOM     19  H   GNC d   1     -25.150 -20.824   0.750  0.00  0.00     0.047 H 
BRANCH  17  20
ATOM     20  CD  GNC d   1     -25.391 -20.362  -1.324  0.00  0.00     0.215 C 
ATOM     21  NE2 GNC d   1     -24.909 -19.586  -2.407  0.00  0.00    -0.370 N 
ATOM     22  H   GNC d   1     -25.480 -19.469  -3.244  0.00  0.00     0.159 HD
ATOM     23  H   GNC d   1     -23.991 -19.144  -2.349  0.00  0.00     0.159 HD
ATOM     24  OE1 GNC d   1     -26.474 -20.892  -1.375  0.00  0.00    -0.274 OA
ENDBRANCH  17  20
ENDBRANCH  14  17
ENDBRANCH  12  14
BRANCH  12  25
ATOM     25  N   GNC d   1     -21.642 -20.929   0.775  0.00  0.00    -0.341 N 
ATOM     26  C   VAL d   1     -21.769 -19.797   1.712  0.00  0.00     0.243 C 
ATOM     27  O   VAL d   1     -22.746 -19.691   2.442  0.00  0.00    -0.271 OA
BRANCH  26  28
ATOM     28  CA  VAL d   1     -20.652 -18.739   1.815  0.00  0.00     0.094 C 
ATOM     29  H   VAL d   1     -20.265 -18.458   0.835  0.00  0.00     0.088 H 
BRANCH  28  30
ATOM     30  N   VAL d   1     -21.153 -17.503   2.377  0.00  0.00    -0.323 N 
ATOM     31  C   BOC d   1     -21.875 -16.622   1.437  0.00  0.00     0.362 C 
ATOM     32  O1  BOC d   1     -21.839 -15.418   1.673  0.00  0.00    -0.238 OA
ATOM     33  H   VAL d   1     -21.017 -17.257   3.357  0.00  0.00     0.165 HD
BRANCH  31  34
ATOM     34  O2  BOC d   1     -22.931 -17.124   0.660  0.00  0.00    -0.294 OA
BRANCH  34  35
ATOM     35  CT  BOC d   1     -24.105 -16.339   0.422  0.00  0.00     0.061 C 
BRANCH  35  36
ATOM     36  C1  BOC d   1     -23.757 -15.163  -0.474  0.00  0.00    -0.048 C 
ATOM     37  H   BOC d   1     -24.655 -14.577  -0.667  0.00  0.00     0.031 H 
ATOM     38  H   BOC d   1     -23.014 -14.538   0.021  0.00  0.00     0.031 H 
ATOM     39  H   BOC d   1     -23.353 -15.533  -1.417  0.00  0.00     0.031 H 
ENDBRANCH  35  36
BRANCH  35  40
ATOM     40  C2  BOC d   1     -25.166 -17.146  -0.248  0.00  0.00    -0.048 C 
ATOM     41  H   BOC d   1     -25.437 -17.988   0.389  0.00  0.00     0.031 H 
ATOM     42  H   BOC d   1     -26.042 -16.521  -0.419  0.00  0.00     0.031 H 
ATOM     43  H   BOC d   1     -24.791 -17.517  -1.202  0.00  0.00     0.031 H 
ENDBRANCH  35  40
BRANCH  35  44
ATOM     44  C3  BOC d   1     -24.669 -15.845   1.740  0.00  0.00    -0.048 C 
ATOM     45  H   BOC d   1     -25.550 -15.232   1.550  0.00  0.00     0.031 H 
ATOM     46  H   BOC d   1     -24.945 -16.699   2.358  0.00  0.00     0.031 H 
ATOM     47  H   BOC d   1     -23.916 -15.250   2.256  0.00  0.00     0.031 H 
ENDBRANCH  35  44
ENDBRANCH  34  35
ENDBRANCH  31  34
ENDBRANCH  28  30
BRANCH  28  48
ATOM     48  CB  VAL d   1     -19.532 -19.378   2.650  0.00  0.00    -0.033 C 
ATOM     49  H   VAL d   1     -19.401 -20.412   2.330  0.00  0.00     0.042 H 
BRANCH  48  50
ATOM     50  CG1 VAL d   1     -18.230 -18.628   2.448  0.00  0.00    -0.071 C 
ATOM     51  H   VAL d   1     -17.952 -18.662   1.395  0.00  0.00     0.028 H 
ATOM     52  H   VAL d   1     -18.358 -17.591   2.758  0.00  0.00     0.028 H 
ATOM     53  H   VAL d   1     -17.447 -19.094   3.047  0.00  0.00     0.028 H 
ENDBRANCH  48  50
BRANCH  48  54
ATOM     54  CG2 VAL d   1     -19.915 -19.331   4.142  0.00  0.00    -0.071 C 
ATOM     55  H   VAL d   1     -20.052 -18.294   4.448  0.00  0.00     0.028 H 
ATOM     56  H   VAL d   1     -20.843 -19.882   4.295  0.00  0.00     0.028 H 
ATOM     57  H   VAL d   1     -19.120 -19.784   4.734  0.00  0.00     0.028 H 
ENDBRANCH  48  54
ENDBRANCH  28  48
ENDBRANCH  26  28
BRANCH  25  58
ATOM     58  C1  GNC d   1     -20.506 -21.095  -0.104  0.00  0.00    -0.015 C 
ATOM     59  H   GNC d   1     -20.431 -20.232  -0.765  0.00  0.00     0.056 H 
ATOM     60  H   GNC d   1     -19.597 -21.178   0.491  0.00  0.00     0.056 H 
ATOM     61  H   GNC d   1     -20.637 -21.999  -0.698  0.00  0.00     0.056 H 
ENDBRANCH  25  58
ENDBRANCH  12  25
ENDBRANCH   9  12
ENDBRANCH   6   8
BRANCH   6  62
ATOM     62  CB  PSA d   1     -19.364 -25.141   2.366  0.00  0.00    -0.020 C 
ATOM     63  H   PSA d   1     -18.888 -26.118   2.283  0.00  0.00     0.043 H 
ATOM     64  H   PSA d   1     -19.416 -24.854   3.416  0.00  0.00     0.043 H 
BRANCH  62  65
ATOM     65  CG  PSA d   1     -18.532 -24.087   1.578  0.00  0.00    -0.056 A 
ATOM     66  CD1 PSA d   1     -18.501 -24.087   0.078  0.00  0.00    -0.077 A 
ATOM     67  CE1 PSA d   1     -17.696 -23.067  -0.682  0.00  0.00    -0.082 A 
ATOM     68  H   PSA d   1     -19.070 -24.837  -0.470  0.00  0.00     0.084 H 
ATOM     69  CZ  PSA d   1     -16.902 -22.033   0.067  0.00  0.00    -0.083 A 
ATOM     70  H   PSA d   1     -17.689 -23.078  -1.772  0.00  0.00     0.083 H 
ATOM     71  CE2 PSA d   1     -16.922 -22.027   1.565  0.00  0.00    -0.082 A 
ATOM     72  H   PSA d   1     -16.315 -21.292  -0.476  0.00  0.00     0.083 H 
ATOM     73  CD2 PSA d   1     -17.741 -23.043   2.328  0.00  0.00    -0.077 A 
ATOM     74  H   PSA d   1     -16.341 -21.283   2.110  0.00  0.00     0.083 H 
ATOM     75  H   PSA d   1     -17.760 -23.022   3.418  0.00  0.00     0.084 H 
ENDBRANCH  62  65
ENDBRANCH   6  62
ENDBRANCH   4   6
BRANCH   4  76
ATOM     76  OH  PSA d   1     -21.630 -26.002   3.988  0.00  0.00    -0.393 OA
ATOM     77  H   PSA d   1     -20.740 -26.207   4.284  0.00  0.00     0.210 HD
ENDBRANCH   4  76
ENDBRANCH   1   4
BRANCH   1  78
ATOM     78  C   PSA d   1     -22.684 -27.687   0.948  0.00  0.00     0.220 C 
ATOM     79  O   PSA d   1     -22.497 -27.429  -0.233  0.00  0.00    -0.274 OA
ATOM     80  N   LEU d   1     -22.563 -29.072   1.419  0.00  0.00    -0.348 N 
ATOM     81  H   LEU d   1     -22.714 -29.284   2.405  0.00  0.00     0.163 HD
BRANCH  80  82
ATOM     82  CA  LEU d   1     -22.225 -30.164   0.479  0.00  0.00     0.089 C 
ATOM     83  H   LEU d   1     -21.331 -29.909  -0.091  0.00  0.00     0.087 H 
BRANCH  82  84
ATOM     84  C   LEU d   1     -23.350 -30.362  -0.550  0.00  0.00     0.241 C 
ATOM     85  O   LEU d   1     -24.482 -30.617  -0.161  0.00  0.00    -0.271 OA
ATOM     86  N   ALA d   1     -23.065 -30.265  -1.983  0.00  0.00    -0.346 N 
ATOM     87  H   ALA d   1     -22.122 -30.033  -2.297  0.00  0.00     0.163 HD
BRANCH  86  88
ATOM     88  CA  ALA d   1     -24.127 -30.499  -2.974  0.00  0.00     0.086 C 
ATOM     89  H   ALA d   1     -25.085 -30.162  -2.578  0.00  0.00     0.086 H 
BRANCH  88  90
ATOM     90  C   ALA d   1     -24.045 -31.985  -3.275  0.00  0.00     0.242 C 
ATOM     91  O   ALA d   1     -22.940 -32.484  -3.457  0.00  0.00    -0.271 OA
ATOM     92  N   ZAE d   1     -25.229 -32.870  -3.334  0.00  0.00    -0.341 N 
BRANCH  92  93
ATOM     93  CA  ZAE d   1     -24.982 -34.302  -3.617  0.00  0.00     0.095 C 
ATOM     94  H   ZAE d   1     -23.917 -34.491  -3.749  0.00  0.00     0.088 H 
BRANCH  93  95
ATOM     95  C   ZAE d   1     -25.313 -35.197  -2.386  0.00  0.00     0.243 C 
ATOM     96  O   ZAE d   1     -26.474 -35.493  -2.084  0.00  0.00    -0.271 OA
ATOM     97  N   PDW d   1     -24.157 -35.663  -1.546  0.00  0.00    -0.336 N 
ATOM     98  CD  PDW d   1     -22.792 -35.300  -1.879  0.00  0.00    -0.001 C 
ATOM     99  CA  PDW d   1     -24.127 -36.469  -0.332  0.00  0.00     0.098 C 
ATOM    100  CG  PDW d   1     -21.907 -36.317  -1.209  0.00  0.00    -0.048 C 
ATOM    101  H   PDW d   1     -22.640 -35.299  -2.958  0.00  0.00     0.064 H 
ATOM    102  H   PDW d   1     -22.560 -34.292  -1.535  0.00  0.00     0.064 H 
ATOM    103  CB  PDW d   1     -22.703 -36.772  -0.030  0.00  0.00    -0.036 C 
ATOM    104  H   PDW d   1     -21.649 -37.141  -1.875  0.00  0.00     0.035 H 
ATOM    105  H   PDW d   1     -20.944 -35.898  -0.919  0.00  0.00     0.035 H 
ATOM    106  H   PDW d   1     -22.381 -36.260   0.877  0.00  0.00     0.036 H 
ATOM    107  H   PDW d   1     -22.562 -37.839   0.145  0.00  0.00     0.036 H 
ATOM    108  H   PDW d   1     -24.677 -35.855   0.382  0.00  0.00     0.088 H 
BRANCH  99 109
ATOM    109  C   PDW d   1     -24.805 -37.816  -0.336  0.00  0.00     0.281 C 
ATOM    110  O   PDW d   1     -24.062 -38.805  -0.441  0.00  0.00    -0.263 OA
BRANCH 109 111
ATOM    111  OXT PDW d   1     -25.938 -37.956   0.457  0.00  0.00    -0.325 OA
BRANCH 111 112
ATOM    112  CM  PDW d   1     -26.083 -39.118   1.246  0.00  0.00     0.013 C 
ATOM    113  H   PDW d   1     -26.091 -39.996   0.600  0.00  0.00     0.067 H 
ATOM    114  H   PDW d   1     -25.249 -39.187   1.945  0.00  0.00     0.067 H 
ATOM    115  H   PDW d   1     -27.020 -39.065   1.800  0.00  0.00     0.067 H 
ENDBRANCH 111 112
ENDBRANCH 109 111
ENDBRANCH  99 109
ENDBRANCH  93  95
BRANCH  93 116
ATOM    116  CB  ZAE d   1     -25.566 -34.693  -4.964  0.00  0.00    -0.014 C 
ATOM    117  H   ZAE d   1     -26.559 -34.263  -5.096  0.00  0.00     0.043 H 
ATOM    118  H   ZAE d   1     -25.680 -35.775  -5.039  0.00  0.00     0.043 H 
BRANCH 116 119
ATOM    119  CG  ZAE d   1     -24.596 -34.169  -6.036  0.00  0.00    -0.056 A 
ATOM    120  CD1 ZAE d   1     -23.703 -35.124  -6.804  0.00  0.00    -0.077 A 
ATOM    121  CE1 ZAE d   1     -22.739 -34.617  -7.856  0.00  0.00    -0.082 A 
ATOM    122  H   ZAE d   1     -23.756 -36.193  -6.596  0.00  0.00     0.084 H 
ATOM    123  CZ  ZAE d   1     -22.655 -33.147  -8.142  0.00  0.00    -0.083 A 
ATOM    124  H   ZAE d   1     -22.108 -35.318  -8.403  0.00  0.00     0.083 H 
ATOM    125  CE2 ZAE d   1     -23.535 -32.184  -7.387  0.00  0.00    -0.082 A 
ATOM    126  H   ZAE d   1     -21.959 -32.776  -8.894  0.00  0.00     0.083 H 
ATOM    127  CD2 ZAE d   1     -24.498 -32.698  -6.339  0.00  0.00    -0.077 A 
ATOM    128  H   ZAE d   1     -23.478 -31.116  -7.596  0.00  0.00     0.083 H 
ATOM    129  H   ZAE d   1     -25.129 -31.994  -5.796  0.00  0.00     0.084 H 
ENDBRANCH 116 119
ENDBRANCH  93 116
ENDBRANCH  92  93
BRANCH  92 130
ATOM    130  C10 ZAE d   1     -26.570 -32.364  -3.116  0.00  0.00    -0.015 C 
ATOM    131  H   ZAE d   1     -26.635 -31.930  -2.118  0.00  0.00     0.056 H 
ATOM    132  H   ZAE d   1     -26.795 -31.601  -3.861  0.00  0.00     0.056 H 
ATOM    133  H   ZAE d   1     -27.285 -33.182  -3.205  0.00  0.00     0.056 H 
ENDBRANCH  92 130
ENDBRANCH  88  90
BRANCH  88 134
ATOM    134  CB  ALA d   1     -23.910 -29.760  -4.250  0.00  0.00    -0.049 C 
ATOM    135  H   ALA d   1     -23.877 -28.689  -4.047  0.00  0.00     0.030 H 
ATOM    136  H   ALA d   1     -22.967 -30.076  -4.696  0.00  0.00     0.030 H 
ATOM    137  H   ALA d   1     -24.728 -29.976  -4.937  0.00  0.00     0.030 H 
ENDBRANCH  88 134
ENDBRANCH  86  88
ENDBRANCH  82  84
BRANCH  82 138
ATOM    138  CB  LEU d   1     -21.937 -31.425   1.278  0.00  0.00    -0.035 C 
ATOM    139  H   LEU d   1     -22.819 -31.671   1.870  0.00  0.00     0.037 H 
ATOM    140  H   LEU d   1     -21.073 -31.243   1.916  0.00  0.00     0.037 H 
BRANCH 138 141
ATOM    141  CG  LEU d   1     -21.621 -32.612   0.350  0.00  0.00    -0.059 C 
ATOM    142  H   LEU d   1     -22.339 -32.681  -0.468  0.00  0.00     0.038 H 
BRANCH 141 143
ATOM    143  CD1 LEU d   1     -20.228 -32.433  -0.207  0.00  0.00    -0.073 C 
ATOM    144  H   LEU d   1     -20.180 -31.500  -0.768  0.00  0.00     0.028 H 
ATOM    145  H   LEU d   1     -19.511 -32.402   0.614  0.00  0.00     0.028 H 
ATOM    146  H   LEU d   1     -19.992 -33.268  -0.867  0.00  0.00     0.028 H 
ENDBRANCH 141 143
BRANCH 141 147
ATOM    147  CD2 LEU d   1     -21.637 -33.876   1.228  0.00  0.00    -0.073 C 
ATOM    148  H   LEU d   1     -20.884 -33.783   2.010  0.00  0.00     0.028 H 
ATOM    149  H   LEU d   1     -22.622 -33.989   1.682  0.00  0.00     0.028 H 
ATOM    150  H   LEU d   1     -21.417 -34.748   0.612  0.00  0.00     0.028 H 
ENDBRANCH 141 147
ENDBRANCH 138 141
ENDBRANCH  82 138
ENDBRANCH  80  82
ENDBRANCH   1  78
TORSDOF 40
