REMARK WARNING: 32 MAX_TORS EXCEEDED!!!
REMARK  33 active torsions:
REMARK  status: ('A' for Active; 'I' for Inactive)
REMARK    1  A    between atoms: CCL_9  and  CAE_1 
REMARK    2  A    between atoms: NBR_7  and  CCL_9 
REMARK       I    between atoms: CBX_19  and  NBR_7 
REMARK    3  A    between atoms: CCL_9  and  CCI_8 
REMARK    4  A    between atoms: NCS_24  and  CAG_10 
REMARK    5  A    between atoms: SCU_25  and  CAH_11 
REMARK    6  A    between atoms: CCF_21  and  CBX_19 
REMARK    7  A    between atoms: CBY_20  and  CCG_22 
REMARK       I    between atoms: N_26  and  CBY_20 
REMARK    8  A    between atoms: CCI_23  and  NCS_24 
REMARK    9  A    between atoms: NCS_24  and  SCU_25 
REMARK   10  A    between atoms: CA_27  and  N_26 
REMARK   11  A    between atoms: CA_27  and  CB_28 
REMARK   12  A    between atoms: CH_35  and  CA_27 
REMARK   13  A    between atoms: CB_28  and  CG_29 
REMARK   14  A    between atoms: CH_35  and  OH_36 
REMARK   15  A    between atoms: CM_37  and  CH_35 
REMARK   16  A    between atoms: C_38  and  CM_37 
REMARK       I    between atoms: N_40  and  C_38 
REMARK   17  A    between atoms: CA_41  and  N_40 
REMARK   18  A    between atoms: C_42  and  CA_41 
REMARK   19  A    between atoms: CA_41  and  CB_44 
REMARK       I    between atoms: N_48  and  C_42 
REMARK   20  A    between atoms: CB_44  and  CG_45 
REMARK   21  A    between atoms: CG_45  and  CD1_46 
REMARK   22  A    between atoms: CG_45  and  CD2_47 
REMARK   23  A    between atoms: CA_49  and  N_48 
REMARK   24  A    between atoms: C_50  and  CA_49 
REMARK   25  A    between atoms: CA_49  and  CB_52 
REMARK       I    between atoms: N_53  and  C_50 
REMARK   26  A    between atoms: CA_54  and  N_53 
REMARK   27  A    between atoms: N_53  and  C10_64 
REMARK   28  A    between atoms: C_55  and  CA_54 
REMARK   29  A    between atoms: CA_54  and  CB_57 
REMARK       I    between atoms: N_73  and  C_55 
REMARK   30  A    between atoms: CB_57  and  CG_58 
REMARK   31  A    between atoms: OXT_70  and  CM_65 
REMARK   32  A    between atoms: C_71  and  OXT_70 
REMARK   33  A    between atoms: C_71  and  CA_72 
ROOT
ATOM      1  C   PSA d   1       2.866  17.010  30.115  0.00  0.00     0.220 C 
ATOM      2  O   PSA d   1       3.098  16.072  29.347  0.00  0.00    -0.274 OA
ATOM      3  N   LEU d   1       1.556  17.099  30.771  0.00  0.00    -0.348 N 
ATOM      4  H   LEU d   1       1.314  17.851  31.416  0.00  0.00     0.163 HD
ENDROOT
BRANCH   1   5
ATOM      5  CM  PSA d   1       3.907  18.105  30.377  0.00  0.00     0.035 C 
ATOM      6  H   PSA d   1       4.538  18.210  29.494  0.00  0.00     0.051 H 
ATOM      7  H   PSA d   1       3.389  19.039  30.593  0.00  0.00     0.051 H 
BRANCH   5   8
ATOM      8  CH  PSA d   1       4.776  17.743  31.559  0.00  0.00     0.063 C 
ATOM      9  H   PSA d   1       4.068  17.508  32.354  0.00  0.00     0.086 H 
BRANCH   8  10
ATOM     10  CA  PSA d   1       5.554  16.429  31.411  0.00  0.00     0.041 C 
ATOM     11  H   PSA d   1       5.004  15.776  30.733  0.00  0.00     0.076 H 
BRANCH  10  12
ATOM     12  N   PSA d   1       6.864  16.766  30.886  0.00  0.00    -0.349 N 
ATOM     13  CBY ZSC d   1       7.127  16.445  29.506  0.00  0.00     0.252 C 
ATOM     14  OAK ZSC d   1       6.334  15.919  28.733  0.00  0.00    -0.268 OA
ATOM     15  H   PSA d   1       7.571  17.212  31.471  0.00  0.00     0.163 HD
BRANCH  13  16
ATOM     16  CCG ZSC d   1       8.524  16.801  29.030  0.00  0.00     0.035 A 
ATOM     17  CBH ZSC d   1       9.638  16.689  30.009  0.00  0.00    -0.052 A 
ATOM     18  CCF ZSC d   1      11.036  17.027  29.522  0.00  0.00     0.035 A 
ATOM     19  H   ZSC d   1       9.458  16.376  31.037  0.00  0.00     0.086 H 
ATOM     20  CBI ZSC d   1      11.274  17.498  28.126  0.00  0.00    -0.041 A 
ATOM     21  CCI ZSC d   1      10.108  17.596  27.178  0.00  0.00     0.046 A 
ATOM     22  H   ZSC d   1      12.278  17.767  27.797  0.00  0.00     0.088 H 
ATOM     23  CBJ ZSC d   1       8.711  17.251  27.618  0.00  0.00    -0.041 A 
ATOM     24  H   ZSC d   1       7.867  17.327  26.932  0.00  0.00     0.088 H 
BRANCH  18  25
ATOM     25  CBX ZSC d   1      12.182  16.945  30.474  0.00  0.00     0.252 C 
ATOM     26  NBR QSC d   1      11.949  17.477  31.778  0.00  0.00    -0.349 N 
ATOM     27  H   QSC d   1      11.040  17.857  32.041  0.00  0.00     0.163 HD
ATOM     28  OAJ ZSC d   1      13.271  16.473  30.153  0.00  0.00    -0.268 OA
BRANCH  26  29
ATOM     29  CCL QSC d   1      13.045  17.455  32.703  0.00  0.00     0.034 C 
ATOM     30  H   QSC d   1      13.880  16.932  32.237  0.00  0.00     0.079 H 
BRANCH  29  31
ATOM     31  CAE QSC d   1      12.657  16.742  33.966  0.00  0.00    -0.053 C 
ATOM     32  H   QSC d   1      11.815  17.257  34.428  0.00  0.00     0.030 H 
ATOM     33  H   QSC d   1      12.373  15.716  33.730  0.00  0.00     0.030 H 
ATOM     34  H   QSC d   1      13.503  16.737  34.653  0.00  0.00     0.030 H 
ENDBRANCH  29  31
BRANCH  29  35
ATOM     35  CCI QSC d   1      13.436  18.880  33.053  0.00  0.00    -0.036 A 
ATOM     36  CBE QSC d   1      14.868  19.277  32.994  0.00  0.00    -0.075 A 
ATOM     37  CAY QSC d   1      15.252  20.676  33.341  0.00  0.00    -0.082 A 
ATOM     38  H   QSC d   1      15.629  18.554  32.700  0.00  0.00     0.084 H 
ATOM     39  CAT QSC d   1      14.188  21.670  33.730  0.00  0.00    -0.083 A 
ATOM     40  H   QSC d   1      16.299  20.979  33.313  0.00  0.00     0.083 H 
ATOM     41  CAZ QSC d   1      12.761  21.274  33.772  0.00  0.00    -0.082 A 
ATOM     42  H   QSC d   1      14.472  22.692  33.983  0.00  0.00     0.083 H 
ATOM     43  CBF QSC d   1      12.374  19.867  33.425  0.00  0.00    -0.075 A 
ATOM     44  H   QSC d   1      11.998  22.000  34.053  0.00  0.00     0.083 H 
ATOM     45  H   QSC d   1      11.327  19.565  33.444  0.00  0.00     0.084 H 
ENDBRANCH  29  35
ENDBRANCH  26  29
ENDBRANCH  18  25
BRANCH  21  46
ATOM     46  NCS ZSC d   1      10.322  18.038  25.800  0.00  0.00    -0.281 N 
BRANCH  46  47
ATOM     47  CAG ZSC d   1       9.551  17.510  24.754  0.00  0.00    -0.004 C 
ATOM     48  H   ZSC d   1       9.697  16.431  24.705  0.00  0.00     0.058 H 
ATOM     49  H   ZSC d   1       8.498  17.727  24.935  0.00  0.00     0.058 H 
ATOM     50  H   ZSC d   1       9.860  17.963  23.812  0.00  0.00     0.058 H 
ENDBRANCH  46  47
BRANCH  46  51
ATOM     51  SCU ZSC d   1      11.420  19.156  25.506  0.00  0.00     0.228 S 
ATOM     52  OAP ZSC d   1      10.913  19.873  24.334  0.00  0.00    -0.206 OA
ATOM     53  OAQ ZSC d   1      11.477  20.073  26.646  0.00  0.00    -0.206 OA
BRANCH  51  54
ATOM     54  CAH ZSC d   1      13.028  18.442  25.266  0.00  0.00     0.033 C 
ATOM     55  H   ZSC d   1      12.989  17.730  24.441  0.00  0.00     0.051 H 
ATOM     56  H   ZSC d   1      13.743  19.231  25.033  0.00  0.00     0.051 H 
ATOM     57  H   ZSC d   1      13.336  17.928  26.177  0.00  0.00     0.051 H 
ENDBRANCH  51  54
ENDBRANCH  46  51
ENDBRANCH  21  46
ENDBRANCH  13  16
ENDBRANCH  10  12
BRANCH  10  58
ATOM     58  CB  PSA d   1       5.667  15.622  32.695  0.00  0.00    -0.020 C 
ATOM     59  H   PSA d   1       4.923  14.826  32.676  0.00  0.00     0.043 H 
ATOM     60  H   PSA d   1       5.502  16.286  33.543  0.00  0.00     0.043 H 
BRANCH  58  61
ATOM     61  CG  PSA d   1       7.067  14.991  32.823  0.00  0.00    -0.056 A 
ATOM     62  CD1 PSA d   1       7.546  13.973  31.833  0.00  0.00    -0.077 A 
ATOM     63  CE1 PSA d   1       8.920  13.373  31.978  0.00  0.00    -0.082 A 
ATOM     64  H   PSA d   1       6.901  13.667  31.009  0.00  0.00     0.084 H 
ATOM     65  CZ  PSA d   1       9.827  13.768  33.099  0.00  0.00    -0.083 A 
ATOM     66  H   PSA d   1       9.260  12.636  31.251  0.00  0.00     0.083 H 
ATOM     67  CE2 PSA d   1       9.361  14.778  34.085  0.00  0.00    -0.082 A 
ATOM     68  H   PSA d   1      10.817  13.321  33.192  0.00  0.00     0.083 H 
ATOM     69  CD2 PSA d   1       7.985  15.389  33.952  0.00  0.00    -0.077 A 
ATOM     70  H   PSA d   1      10.013  15.079  34.905  0.00  0.00     0.083 H 
ATOM     71  H   PSA d   1       7.652  16.127  34.681  0.00  0.00     0.084 H 
ENDBRANCH  58  61
ENDBRANCH  10  58
ENDBRANCH   8  10
BRANCH   8  72
ATOM     72  OH  PSA d   1       5.497  18.799  32.062  0.00  0.00    -0.393 OA
ATOM     73  H   PSA d   1       4.932  19.573  32.119  0.00  0.00     0.210 HD
ENDBRANCH   8  72
ENDBRANCH   5   8
ENDBRANCH   1   5
BRANCH   3  74
ATOM     74  CA  LEU d   1       0.611  16.009  30.423  0.00  0.00     0.089 C 
ATOM     75  H   LEU d   1       1.029  15.041  30.699  0.00  0.00     0.087 H 
BRANCH  74  76
ATOM     76  C   LEU d   1       0.386  16.076  28.913  0.00  0.00     0.241 C 
ATOM     77  O   LEU d   1       0.516  17.129  28.311  0.00  0.00    -0.271 OA
ATOM     78  N   ALA d   1       0.036  14.888  28.206  0.00  0.00    -0.346 N 
ATOM     79  H   ALA d   1      -0.048  13.998  28.696  0.00  0.00     0.163 HD
BRANCH  78  80
ATOM     80  CA  ALA d   1      -0.198  14.969  26.775  0.00  0.00     0.086 C 
ATOM     81  H   ALA d   1      -0.051  15.998  26.448  0.00  0.00     0.086 H 
BRANCH  80  82
ATOM     82  C   ALA d   1      -1.591  14.544  26.439  0.00  0.00     0.242 C 
ATOM     83  O   ALA d   1      -2.142  13.686  27.099  0.00  0.00    -0.271 OA
ATOM     84  N   ZAE d   1      -2.322  15.120  25.327  0.00  0.00    -0.341 N 
BRANCH  84  85
ATOM     85  CA  ZAE d   1      -3.680  14.583  25.081  0.00  0.00     0.095 C 
ATOM     86  H   ZAE d   1      -3.926  13.941  25.926  0.00  0.00     0.088 H 
BRANCH  85  87
ATOM     87  C   ZAE d   1      -4.725  15.679  25.050  0.00  0.00     0.243 C 
ATOM     88  O   ZAE d   1      -5.282  15.987  24.016  0.00  0.00    -0.271 OA
ATOM     89  N   PLJ d   1      -5.099  16.375  26.254  0.00  0.00    -0.336 N 
ATOM     90  CD  PLJ d   1      -4.590  16.174  27.598  0.00  0.00    -0.001 C 
ATOM     91  CA  PLJ d   1      -6.106  17.416  26.253  0.00  0.00     0.098 C 
ATOM     92  CG  PLJ d   1      -5.643  16.758  28.507  0.00  0.00    -0.048 C 
ATOM     93  H   PLJ d   1      -4.414  15.119  27.809  0.00  0.00     0.064 H 
ATOM     94  H   PLJ d   1      -3.623  16.656  27.739  0.00  0.00     0.064 H 
ATOM     95  CB  PLJ d   1      -6.400  17.747  27.696  0.00  0.00    -0.036 C 
ATOM     96  H   PLJ d   1      -6.303  15.980  28.889  0.00  0.00     0.035 H 
ATOM     97  H   PLJ d   1      -5.188  17.233  29.376  0.00  0.00     0.035 H 
ATOM     98  H   PLJ d   1      -6.099  18.767  27.936  0.00  0.00     0.036 H 
ATOM     99  H   PLJ d   1      -7.469  17.692  27.903  0.00  0.00     0.036 H 
ATOM    100  H   PLJ d   1      -7.020  17.077  25.766  0.00  0.00     0.088 H 
BRANCH  91 101
ATOM    101  C   PLJ d   1      -5.666  18.613  25.446  0.00  0.00     0.281 C 
ATOM    102  O   PLJ d   1      -4.465  18.711  25.188  0.00  0.00    -0.263 OA
BRANCH 101 103
ATOM    103  OXT PLJ d   1      -6.595  19.248  24.621  0.00  0.00    -0.325 OA
BRANCH 103 104
ATOM    104  CM  PLJ d   1      -6.194  20.199  23.684  0.00  0.00     0.013 C 
ATOM    105  H   PLJ d   1      -5.702  21.026  24.196  0.00  0.00     0.067 H 
ATOM    106  H   PLJ d   1      -5.500  19.742  22.979  0.00  0.00     0.067 H 
ATOM    107  H   PLJ d   1      -7.067  20.569  23.148  0.00  0.00     0.067 H 
ENDBRANCH 103 104
ENDBRANCH 101 103
ENDBRANCH  91 101
ENDBRANCH  85  87
BRANCH  85 108
ATOM    108  CB  ZAE d   1      -3.729  13.689  23.814  0.00  0.00    -0.014 C 
ATOM    109  H   ZAE d   1      -3.319  14.258  22.980  0.00  0.00     0.043 H 
ATOM    110  H   ZAE d   1      -4.766  13.399  23.642  0.00  0.00     0.043 H 
BRANCH 108 111
ATOM    111  CG  ZAE d   1      -2.904  12.424  23.975  0.00  0.00    -0.056 A 
ATOM    112  CD1 ZAE d   1      -3.484  11.262  24.703  0.00  0.00    -0.077 A 
ATOM    113  CE1 ZAE d   1      -2.666  10.007  24.865  0.00  0.00    -0.082 A 
ATOM    114  H   ZAE d   1      -4.492  11.319  25.115  0.00  0.00     0.084 H 
ATOM    115  CZ  ZAE d   1      -1.269   9.927  24.279  0.00  0.00    -0.083 A 
ATOM    116  H   ZAE d   1      -3.079   9.155  25.404  0.00  0.00     0.083 H 
ATOM    117  CE2 ZAE d   1      -0.693  11.096  23.548  0.00  0.00    -0.082 A 
ATOM    118  H   ZAE d   1      -0.684   9.014  24.392  0.00  0.00     0.083 H 
ATOM    119  CD2 ZAE d   1      -1.510  12.336  23.397  0.00  0.00    -0.077 A 
ATOM    120  H   ZAE d   1       0.312  11.044  23.130  0.00  0.00     0.083 H 
ATOM    121  H   ZAE d   1      -1.095  13.191  22.862  0.00  0.00     0.084 H 
ENDBRANCH 108 111
ENDBRANCH  85 108
ENDBRANCH  84  85
BRANCH  84 122
ATOM    122  C10 ZAE d   1      -1.744  16.145  24.465  0.00  0.00    -0.015 C 
ATOM    123  H   ZAE d   1      -1.486  17.018  25.064  0.00  0.00     0.056 H 
ATOM    124  H   ZAE d   1      -0.846  15.752  23.987  0.00  0.00     0.056 H 
ATOM    125  H   ZAE d   1      -2.469  16.427  23.702  0.00  0.00     0.056 H 
ENDBRANCH  84 122
ENDBRANCH  80  82
BRANCH  80 126
ATOM    126  CB  ALA d   1       0.743  14.035  26.102  0.00  0.00    -0.049 C 
ATOM    127  H   ALA d   1       1.768  14.325  26.333  0.00  0.00     0.030 H 
ATOM    128  H   ALA d   1       0.562  13.020  26.457  0.00  0.00     0.030 H 
ATOM    129  H   ALA d   1       0.587  14.078  25.024  0.00  0.00     0.030 H 
ENDBRANCH  80 126
ENDBRANCH  78  80
ENDBRANCH  74  76
BRANCH  74 130
ATOM    130  CB  LEU d   1      -0.696  16.117  31.204  0.00  0.00    -0.035 C 
ATOM    131  H   LEU d   1      -1.048  17.148  31.160  0.00  0.00     0.037 H 
ATOM    132  H   LEU d   1      -0.516  15.815  32.236  0.00  0.00     0.037 H 
BRANCH 130 133
ATOM    133  CG  LEU d   1      -1.765  15.203  30.601  0.00  0.00    -0.059 C 
ATOM    134  H   LEU d   1      -1.649  15.114  29.521  0.00  0.00     0.038 H 
BRANCH 133 135
ATOM    135  CD1 LEU d   1      -1.645  13.862  31.248  0.00  0.00    -0.073 C 
ATOM    136  H   LEU d   1      -0.651  13.456  31.058  0.00  0.00     0.028 H 
ATOM    137  H   LEU d   1      -1.798  13.963  32.322  0.00  0.00     0.028 H 
ATOM    138  H   LEU d   1      -2.398  13.191  30.834  0.00  0.00     0.028 H 
ENDBRANCH 133 135
BRANCH 133 139
ATOM    139  CD2 LEU d   1      -3.095  15.781  30.943  0.00  0.00    -0.073 C 
ATOM    140  H   LEU d   1      -3.201  15.828  32.027  0.00  0.00     0.028 H 
ATOM    141  H   LEU d   1      -3.172  16.785  30.525  0.00  0.00     0.028 H 
ATOM    142  H   LEU d   1      -3.881  15.151  30.527  0.00  0.00     0.028 H 
ENDBRANCH 133 139
ENDBRANCH 130 133
ENDBRANCH  74 130
ENDBRANCH   3  74
TORSDOF 33
