REMARK  5 active torsions:
REMARK  status: ('A' for Active; 'I' for Inactive)
REMARK    1  A    between atoms: C58_1  and  C61_2 
REMARK       I    between atoms: C61_2  and  N63_4 
REMARK    2  A    between atoms: N63_4  and  C65_5 
REMARK    3  A    between atoms: C71_8  and  S75_9 
REMARK    4  A    between atoms: C69_16  and  S73_17 
REMARK    5  A    between atoms: C76_22  and  S83_23 
ROOT
ATOM      1  C65 SVR d   1     -48.698  22.673  32.143  0.00  0.00     0.047 A 
ATOM      2  C67 SVR d   1     -47.400  22.739  32.660  0.00  0.00    -0.055 A 
ATOM      3  C70 SVR d   1     -46.698  23.935  32.674  0.00  0.00    -0.056 A 
ATOM      4  C71 SVR d   1     -47.270  25.095  32.156  0.00  0.00     0.091 A 
ATOM      5  C66 SVR d   1     -49.294  23.848  31.600  0.00  0.00     0.027 A 
ATOM      6  C68 SVR d   1     -48.569  25.057  31.621  0.00  0.00     0.004 A 
ATOM      7  C72 SVR d   1     -49.136  26.235  31.105  0.00  0.00    -0.047 A 
ATOM      8  C69 SVR d   1     -50.588  23.899  31.038  0.00  0.00     0.095 A 
ATOM      9  C74 SVR d   1     -51.132  25.068  30.534  0.00  0.00    -0.035 A 
ATOM     10  C76 SVR d   1     -50.424  26.247  30.562  0.00  0.00     0.083 A 
ATOM     11  H5  SVR d   1     -46.936  21.843  33.055  0.00  0.00     0.087 H 
ATOM     12  H6  SVR d   1     -45.698  23.968  33.091  0.00  0.00     0.086 H 
ATOM     13  H7  SVR d   1     -48.562  27.154  31.129  0.00  0.00     0.087 H 
ATOM     14  H8  SVR d   1     -52.130  25.054  30.111  0.00  0.00     0.088 H 
ENDROOT
BRANCH   1  15
ATOM     15  N63 SVR d   1     -49.303  21.459  32.156  0.00  0.00    -0.327 N 
ATOM     16  C61 SVR d   1     -49.254  20.533  33.139  0.00  0.00     0.218 C 
ATOM     17  O64 SVR d   1     -48.686  20.674  34.224  0.00  0.00    -0.274 OA
ATOM     18  H4  SVR d   1     -49.845  21.223  31.349  0.00  0.00     0.169 HD
BRANCH  16  19
ATOM     19  C58 SVR d   1     -50.021  19.232  32.838  0.00  0.00    -0.003 C 
ATOM     20  H1  SVR d   1     -50.458  19.289  31.830  0.00  0.00     0.040 H 
ATOM     21  H2  SVR d   1     -50.824  19.100  33.579  0.00  0.00     0.040 H 
ATOM     22  H3  SVR d   1     -49.330  18.378  32.890  0.00  0.00     0.040 H 
ENDBRANCH  16  19
ENDBRANCH   1  15
BRANCH   8  23
ATOM     23  S73 SVR d   1     -51.674  22.594  30.909  0.00  0.00     0.138 S 
ATOM     24  O77 SVR d   1     -52.782  23.010  30.098  0.00  0.00    -0.591 OA
ATOM     25  O78 SVR d   1     -50.998  21.417  30.282  0.00  0.00    -0.591 OA
ATOM     26  O79 SVR d   1     -52.154  22.262  32.294  0.00  0.00    -0.591 OA
ENDBRANCH   8  23
BRANCH   4  27
ATOM     27  S75 SVR d   1     -46.318  26.595  32.203  0.00  0.00     0.138 S 
ATOM     28  O80 SVR d   1     -44.892  26.282  32.570  0.00  0.00    -0.591 OA
ATOM     29  O81 SVR d   1     -46.329  27.258  30.851  0.00  0.00    -0.591 OA
ATOM     30  O82 SVR d   1     -46.878  27.465  33.192  0.00  0.00    -0.591 OA
ENDBRANCH   4  27
BRANCH  10  31
ATOM     31  S83 SVR d   1     -51.200  27.681  29.884  0.00  0.00     0.137 S 
ATOM     32  O85 SVR d   1     -52.399  27.992  30.603  0.00  0.00    -0.591 OA
ATOM     33  O86 SVR d   1     -51.523  27.382  28.449  0.00  0.00    -0.591 OA
ATOM     34  O84 SVR d   1     -50.251  28.843  29.964  0.00  0.00    -0.591 OA
ENDBRANCH  10  31
TORSDOF 5
