REMARK  13 active torsions:
REMARK  status: ('A' for Active; 'I' for Inactive)
REMARK    1  A    between atoms: C7_1  and  O8_2 
REMARK    2  A    between atoms: O8_2  and  C9_3 
REMARK       I    between atoms: C9_3  and  N11_5 
REMARK    3  A    between atoms: N11_5  and  C12_6 
REMARK    4  A    between atoms: C12_6  and  C17_7 
REMARK    5  A    between atoms: C12_6  and  C13_9 
REMARK       I    between atoms: C17_7  and  N19_13 
REMARK    6  A    between atoms: C13_9  and  C14_10 
REMARK    7  A    between atoms: C14_10  and  C15_11 
REMARK    8  A    between atoms: C14_10  and  C16_12 
REMARK    9  A    between atoms: N19_13  and  C20_14 
REMARK   10  A    between atoms: C20_14  and  C21_15 
REMARK   11  A    between atoms: C20_14  and  C24_17 
REMARK   12  A    between atoms: C21_15  and  O22_16 
REMARK   13  A    between atoms: C24_17  and  C25_18 
ROOT
ATOM      1  C17 K36 d   1     -19.746 -21.013  31.826  0.00  0.00     0.240 C 
ATOM      2  O18 K36 d   1     -20.735 -21.452  31.246  0.00  0.00    -0.271 OA
ATOM      3  N19 K36 d   1     -19.037 -19.927  31.324  0.00  0.00    -0.353 N 
ATOM      4  H15 K36 d   1     -18.216 -19.624  31.808  0.00  0.00     0.163 HD
ENDROOT
BRANCH   1   5
ATOM      5  C12 K36 d   1     -19.269 -21.633  33.105  0.00  0.00     0.092 C 
ATOM      6  H5  K36 d   1     -18.670 -20.908  33.676  0.00  0.00     0.087 H 
BRANCH   5   7
ATOM      7  N11 K36 d   1     -20.424 -22.046  33.922  0.00  0.00    -0.324 N 
ATOM      8  C9  K36 d   1     -21.243 -21.116  34.504  0.00  0.00     0.360 C 
ATOM      9  O10 K36 d   1     -21.103 -19.899  34.360  0.00  0.00    -0.239 OA
ATOM     10  H4  K36 d   1     -20.612 -23.019  34.053  0.00  0.00     0.165 HD
BRANCH   8  11
ATOM     11  O8  K36 d   1     -22.329 -21.592  35.326  0.00  0.00    -0.309 OA
BRANCH  11  12
ATOM     12  C7  K36 d   1     -23.018 -20.678  36.180  0.00  0.00     0.015 C 
ATOM     13  H1  K36 d   1     -23.809 -21.212  36.727  0.00  0.00     0.067 H 
ATOM     14  H2  K36 d   1     -23.468 -19.878  35.574  0.00  0.00     0.067 H 
ATOM     15  H3  K36 d   1     -22.308 -20.240  36.897  0.00  0.00     0.067 H 
ENDBRANCH  11  12
ENDBRANCH   8  11
ENDBRANCH   5   7
BRANCH   5  16
ATOM     16  C13 K36 d   1     -18.392 -22.818  32.703  0.00  0.00    -0.035 C 
ATOM     17  H6  K36 d   1     -17.554 -22.447  32.094  0.00  0.00     0.037 H 
ATOM     18  H7  K36 d   1     -18.996 -23.518  32.107  0.00  0.00     0.037 H 
BRANCH  16  19
ATOM     19  C14 K36 d   1     -17.830 -23.560  33.906  0.00  0.00    -0.059 C 
ATOM     20  H8  K36 d   1     -18.657 -23.806  34.588  0.00  0.00     0.038 H 
BRANCH  19  21
ATOM     21  C15 K36 d   1     -17.183 -24.851  33.422  0.00  0.00    -0.073 C 
ATOM     22  H9  K36 d   1     -16.771 -25.400  34.282  0.00  0.00     0.028 H 
ATOM     23  H10 K36 d   1     -16.373 -24.613  32.717  0.00  0.00     0.028 H 
ATOM     24  H11 K36 d   1     -17.938 -25.473  32.918  0.00  0.00     0.028 H 
ENDBRANCH  19  21
BRANCH  19  25
ATOM     25  C16 K36 d   1     -16.819 -22.722  34.661  0.00  0.00    -0.073 C 
ATOM     26  H12 K36 d   1     -17.297 -21.793  35.005  0.00  0.00     0.028 H 
ATOM     27  H13 K36 d   1     -15.977 -22.477  33.997  0.00  0.00     0.028 H 
ATOM     28  H14 K36 d   1     -16.449 -23.288  35.529  0.00  0.00     0.028 H 
ENDBRANCH  19  25
ENDBRANCH  16  19
ENDBRANCH   5  16
ENDBRANCH   1   5
BRANCH   3  29
ATOM     29  C20 K36 d   1     -19.446 -19.211  30.116  0.00  0.00     0.033 C 
ATOM     30  H16 K36 d   1     -20.218 -19.808  29.608  0.00  0.00     0.075 H 
BRANCH  29  31
ATOM     31  C21 K36 d   1     -18.249 -19.027  29.166  0.00  0.00     0.035 C 
ATOM     32  H17 K36 d   1     -17.420 -18.559  29.717  0.00  0.00     0.077 H 
ATOM     33  H18 K36 d   1     -18.548 -18.376  28.331  0.00  0.00     0.077 H 
BRANCH  31  34
ATOM     34  O22 K36 d   1     -17.814 -20.286  28.645  0.00  0.00    -0.399 OA
ATOM     35  H19 K36 d   1     -17.552 -20.851  29.362  0.00  0.00     0.209 HD
ENDBRANCH  31  34
ENDBRANCH  29  31
BRANCH  29  36
ATOM     36  C24 K36 d   1     -20.019 -17.842  30.427  0.00  0.00    -0.033 C 
ATOM     37  H20 K36 d   1     -20.338 -17.372  29.485  0.00  0.00     0.037 H 
ATOM     38  H21 K36 d   1     -19.234 -17.230  30.895  0.00  0.00     0.037 H 
BRANCH  36  39
ATOM     39  C25 K36 d   1     -21.212 -17.905  31.367  0.00  0.00     0.027 C 
ATOM     40  C26 K36 d   1     -22.415 -18.623  30.740  0.00  0.00    -0.039 C 
ATOM     41  C27 K36 d   1     -23.628 -17.836  31.229  0.00  0.00    -0.004 C 
ATOM     42  H23 K36 d   1     -22.466 -19.667  31.082  0.00  0.00     0.036 H 
ATOM     43  H24 K36 d   1     -22.353 -18.599  29.642  0.00  0.00     0.036 H 
ATOM     44  N28 K36 d   1     -23.160 -16.485  31.625  0.00  0.00    -0.361 N 
ATOM     45  H25 K36 d   1     -24.080 -18.344  32.093  0.00  0.00     0.064 H 
ATOM     46  H26 K36 d   1     -24.371 -17.753  30.422  0.00  0.00     0.064 H 
ATOM     47  C29 K36 d   1     -21.783 -16.549  31.574  0.00  0.00     0.221 C 
ATOM     48  H27 K36 d   1     -23.722 -15.697  31.875  0.00  0.00     0.162 HD
ATOM     49  O30 K36 d   1     -21.107 -15.543  31.697  0.00  0.00    -0.273 OA
ATOM     50  H22 K36 d   1     -20.911 -18.374  32.315  0.00  0.00     0.054 H 
ENDBRANCH  36  39
ENDBRANCH  29  36
ENDBRANCH   3  29
TORSDOF 13
