REMARK  7 active torsions:
REMARK  status: ('A' for Active; 'I' for Inactive)
REMARK    1  A    between atoms: C1_1  and  C2_2 
REMARK    2  A    between atoms: C1_1  and  N1_17 
REMARK    3  A    between atoms: C4_20  and  C1_1 
REMARK       I    between atoms: C2_2  and  N2_19 
REMARK    4  A    between atoms: N2_19  and  C3_3 
REMARK    5  A    between atoms: N_14  and  C11_8 
REMARK    6  A    between atoms: C12_9  and  S2_13 
REMARK       I    between atoms: C_15  and  N_14 
REMARK       I    between atoms: N1_17  and  C_15 
REMARK    7  A    between atoms: C4_20  and  C5_21 
ROOT
ATOM      1  C1  ATT d   1      -9.288   1.767   8.973  0.00  0.00     0.094 C 
ATOM      2  H1  ATT d   1      -9.032   1.192   9.875  0.00  0.00     0.088 H 
ENDROOT
BRANCH   1   3
ATOM      3  C2  ATT d   1     -10.516   0.995   8.353  0.00  0.00     0.240 C 
ATOM      4  O1  ATT d   1     -11.039  -0.003   8.864  0.00  0.00    -0.271 OA
ATOM      5  N2  ATT d   1     -11.190   1.285   7.256  0.00  0.00    -0.364 N 
ATOM      6  H12 ATT d   1     -11.903   0.650   6.958  0.00  0.00     0.161 HD
BRANCH   5   7
ATOM      7  C3  ATT d   1     -10.947   2.512   6.432  0.00  0.00    -0.018 C 
ATOM      8  H2  ATT d   1     -11.636   2.520   5.575  0.00  0.00     0.056 H 
ATOM      9  H3  ATT d   1      -9.909   2.510   6.068  0.00  0.00     0.056 H 
ATOM     10  H4  ATT d   1     -11.118   3.407   7.048  0.00  0.00     0.056 H 
ENDBRANCH   5   7
ENDBRANCH   1   3
BRANCH   1  11
ATOM     11  N1  ATT d   1      -8.109   1.651   8.061  0.00  0.00    -0.329 N 
ATOM     12  C   ATT d   1      -6.929   1.253   8.472  0.00  0.00     0.323 C 
ATOM     13  N   ATT d   1      -5.887   1.787   7.890  0.00  0.00    -0.286 N 
ATOM     14  O   ATT d   1      -6.755   0.546   9.500  0.00  0.00    -0.247 OA
ATOM     15  H10 ATT d   1      -6.011   2.199   6.987  0.00  0.00     0.172 HD
ATOM     16  H11 ATT d   1      -8.225   1.887   7.096  0.00  0.00     0.165 HD
BRANCH  13  17
ATOM     17  C11 ATT d   1      -4.584   1.816   8.467  0.00  0.00     0.198 A 
ATOM     18  N4  ATT d   1      -3.724   2.666   8.123  0.00  0.00    -0.122 NA
ATOM     19  N3  ATT d   1      -2.511   2.606   8.705  0.00  0.00    -0.133 NA
ATOM     20  C12 ATT d   1      -2.442   1.649   9.628  0.00  0.00     0.157 A 
ATOM     21  S1  ATT d   1      -3.928   0.732   9.679  0.00  0.00    -0.022 SA
BRANCH  20  22
ATOM     22  S2  ATT d   1      -1.101   1.336  10.472  0.00  0.00    -0.114 SA
ATOM     23  H9  ATT d   1      -0.398   2.023  10.250  0.00  0.00     0.109 HD
ENDBRANCH  20  22
ENDBRANCH  13  17
ENDBRANCH   1  11
BRANCH   1  24
ATOM     24  C4  ATT d   1      -9.469   3.228   9.496  0.00  0.00    -0.014 C 
ATOM     25  H13 ATT d   1     -10.361   3.240  10.140  0.00  0.00     0.043 H 
ATOM     26  H14 ATT d   1      -9.639   3.873   8.621  0.00  0.00     0.043 H 
BRANCH  24  27
ATOM     27  C5  ATT d   1      -8.313   3.836  10.299  0.00  0.00    -0.056 A 
ATOM     28  C10 ATT d   1      -8.091   3.525  11.645  0.00  0.00    -0.077 A 
ATOM     29  C9  ATT d   1      -6.947   3.969  12.302  0.00  0.00    -0.082 A 
ATOM     30  H8  ATT d   1      -8.820   2.930  12.184  0.00  0.00     0.084 H 
ATOM     31  C8  ATT d   1      -5.983   4.702  11.609  0.00  0.00    -0.083 A 
ATOM     32  H7  ATT d   1      -6.805   3.745  13.353  0.00  0.00     0.083 H 
ATOM     33  C7  ATT d   1      -6.221   5.090  10.281  0.00  0.00    -0.082 A 
ATOM     34  H6  ATT d   1      -5.052   4.971  12.095  0.00  0.00     0.083 H 
ATOM     35  C6  ATT d   1      -7.397   4.643   9.647  0.00  0.00    -0.077 A 
ATOM     36  H5  ATT d   1      -5.514   5.721   9.754  0.00  0.00     0.083 H 
ATOM     37  H15 ATT d   1      -7.589   4.939   8.622  0.00  0.00     0.084 H 
ENDBRANCH  24  27
ENDBRANCH   1  24
TORSDOF 7
