REMARK  12 active torsions:
REMARK  status: ('A' for Active; 'I' for Inactive)
REMARK    1  A    between atoms: C11_9  and  O8_10 
REMARK    2  A    between atoms: C12_11  and  N6_12 
REMARK    3  A    between atoms: N6_12  and  C13_13 
REMARK    4  A    between atoms: CA_17  and  CB_20 
REMARK    5  A    between atoms: CB_20  and  CG1_21 
REMARK    6  A    between atoms: CB_20  and  CG2_22 
REMARK    7  A    between atoms: C2_24  and  C1_23 
REMARK    8  A    between atoms: C2_24  and  C3_25 
REMARK    9  A    between atoms: C3_25  and  C4_26 
REMARK   10  A    between atoms: C19_28  and  C20_29 
REMARK       I    between atoms: C20_29  and  N_31 
REMARK   11  A    between atoms: N_31  and  CA_32 
REMARK   12  A    between atoms: CA_32  and  C_33 
ROOT
ATOM      1  O1  0EA d   1       8.829  86.064 104.524  0.00  0.00    -0.334 OA
ATOM      2  C5  0EA d   1       8.601  86.373 105.911  0.00  0.00     0.117 A 
ATOM      3  C6  0EA d   1       7.303  86.677 106.458  0.00  0.00    -0.057 A 
ATOM      4  C7  0EA d   1       9.662  86.395 106.862  0.00  0.00     0.204 A 
ATOM      5  O5  0EA d   1      10.844  86.157 106.497  0.00  0.00    -0.285 OA
ATOM      6  C8  0EA d   1       9.531  86.668 108.224  0.00  0.00    -0.035 A 
ATOM      7  C9  0EA d   1       8.265  86.977 108.725  0.00  0.00    -0.089 A 
ATOM      8  C10 0EA d   1       7.134  86.985 107.858  0.00  0.00     0.009 A 
ATOM      9  C11 0EA d   1       5.752  87.354 108.443  0.00  0.00     0.081 C 
ATOM     10  C12 0EA d   1       5.770  88.946 108.415  0.00  0.00     0.202 C 
ATOM     11  C14 0EA d   1       6.115  89.673 107.027  0.00  0.00     0.252 C 
ATOM     12  O3  0EA d   1       5.251  89.776 106.081  0.00  0.00    -0.271 OA
ATOM     13  H   0EA d   1       6.432  86.674 105.802  0.00  0.00     0.082 H 
ATOM     14  H   0EA d   1      10.399  86.641 108.883  0.00  0.00     0.089 H 
ATOM     15  H   0EA d   1       8.141  87.213 109.782  0.00  0.00     0.078 H 
ATOM     16  H   0EA d   1       6.552  86.286 107.257  0.00  0.00     0.056 H 
ATOM     17  H   0EA d   1       4.944  86.891 107.877  0.00  0.00     0.088 H 
ATOM     18  H   0EA d   1       6.681  89.182 108.965  0.00  0.00     0.103 H 
ATOM     19  N   VAL d   1       7.433  90.144 106.993  0.00  0.00    -0.346 N 
ATOM     20  CA  VAL d   1       8.142  90.857 105.925  0.00  0.00     0.092 C 
ATOM     21  C   VAL d   1       9.213  89.972 105.274  0.00  0.00     0.241 C 
ATOM     22  O   VAL d   1      10.392  90.012 105.636  0.00  0.00    -0.271 OA
ATOM     23  H   VAL d   1       7.981  89.965 107.835  0.00  0.00     0.163 HD
ATOM     24  H   VAL d   1       7.398  91.088 105.162  0.00  0.00     0.088 H 
ATOM     25  C3  0E5 d   1       8.658  86.986 103.308  0.00  0.00     0.093 C 
ATOM     26  N1  0E5 d   1       8.728  89.212 104.322  0.00  0.00    -0.343 N 
ATOM     27  C19 0E5 d   1       9.535  88.270 103.553  0.00  0.00     0.119 C 
ATOM     28  H   0E5 d   1       7.733  89.283 104.107  0.00  0.00     0.163 HD
ATOM     29  H   0E5 d   1      10.392  87.814 104.048  0.00  0.00     0.092 H 
ENDROOT
BRANCH  20  30
ATOM     30  CB  VAL d   1       8.712  92.220 106.380  0.00  0.00    -0.033 C 
ATOM     31  H   VAL d   1       9.648  92.032 106.906  0.00  0.00     0.042 H 
BRANCH  30  32
ATOM     32  CG1 VAL d   1       9.014  93.108 105.179  0.00  0.00    -0.071 C 
ATOM     33  H   VAL d   1       9.747  92.616 104.540  0.00  0.00     0.028 H 
ATOM     34  H   VAL d   1       8.097  93.280 104.616  0.00  0.00     0.028 H 
ATOM     35  H   VAL d   1       9.414  94.061 105.525  0.00  0.00     0.028 H 
ENDBRANCH  30  32
BRANCH  30  36
ATOM     36  CG2 VAL d   1       7.770  92.917 107.352  0.00  0.00    -0.071 C 
ATOM     37  H   VAL d   1       6.809  93.087 106.866  0.00  0.00     0.028 H 
ATOM     38  H   VAL d   1       7.628  92.289 108.231  0.00  0.00     0.028 H 
ATOM     39  H   VAL d   1       8.201  93.872 107.652  0.00  0.00     0.028 H 
ENDBRANCH  30  36
ENDBRANCH  20  30
BRANCH  10  40
ATOM     40  N6  0EA d   1       4.648  89.544 109.176  0.00  0.00    -0.064 N 
ATOM     41  H   0EA d   1       4.446  88.964 109.990  0.00  0.00     0.277 HD
ATOM     42  H   0EA d   1       3.824  89.597 108.577  0.00  0.00     0.277 HD
BRANCH  40  43
ATOM     43  C13 0EA d   1       5.015  90.902 109.623  0.00  0.00     0.066 C 
ATOM     44  H   0EA d   1       5.896  90.847 110.262  0.00  0.00     0.067 H 
ATOM     45  H   0EA d   1       5.233  91.523 108.754  0.00  0.00     0.067 H 
ATOM     46  H   0EA d   1       4.186  91.336 110.182  0.00  0.00     0.067 H 
ENDBRANCH  40  43
ENDBRANCH  10  40
BRANCH  27  47
ATOM     47  C20 0E5 d   1      10.558  88.932 102.539  0.00  0.00     0.243 C 
ATOM     48  O6  0E5 d   1      11.781  88.821 102.847  0.00  0.00    -0.271 OA
ATOM     49  N   GLY d   1      10.091  89.558 101.436  0.00  0.00    -0.349 N 
ATOM     50  H   GLY d   1       9.080  89.590 101.302  0.00  0.00     0.163 HD
BRANCH  49  51
ATOM     51  CA  GLY d   1      10.928  90.191 100.424  0.00  0.00     0.075 C 
ATOM     52  H   GLY d   1      11.828  90.559 100.916  0.00  0.00     0.080 H 
ATOM     53  H   GLY d   1      10.347  90.988  99.960  0.00  0.00     0.080 H 
BRANCH  51  54
ATOM     54  C   GLY d   1      11.354  89.230  99.334  0.00  0.00     0.191 C 
ATOM     55  O   GLY d   1      12.424  89.385  98.742  0.00  0.00    -0.647 OA
ATOM     56  OXT GLY d   1      10.775  88.067  99.188  0.00  0.00    -0.647 OA
ENDBRANCH  51  54
ENDBRANCH  49  51
ENDBRANCH  27  47
BRANCH   9  57
ATOM     57  O8  0EA d   1       5.561  86.888 109.830  0.00  0.00    -0.392 OA
ATOM     58  H   0EA d   1       4.688  87.146 110.136  0.00  0.00     0.210 HD
ENDBRANCH   9  57
BRANCH  25  59
ATOM     59  C2  0E5 d   1       9.240  86.380 101.996  0.00  0.00    -0.037 C 
ATOM     60  H   0E5 d   1       8.627  86.756 101.177  0.00  0.00     0.036 H 
ATOM     61  H   0E5 d   1      10.290  86.668 101.956  0.00  0.00     0.036 H 
BRANCH  59  62
ATOM     62  C1  0E5 d   1       9.198  84.863 101.914  0.00  0.00    -0.074 C 
ATOM     63  H   0E5 d   1       9.775  84.440 102.736  0.00  0.00     0.027 H 
ATOM     64  H   0E5 d   1       8.164  84.525 101.982  0.00  0.00     0.027 H 
ATOM     65  H   0E5 d   1       9.625  84.540 100.965  0.00  0.00     0.027 H 
ENDBRANCH  59  62
ENDBRANCH  25  59
BRANCH  25  66
ATOM     66  C4  0E5 d   1       7.124  87.225 103.048  0.00  0.00    -0.045 C 
ATOM     67  H   0E5 d   1       7.002  87.914 102.212  0.00  0.00     0.031 H 
ATOM     68  H   0E5 d   1       6.645  86.275 102.811  0.00  0.00     0.031 H 
ATOM     69  H   0E5 d   1       6.667  87.651 103.942  0.00  0.00     0.031 H 
ENDBRANCH  25  66
TORSDOF 12
