REMARK WARNING: 32 MAX_TORS EXCEEDED!!!
REMARK  34 active torsions:
REMARK  status: ('A' for Active; 'I' for Inactive)
REMARK    1  A    between atoms: N_1  and  CA_2 
REMARK    2  A    between atoms: CA_2  and  C_3 
REMARK       I    between atoms: C_3  and  N_5 
REMARK    3  A    between atoms: N_5  and  CA_6 
REMARK    4  A    between atoms: CA_6  and  C_7 
REMARK    5  A    between atoms: CA_6  and  CB_9 
REMARK       I    between atoms: C_7  and  N_11 
REMARK    6  A    between atoms: CB_9  and  OG_10 
REMARK    7  A    between atoms: N_11  and  CA_12 
REMARK    8  A    between atoms: CA_12  and  C_13 
REMARK    9  A    between atoms: CA_12  and  CB_15 
REMARK       I    between atoms: C_13  and  N_16 
REMARK   10  A    between atoms: N_16  and  CA_17 
REMARK   11  A    between atoms: CA_17  and  C_18 
REMARK   12  A    between atoms: CA_17  and  CB_20 
REMARK       I    between atoms: C_18  and  N_27 
REMARK   13  A    between atoms: CB_20  and  CG_21 
REMARK   14  A    between atoms: CG_21  and  CD_22 
REMARK   15  A    between atoms: CD_22  and  NE_23 
REMARK       I    between atoms: NE_23  and  CZ_24 
REMARK       I    between atoms: CZ_24  and  NH1_25 
REMARK   16  A    between atoms: N_27  and  CA_28 
REMARK   17  A    between atoms: CA_28  and  C_29 
REMARK   18  A    between atoms: CA_28  and  CB_31 
REMARK       I    between atoms: C_29  and  N_32 
REMARK   19  A    between atoms: N_32  and  CA_33 
REMARK   20  A    between atoms: CA_33  and  C_34 
REMARK   21  A    between atoms: CA_33  and  CB_36 
REMARK       I    between atoms: C_34  and  N_41 
REMARK   22  A    between atoms: CB_36  and  CG_37 
REMARK   23  A    between atoms: CG_37  and  CD_38 
REMARK   24  A    between atoms: CA_42  and  C_43 
REMARK       I    between atoms: C_43  and  N_48 
REMARK   25  A    between atoms: N_48  and  CA_49 
REMARK   26  A    between atoms: CA_49  and  C_50 
REMARK   27  A    between atoms: CA_49  and  CB_52 
REMARK       I    between atoms: C_50  and  N_57 
REMARK   28  A    between atoms: CB_52  and  CG_53 
REMARK   29  A    between atoms: CG_53  and  CD_54 
REMARK   30  A    between atoms: CD_54  and  CE_55 
REMARK   31  A    between atoms: CE_55  and  NZ_56 
REMARK   32  A    between atoms: N_57  and  CA_58 
REMARK   33  A    between atoms: CA_58  and  C_59 
REMARK   34  A    between atoms: CA_58  and  CB_61 
ROOT
ATOM      1  C   ALA d   1      -7.286  25.455   5.296  0.00  0.00     0.240 C 
ATOM      2  O   ALA d   1      -6.357  24.876   5.861  0.00  0.00    -0.271 OA
ATOM      3  N   GLU d   1      -8.465  25.757   5.902  0.00  0.00    -0.346 N 
ATOM      4  H   GLU d   1      -9.172  26.227   5.337  0.00  0.00     0.163 HD
ENDROOT
BRANCH   1   5
ATOM      5  CA  ALA d   1      -7.134  25.851   3.828  0.00  0.00     0.086 C 
ATOM      6  H   ALA d   1      -6.869  24.945   3.283  0.00  0.00     0.086 H 
BRANCH   5   7
ATOM      7  N   ALA d   1      -8.377  26.361   3.256  0.00  0.00    -0.346 N 
ATOM      8  C   ARG d   1      -9.392  25.596   2.819  0.00  0.00     0.241 C 
ATOM      9  O   ARG d   1      -9.386  24.365   2.874  0.00  0.00    -0.271 OA
ATOM     10  H   ALA d   1      -8.483  27.373   3.183  0.00  0.00     0.163 HD
BRANCH   8  11
ATOM     11  CA  ARG d   1     -10.602  26.323   2.212  0.00  0.00     0.089 C 
ATOM     12  H   ARG d   1     -11.477  25.744   2.507  0.00  0.00     0.087 H 
BRANCH  11  13
ATOM     13  N   ARG d   1     -10.798  27.677   2.743  0.00  0.00    -0.346 N 
ATOM     14  C   ALA d   1     -11.115  27.871   4.020  0.00  0.00     0.240 C 
ATOM     15  O   ALA d   1     -11.201  26.952   4.831  0.00  0.00    -0.271 OA
ATOM     16  H   ARG d   1     -10.690  28.480   2.124  0.00  0.00     0.163 HD
BRANCH  14  17
ATOM     17  CA  ALA d   1     -11.330  29.305   4.482  0.00  0.00     0.086 C 
ATOM     18  H   ALA d   1     -11.123  29.320   5.552  0.00  0.00     0.086 H 
BRANCH  17  19
ATOM     19  N   ALA d   1     -10.381  30.272   3.887  0.00  0.00    -0.346 N 
ATOM     20  C   SER d   1      -9.037  30.140   4.016  0.00  0.00     0.243 C 
ATOM     21  O   SER d   1      -8.505  29.198   4.607  0.00  0.00    -0.271 OA
ATOM     22  H   ALA d   1     -10.750  31.065   3.362  0.00  0.00     0.163 HD
BRANCH  20  23
ATOM     23  CA  SER d   1      -8.156  31.217   3.400  0.00  0.00     0.109 C 
ATOM     24  H   SER d   1      -8.803  32.047   3.114  0.00  0.00     0.090 H 
BRANCH  23  25
ATOM     25  N   SER d   1      -7.175  31.660   4.386  0.00  0.00    -0.344 N 
ATOM     26  C   GLY d   1      -6.997  32.953   4.677  0.00  0.00     0.243 C 
ATOM     27  O   GLY d   1      -7.643  33.845   4.135  0.00  0.00    -0.272 OA
ATOM     28  H   SER d   1      -6.608  30.962   4.868  0.00  0.00     0.163 HD
BRANCH  26  29
ATOM     29  CA  GLY d   1      -5.973  33.303   5.737  0.00  0.00     0.152 C 
ATOM     30  H   GLY d   1      -5.066  33.626   5.226  0.00  0.00     0.090 H 
ATOM     31  H   GLY d   1      -6.407  34.075   6.373  0.00  0.00     0.090 H 
BRANCH  29  32
ATOM     32  N   GLY d   1      -5.621  32.177   6.589  0.00  0.00    -0.071 N 
ATOM     33  H   GLY d   1      -4.931  32.476   7.278  0.00  0.00     0.274 HD
ATOM     34  H   GLY d   1      -6.457  31.840   7.067  0.00  0.00     0.274 HD
ATOM     35  H   GLY d   1      -5.229  31.429   6.017  0.00  0.00     0.274 HD
ENDBRANCH  29  32
ENDBRANCH  26  29
ENDBRANCH  23  25
BRANCH  23  36
ATOM     36  CB  SER d   1      -7.458  30.758   2.118  0.00  0.00     0.044 C 
ATOM     37  H   SER d   1      -6.479  30.373   2.404  0.00  0.00     0.077 H 
ATOM     38  H   SER d   1      -7.420  31.616   1.446  0.00  0.00     0.077 H 
BRANCH  36  39
ATOM     39  OG  SER d   1      -8.133  29.720   1.434  0.00  0.00    -0.398 OA
ATOM     40  H   SER d   1      -9.011  30.019   1.187  0.00  0.00     0.209 HD
ENDBRANCH  36  39
ENDBRANCH  23  36
ENDBRANCH  20  23
ENDBRANCH  17  19
BRANCH  17  41
ATOM     41  CB  ALA d   1     -12.787  29.730   4.248  0.00  0.00    -0.049 C 
ATOM     42  H   ALA d   1     -12.957  30.706   4.703  0.00  0.00     0.030 H 
ATOM     43  H   ALA d   1     -12.979  29.789   3.177  0.00  0.00     0.030 H 
ATOM     44  H   ALA d   1     -13.455  28.996   4.699  0.00  0.00     0.030 H 
ENDBRANCH  17  41
ENDBRANCH  14  17
ENDBRANCH  11  13
BRANCH  11  45
ATOM     45  CB  ARG d   1     -10.508  26.359   0.679  0.00  0.00    -0.036 C 
ATOM     46  H   ARG d   1      -9.520  26.738   0.418  0.00  0.00     0.036 H 
ATOM     47  H   ARG d   1     -11.320  26.987   0.314  0.00  0.00     0.036 H 
BRANCH  45  48
ATOM     48  CG  ARG d   1     -10.661  24.986   0.034  0.00  0.00    -0.048 C 
ATOM     49  H   ARG d   1     -11.674  24.634   0.231  0.00  0.00     0.035 H 
ATOM     50  H   ARG d   1      -9.899  24.331   0.456  0.00  0.00     0.035 H 
BRANCH  48  51
ATOM     51  CD  ARG d   1     -10.465  25.021  -1.463  0.00  0.00     0.009 C 
ATOM     52  H   ARG d   1     -10.480  23.994  -1.827  0.00  0.00     0.064 H 
ATOM     53  H   ARG d   1      -9.520  25.525  -1.665  0.00  0.00     0.064 H 
BRANCH  51  54
ATOM     54  NE  ARG d   1     -11.526  25.759  -2.155  0.00  0.00    -0.227 N 
ATOM     55  CZ  ARG d   1     -12.612  25.201  -2.676  0.00  0.00     0.665 C 
ATOM     56  NH1 ARG d   1     -12.798  23.887  -2.590  0.00  0.00    -0.235 N 
ATOM     57  NH2 ARG d   1     -13.497  25.943  -3.331  0.00  0.00    -0.235 N 
ATOM     58  H   ARG d   1     -12.105  23.303  -2.122  0.00  0.00     0.174 HD
ATOM     59  H   ARG d   1     -13.634  23.463  -2.992  0.00  0.00     0.174 HD
ATOM     60  H   ARG d   1     -13.344  26.946  -3.436  0.00  0.00     0.174 HD
ATOM     61  H   ARG d   1     -14.330  25.510  -3.730  0.00  0.00     0.174 HD
ATOM     62  H   ARG d   1     -11.423  26.770  -2.242  0.00  0.00     0.177 HD
ENDBRANCH  51  54
ENDBRANCH  48  51
ENDBRANCH  45  48
ENDBRANCH  11  45
ENDBRANCH   8  11
ENDBRANCH   5   7
BRANCH   5  63
ATOM     63  CB  ALA d   1      -6.025  26.889   3.666  0.00  0.00    -0.049 C 
ATOM     64  H   ALA d   1      -5.876  27.097   2.607  0.00  0.00     0.030 H 
ATOM     65  H   ALA d   1      -6.310  27.806   4.181  0.00  0.00     0.030 H 
ATOM     66  H   ALA d   1      -5.101  26.502   4.095  0.00  0.00     0.030 H 
ENDBRANCH   5  63
ENDBRANCH   1   5
BRANCH   3  67
ATOM     67  CA  GLU d   1      -8.809  25.465   7.300  0.00  0.00     0.090 C 
ATOM     68  H   GLU d   1      -7.886  25.238   7.833  0.00  0.00     0.087 H 
BRANCH  67  69
ATOM     69  C   GLU d   1      -9.750  24.254   7.371  0.00  0.00     0.243 C 
ATOM     70  O   GLU d   1     -10.672  24.165   6.546  0.00  0.00    -0.271 OA
ATOM     71  N   PRO d   1      -9.535  23.315   8.331  0.00  0.00    -0.337 N 
ATOM     72  CA  PRO d   1     -10.388  22.119   8.394  0.00  0.00     0.091 C 
ATOM     73  CD  PRO d   1      -8.491  23.273   9.378  0.00  0.00    -0.001 C 
ATOM     74  CB  PRO d   1      -9.597  21.182   9.317  0.00  0.00    -0.036 C 
ATOM     75  H   PRO d   1     -10.587  21.711   7.403  0.00  0.00     0.087 H 
ATOM     76  CG  PRO d   1      -8.874  22.088  10.220  0.00  0.00    -0.048 C 
ATOM     77  H   PRO d   1      -8.922  20.532   8.761  0.00  0.00     0.036 H 
ATOM     78  H   PRO d   1     -10.247  20.495   9.859  0.00  0.00     0.036 H 
ATOM     79  H   PRO d   1      -7.998  21.605  10.652  0.00  0.00     0.035 H 
ATOM     80  H   PRO d   1      -9.492  22.384  11.068  0.00  0.00     0.035 H 
ATOM     81  H   PRO d   1      -8.446  24.196   9.957  0.00  0.00     0.064 H 
ATOM     82  H   PRO d   1      -7.489  23.178   8.960  0.00  0.00     0.064 H 
BRANCH  72  83
ATOM     83  C   PRO d   1     -11.773  22.398   8.972  0.00  0.00     0.241 C 
ATOM     84  O   PRO d   1     -11.955  23.373   9.708  0.00  0.00    -0.271 OA
ATOM     85  N   LYS d   1     -12.747  21.536   8.643  0.00  0.00    -0.346 N 
ATOM     86  H   LYS d   1     -12.553  20.768   8.000  0.00  0.00     0.163 HD
BRANCH  85  87
ATOM     87  CA  LYS d   1     -14.084  21.697   9.206  0.00  0.00     0.089 C 
ATOM     88  H   LYS d   1     -14.375  22.747   9.229  0.00  0.00     0.087 H 
BRANCH  87  89
ATOM     89  C   LYS d   1     -14.019  21.114  10.617  0.00  0.00     0.241 C 
ATOM     90  O   LYS d   1     -13.859  19.904  10.771  0.00  0.00    -0.271 OA
ATOM     91  N   MET d   1     -14.016  21.998  11.628  0.00  0.00    -0.345 N 
ATOM     92  H   MET d   1     -14.074  22.989  11.395  0.00  0.00     0.163 HD
BRANCH  91  93
ATOM     93  CA  MET d   1     -13.935  21.632  13.042  0.00  0.00     0.093 C 
ATOM     94  H   MET d   1     -13.306  20.745  13.127  0.00  0.00     0.089 H 
BRANCH  93  95
ATOM     95  C   MET d   1     -15.312  21.290  13.595  0.00  0.00     0.196 C 
ATOM     96  O   MET d   1     -15.924  20.324  13.147  0.00  0.00    -0.646 OA
ATOM     97  O   MET d   1     -15.821  21.994  14.507  0.00  0.00    -0.646 OA
ENDBRANCH  93  95
BRANCH  93  98
ATOM     98  CB  MET d   1     -13.292  22.764  13.856  0.00  0.00    -0.048 C 
ATOM     99  H   MET d   1     -12.286  22.953  13.481  0.00  0.00     0.030 H 
ATOM    100  H   MET d   1     -13.894  23.668  13.758  0.00  0.00     0.030 H 
ATOM    101  H   MET d   1     -13.241  22.472  14.905  0.00  0.00     0.030 H 
ENDBRANCH  93  98
ENDBRANCH  91  93
ENDBRANCH  87  89
BRANCH  87 102
ATOM    102  CB  LYS d   1     -15.155  21.006   8.349  0.00  0.00    -0.038 C 
ATOM    103  H   LYS d   1     -15.117  19.936   8.553  0.00  0.00     0.036 H 
ATOM    104  H   LYS d   1     -14.950  21.229   7.302  0.00  0.00     0.036 H 
BRANCH 102 105
ATOM    105  CG  LYS d   1     -16.550  21.503   8.676  0.00  0.00    -0.061 C 
ATOM    106  H   LYS d   1     -16.579  22.578   8.495  0.00  0.00     0.033 H 
ATOM    107  H   LYS d   1     -16.764  21.256   9.716  0.00  0.00     0.033 H 
BRANCH 105 108
ATOM    108  CD  LYS d   1     -17.611  20.846   7.804  0.00  0.00    -0.043 C 
ATOM    109  H   LYS d   1     -17.373  19.785   7.727  0.00  0.00     0.035 H 
ATOM    110  H   LYS d   1     -17.608  21.347   6.836  0.00  0.00     0.035 H 
BRANCH 108 111
ATOM    111  CE  LYS d   1     -19.007  20.971   8.391  0.00  0.00     0.080 C 
ATOM    112  H   LYS d   1     -19.697  20.435   7.739  0.00  0.00     0.075 H 
ATOM    113  H   LYS d   1     -19.247  22.032   8.467  0.00  0.00     0.075 H 
BRANCH 111 114
ATOM    114  NZ  LYS d   1     -19.105  20.376   9.755  0.00  0.00    -0.079 N 
ATOM    115  H   LYS d   1     -20.057  20.485  10.104  0.00  0.00     0.274 HD
ATOM    116  H   LYS d   1     -18.869  19.385   9.710  0.00  0.00     0.274 HD
ATOM    117  H   LYS d   1     -18.456  20.853  10.380  0.00  0.00     0.274 HD
ENDBRANCH 111 114
ENDBRANCH 108 111
ENDBRANCH 105 108
ENDBRANCH 102 105
ENDBRANCH  87 102
ENDBRANCH  85  87
ENDBRANCH  72  83
ENDBRANCH  67  69
BRANCH  67 118
ATOM    118  CB  GLU d   1      -9.473  26.683   7.977  0.00  0.00    -0.029 C 
ATOM    119  H   GLU d   1      -9.532  26.455   9.041  0.00  0.00     0.037 H 
ATOM    120  H   GLU d   1     -10.431  26.833   7.480  0.00  0.00     0.037 H 
BRANCH 118 121
ATOM    121  CG  GLU d   1      -8.708  27.991   7.853  0.00  0.00     0.018 C 
ATOM    122  H   GLU d   1      -9.300  28.730   8.393  0.00  0.00     0.049 H 
ATOM    123  H   GLU d   1      -8.563  28.146   6.784  0.00  0.00     0.049 H 
BRANCH 121 124
ATOM    124  CD  GLU d   1      -7.323  28.053   8.465  0.00  0.00     0.172 C 
ATOM    125  OE1 GLU d   1      -7.007  27.211   9.338  0.00  0.00    -0.648 OA
ATOM    126  OE2 GLU d   1      -6.552  28.958   8.071  0.00  0.00    -0.648 OA
ENDBRANCH 121 124
ENDBRANCH 118 121
ENDBRANCH  67 118
ENDBRANCH   3  67
TORSDOF 34
