REMARK WARNING: 32 MAX_TORS EXCEEDED!!!
REMARK  44 active torsions:
REMARK  status: ('A' for Active; 'I' for Inactive)
REMARK    1  A    between atoms: N_1  and  CA_2 
REMARK    2  A    between atoms: CA_2  and  C_3 
REMARK       I    between atoms: C_3  and  N_5 
REMARK    3  A    between atoms: N_5  and  CA_6 
REMARK    4  A    between atoms: CA_6  and  C_7 
REMARK    5  A    between atoms: CA_6  and  CB_9 
REMARK       I    between atoms: C_7  and  N_10 
REMARK    6  A    between atoms: N_10  and  CA_11 
REMARK    7  A    between atoms: CA_11  and  C_12 
REMARK    8  A    between atoms: CA_11  and  CB_14 
REMARK       I    between atoms: C_12  and  N_15 
REMARK    9  A    between atoms: N_15  and  CA_16 
REMARK   10  A    between atoms: CA_16  and  C_17 
REMARK   11  A    between atoms: CA_16  and  CB_19 
REMARK       I    between atoms: C_17  and  N_26 
REMARK   12  A    between atoms: CB_19  and  CG_20 
REMARK   13  A    between atoms: CG_20  and  CD_21 
REMARK   14  A    between atoms: CD_21  and  NE_22 
REMARK       I    between atoms: NE_22  and  CZ_23 
REMARK       I    between atoms: CZ_23  and  NH1_24 
REMARK       I    between atoms: CZ_23  and  NH2_25 
REMARK   15  A    between atoms: N_26  and  CA_27 
REMARK   16  A    between atoms: CA_27  and  C_28 
REMARK   17  A    between atoms: CA_27  and  CB_30 
REMARK       I    between atoms: C_28  and  N_31 
REMARK   18  A    between atoms: N_31  and  CA_32 
REMARK   19  A    between atoms: CA_32  and  C_33 
REMARK   20  A    between atoms: CA_32  and  CB_35 
REMARK       I    between atoms: C_33  and  N_40 
REMARK   21  A    between atoms: CB_35  and  CG_36 
REMARK   22  A    between atoms: CG_36  and  CD_37 
REMARK   23  A    between atoms: N_40  and  CA_41 
REMARK   24  A    between atoms: CA_41  and  C_42 
REMARK   25  A    between atoms: CA_41  and  CB_44 
REMARK       I    between atoms: C_42  and  N_47 
REMARK   26  A    between atoms: CB_44  and  CG1_45 
REMARK   27  A    between atoms: CB_44  and  CG2_46 
REMARK   28  A    between atoms: N_47  and  CA_48 
REMARK   29  A    between atoms: CA_48  and  C_49 
REMARK   30  A    between atoms: CA_48  and  CB_51 
REMARK       I    between atoms: C_49  and  N_59 
REMARK   31  A    between atoms: CB_51  and  CG_52 
REMARK   32  A    between atoms: CZ_57  and  OH_58 
REMARK   33  A    between atoms: N_59  and  CA_60 
REMARK   34  A    between atoms: CA_60  and  C_61 
REMARK   35  A    between atoms: CA_60  and  CB_63 
REMARK       I    between atoms: C_61  and  N_67 
REMARK   36  A    between atoms: CB_63  and  CG_64 
REMARK   37  A    between atoms: CG_64  and  CD1_65 
REMARK   38  A    between atoms: CG_64  and  CD2_66 
REMARK   39  A    between atoms: N_67  and  CA_68 
REMARK   40  A    between atoms: CA_68  and  C_69 
REMARK   41  A    between atoms: CA_68  and  CB_71 
REMARK   42  A    between atoms: CB_71  and  CG_72 
REMARK   43  A    between atoms: CG_72  and  CD_73 
REMARK   44  A    between atoms: CD_73  and  NE_74 
REMARK       I    between atoms: NE_74  and  CZ_75 
REMARK       I    between atoms: CZ_75  and  NH1_76 
ROOT
ATOM      1  C   GLU d   1      17.053  31.893  -6.617  0.00  0.00     0.241 C 
ATOM      2  O   GLU d   1      17.254  30.912  -5.913  0.00  0.00    -0.271 OA
ATOM      3  N   VAL d   1      17.599  33.094  -6.374  0.00  0.00    -0.346 N 
ATOM      4  H   VAL d   1      17.412  33.859  -7.022  0.00  0.00     0.163 HD
ENDROOT
BRANCH   3   5
ATOM      5  CA  VAL d   1      18.451  33.345  -5.216  0.00  0.00     0.092 C 
ATOM      6  H   VAL d   1      19.070  32.479  -4.980  0.00  0.00     0.088 H 
BRANCH   5   7
ATOM      7  C   VAL d   1      17.511  33.664  -4.046  0.00  0.00     0.241 C 
ATOM      8  O   VAL d   1      16.481  34.310  -4.254  0.00  0.00    -0.271 OA
ATOM      9  N   TYR d   1      17.820  33.159  -2.838  0.00  0.00    -0.346 N 
ATOM     10  H   TYR d   1      18.622  32.535  -2.753  0.00  0.00     0.163 HD
BRANCH   9  11
ATOM     11  CA  TYR d   1      17.040  33.479  -1.645  0.00  0.00     0.093 C 
ATOM     12  H   TYR d   1      16.182  34.099  -1.905  0.00  0.00     0.088 H 
BRANCH  11  13
ATOM     13  C   TYR d   1      18.015  34.159  -0.708  0.00  0.00     0.241 C 
ATOM     14  O   TYR d   1      19.066  33.587  -0.394  0.00  0.00    -0.271 OA
ATOM     15  N   LEU d   1      17.667  35.336  -0.232  0.00  0.00    -0.346 N 
ATOM     16  H   LEU d   1      16.788  35.763  -0.526  0.00  0.00     0.163 HD
BRANCH  15  17
ATOM     17  CA  LEU d   1      18.535  36.036   0.718  0.00  0.00     0.089 C 
ATOM     18  H   LEU d   1      19.441  35.442   0.839  0.00  0.00     0.087 H 
BRANCH  17  19
ATOM     19  C   LEU d   1      17.870  36.148   2.081  0.00  0.00     0.241 C 
ATOM     20  O   LEU d   1      16.737  36.634   2.186  0.00  0.00    -0.271 OA
ATOM     21  N   ARG d   1      18.571  35.652   3.116  0.00  0.00    -0.345 N 
ATOM     22  H   ARG d   1      19.477  35.234   2.906  0.00  0.00     0.163 HD
BRANCH  21  23
ATOM     23  CA  ARG d   1      18.144  35.660   4.526  0.00  0.00     0.096 C 
ATOM     24  H   ARG d   1      17.356  34.911   4.604  0.00  0.00     0.089 H 
BRANCH  23  25
ATOM     25  C   ARG d   1      17.564  36.998   4.971  0.00  0.00     0.196 C 
ATOM     26  O   ARG d   1      16.686  37.025   5.829  0.00  0.00    -0.646 OA
ATOM     27  O1  ARG d   1      17.984  38.071   4.461  0.00  0.00    -0.646 OA
ENDBRANCH  23  25
BRANCH  23  28
ATOM     28  CB  ARG d   1      19.320  35.310   5.441  0.00  0.00    -0.035 C 
ATOM     29  H   ARG d   1      18.942  35.285   6.463  0.00  0.00     0.036 H 
ATOM     30  H   ARG d   1      20.094  36.060   5.280  0.00  0.00     0.036 H 
BRANCH  28  31
ATOM     31  CG  ARG d   1      19.931  33.960   5.151  0.00  0.00    -0.047 C 
ATOM     32  H   ARG d   1      20.123  33.882   4.081  0.00  0.00     0.035 H 
ATOM     33  H   ARG d   1      19.239  33.182   5.475  0.00  0.00     0.035 H 
BRANCH  31  34
ATOM     34  CD  ARG d   1      21.229  33.796   5.891  0.00  0.00     0.009 C 
ATOM     35  H   ARG d   1      21.327  34.573   6.650  0.00  0.00     0.064 H 
ATOM     36  H   ARG d   1      22.067  33.884   5.199  0.00  0.00     0.064 H 
BRANCH  34  37
ATOM     37  NE  ARG d   1      21.237  32.488   6.516  0.00  0.00    -0.227 N 
ATOM     38  CZ  ARG d   1      22.266  31.940   7.141  0.00  0.00     0.665 C 
ATOM     39  NH1 ARG d   1      23.414  32.601   7.261  0.00  0.00    -0.235 N 
ATOM     40  NH2 ARG d   1      22.157  30.735   7.659  0.00  0.00    -0.235 N 
ATOM     41  H   ARG d   1      23.506  33.538   6.869  0.00  0.00     0.174 HD
ATOM     42  H   ARG d   1      24.202  32.171   7.745  0.00  0.00     0.174 HD
ATOM     43  H   ARG d   1      21.279  30.223   7.579  0.00  0.00     0.174 HD
ATOM     44  H   ARG d   1      22.951  30.313   8.141  0.00  0.00     0.174 HD
ATOM     45  H   ARG d   1      20.376  31.944   6.470  0.00  0.00     0.177 HD
ENDBRANCH  34  37
ENDBRANCH  31  34
ENDBRANCH  28  31
ENDBRANCH  23  28
ENDBRANCH  21  23
ENDBRANCH  17  19
BRANCH  17  46
ATOM     46  CB  LEU d   1      18.968  37.411   0.184  0.00  0.00    -0.035 C 
ATOM     47  H   LEU d   1      19.677  37.809   0.910  0.00  0.00     0.037 H 
ATOM     48  H   LEU d   1      18.052  37.983   0.040  0.00  0.00     0.037 H 
BRANCH  46  49
ATOM     49  CG  LEU d   1      19.694  37.417  -1.171  0.00  0.00    -0.059 C 
ATOM     50  H   LEU d   1      19.097  36.827  -1.867  0.00  0.00     0.038 H 
BRANCH  49  51
ATOM     51  CD1 LEU d   1      19.799  38.821  -1.718  0.00  0.00    -0.073 C 
ATOM     52  H   LEU d   1      18.799  39.233  -1.853  0.00  0.00     0.028 H 
ATOM     53  H   LEU d   1      20.357  39.442  -1.017  0.00  0.00     0.028 H 
ATOM     54  H   LEU d   1      20.317  38.798  -2.677  0.00  0.00     0.028 H 
ENDBRANCH  49  51
BRANCH  49  55
ATOM     55  CD2 LEU d   1      21.075  36.745  -1.083  0.00  0.00    -0.073 C 
ATOM     56  H   LEU d   1      21.692  37.280  -0.361  0.00  0.00     0.028 H 
ATOM     57  H   LEU d   1      20.954  35.710  -0.764  0.00  0.00     0.028 H 
ATOM     58  H   LEU d   1      21.553  36.771  -2.062  0.00  0.00     0.028 H 
ENDBRANCH  49  55
ENDBRANCH  46  49
ENDBRANCH  17  46
ENDBRANCH  15  17
ENDBRANCH  11  13
BRANCH  11  59
ATOM     59  CB  TYR d   1      16.479  32.224  -0.964  0.00  0.00    -0.014 C 
ATOM     60  H   TYR d   1      17.303  31.530  -0.801  0.00  0.00     0.043 H 
ATOM     61  H   TYR d   1      15.708  31.804  -1.610  0.00  0.00     0.043 H 
BRANCH  59  62
ATOM     62  CG  TYR d   1      15.850  32.534   0.382  0.00  0.00    -0.056 A 
ATOM     63  CD1 TYR d   1      14.569  33.055   0.465  0.00  0.00    -0.074 A 
ATOM     64  CE1 TYR d   1      13.994  33.369   1.696  0.00  0.00    -0.051 A 
ATOM     65  H   TYR d   1      14.000  33.223  -0.449  0.00  0.00     0.084 H 
ATOM     66  CZ  TYR d   1      14.709  33.162   2.862  0.00  0.00     0.065 A 
ATOM     67  H   TYR d   1      12.984  33.776   1.739  0.00  0.00     0.087 H 
ATOM     68  CE2 TYR d   1      15.989  32.649   2.807  0.00  0.00    -0.051 A 
ATOM     69  CD2 TYR d   1      16.563  32.361   1.564  0.00  0.00    -0.074 A 
ATOM     70  H   TYR d   1      16.549  32.469   3.725  0.00  0.00     0.087 H 
ATOM     71  H   TYR d   1      17.588  31.994   1.521  0.00  0.00     0.084 H 
BRANCH  66  72
ATOM     72  OH  TYR d   1      14.123  33.421   4.078  0.00  0.00    -0.361 OA
ATOM     73  H   TYR d   1      14.069  32.608   4.586  0.00  0.00     0.217 HD
ENDBRANCH  66  72
ENDBRANCH  59  62
ENDBRANCH  11  59
ENDBRANCH   9  11
ENDBRANCH   5   7
BRANCH   5  74
ATOM     74  CB  VAL d   1      19.437  34.514  -5.502  0.00  0.00    -0.033 C 
ATOM     75  H   VAL d   1      18.835  35.407  -5.672  0.00  0.00     0.042 H 
BRANCH  74  76
ATOM     76  CG1 VAL d   1      20.353  34.780  -4.311  0.00  0.00    -0.071 C 
ATOM     77  H   VAL d   1      19.750  35.042  -3.442  0.00  0.00     0.028 H 
ATOM     78  H   VAL d   1      20.934  33.884  -4.094  0.00  0.00     0.028 H 
ATOM     79  H   VAL d   1      21.027  35.603  -4.549  0.00  0.00     0.028 H 
ENDBRANCH  74  76
BRANCH  74  80
ATOM     80  CG2 VAL d   1      20.265  34.242  -6.754  0.00  0.00    -0.071 C 
ATOM     81  H   VAL d   1      20.840  33.327  -6.616  0.00  0.00     0.028 H 
ATOM     82  H   VAL d   1      19.600  34.129  -7.610  0.00  0.00     0.028 H 
ATOM     83  H   VAL d   1      20.944  35.077  -6.927  0.00  0.00     0.028 H 
ENDBRANCH  74  80
ENDBRANCH   5  74
ENDBRANCH   3   5
BRANCH   1  84
ATOM     84  CA  GLU d   1      16.130  31.803  -7.800  0.00  0.00     0.090 C 
ATOM     85  H   GLU d   1      16.552  32.363  -8.635  0.00  0.00     0.087 H 
BRANCH  84  86
ATOM     86  N   GLU d   1      15.972  30.421  -8.263  0.00  0.00    -0.346 N 
ATOM     87  C   ALA d   1      16.247  30.064  -9.532  0.00  0.00     0.240 C 
ATOM     88  O   ALA d   1      16.726  30.857 -10.369  0.00  0.00    -0.271 OA
ATOM     89  H   GLU d   1      15.645  29.712  -7.607  0.00  0.00     0.163 HD
BRANCH  87  90
ATOM     90  CA  ALA d   1      16.051  28.608  -9.905  0.00  0.00     0.086 C 
ATOM     91  H   ALA d   1      17.045  28.172 -10.007  0.00  0.00     0.086 H 
BRANCH  90  92
ATOM     92  N   ALA d   1      15.326  27.874  -8.864  0.00  0.00    -0.346 N 
ATOM     93  C   ARG d   1      15.995  27.295  -7.867  0.00  0.00     0.241 C 
ATOM     94  O   ARG d   1      17.226  27.356  -7.764  0.00  0.00    -0.271 OA
ATOM     95  H   ALA d   1      14.309  27.806  -8.902  0.00  0.00     0.163 HD
BRANCH  93  96
ATOM     96  CA  ARG d   1      15.162  26.528  -6.835  0.00  0.00     0.089 C 
ATOM     97  H   ARG d   1      15.623  26.703  -5.863  0.00  0.00     0.087 H 
BRANCH  96  98
ATOM     98  N   ARG d   1      13.779  27.021  -6.741  0.00  0.00    -0.346 N 
ATOM     99  C   ALA d   1      13.563  28.290  -6.355  0.00  0.00     0.240 C 
ATOM    100  O   ALA d   1      14.496  29.048  -6.093  0.00  0.00    -0.271 OA
ATOM    101  H   ARG d   1      12.995  26.408  -6.966  0.00  0.00     0.163 HD
BRANCH  99 102
ATOM    102  CA  ALA d   1      12.129  28.800  -6.262  0.00  0.00     0.086 C 
ATOM    103  H   ALA d   1      12.174  29.875  -6.435  0.00  0.00     0.086 H 
BRANCH 102 104
ATOM    104  N   ALA d   1      11.244  28.231  -7.296  0.00  0.00    -0.346 N 
ATOM    105  C   ALA d   1      11.537  28.368  -8.594  0.00  0.00     0.240 C 
ATOM    106  O   ALA d   1      12.581  28.910  -8.999  0.00  0.00    -0.271 OA
ATOM    107  H   ALA d   1      10.401  27.728  -7.019  0.00  0.00     0.163 HD
BRANCH 105 108
ATOM    108  CA  ALA d   1      10.546  27.812  -9.584  0.00  0.00     0.086 C 
ATOM    109  H   ALA d   1       9.600  27.569  -9.101  0.00  0.00     0.086 H 
BRANCH 108 110
ATOM    110  N   ALA d   1      10.363  28.849 -10.617  0.00  0.00    -0.347 N 
ATOM    111  C   GLY d   1       9.143  29.249 -10.994  0.00  0.00     0.243 C 
ATOM    112  O   GLY d   1       8.109  28.768 -10.528  0.00  0.00    -0.272 OA
ATOM    113  H   ALA d   1      11.184  29.270 -11.053  0.00  0.00     0.163 HD
BRANCH 111 114
ATOM    114  CA  GLY d   1       9.070  30.374 -12.002  0.00  0.00     0.152 C 
ATOM    115  H   GLY d   1       9.887  31.073 -11.822  0.00  0.00     0.090 H 
ATOM    116  H   GLY d   1       9.152  29.963 -13.008  0.00  0.00     0.090 H 
BRANCH 114 117
ATOM    117  N   GLY d   1       7.794  31.076 -11.868  0.00  0.00    -0.071 N 
ATOM    118  H   GLY d   1       7.751  31.833 -12.550  0.00  0.00     0.274 HD
ATOM    119  H   GLY d   1       7.029  30.423 -12.034  0.00  0.00     0.274 HD
ATOM    120  H   GLY d   1       7.716  31.460 -10.926  0.00  0.00     0.274 HD
ENDBRANCH 114 117
ENDBRANCH 111 114
ENDBRANCH 108 110
BRANCH 108 121
ATOM    121  CB  ALA d   1      11.070  26.529 -10.199  0.00  0.00    -0.049 C 
ATOM    122  H   ALA d   1      12.009  26.732 -10.714  0.00  0.00     0.030 H 
ATOM    123  H   ALA d   1      11.236  25.792  -9.413  0.00  0.00     0.030 H 
ATOM    124  H   ALA d   1      10.340  26.144 -10.911  0.00  0.00     0.030 H 
ENDBRANCH 108 121
ENDBRANCH 105 108
ENDBRANCH 102 104
BRANCH 102 125
ATOM    125  CB  ALA d   1      11.553  28.520  -4.881  0.00  0.00    -0.049 C 
ATOM    126  H   ALA d   1      10.566  28.975  -4.802  0.00  0.00     0.030 H 
ATOM    127  H   ALA d   1      11.472  27.443  -4.734  0.00  0.00     0.030 H 
ATOM    128  H   ALA d   1      12.211  28.943  -4.122  0.00  0.00     0.030 H 
ENDBRANCH 102 125
ENDBRANCH  99 102
ENDBRANCH  96  98
BRANCH  96 129
ATOM    129  CB  ARG d   1      15.185  25.029  -7.133  0.00  0.00    -0.036 C 
ATOM    130  H   ARG d   1      14.897  24.868  -8.172  0.00  0.00     0.036 H 
ATOM    131  H   ARG d   1      14.488  24.522  -6.465  0.00  0.00     0.036 H 
BRANCH 129 132
ATOM    132  CG  ARG d   1      16.592  24.465  -6.910  0.00  0.00    -0.048 C 
ATOM    133  H   ARG d   1      16.869  24.647  -5.872  0.00  0.00     0.035 H 
ATOM    134  H   ARG d   1      17.268  24.956  -7.610  0.00  0.00     0.035 H 
BRANCH 132 135
ATOM    135  CD  ARG d   1      16.658  22.967  -7.161  0.00  0.00     0.009 C 
ATOM    136  H   ARG d   1      17.688  22.643  -7.012  0.00  0.00     0.064 H 
ATOM    137  H   ARG d   1      16.310  22.777  -8.177  0.00  0.00     0.064 H 
BRANCH 135 138
ATOM    138  NE  ARG d   1      15.809  22.218  -6.243  0.00  0.00    -0.227 N 
ATOM    139  CZ  ARG d   1      16.221  21.721  -5.081  0.00  0.00     0.665 C 
ATOM    140  NH1 ARG d   1      17.478  21.902  -4.680  0.00  0.00    -0.235 N 
ATOM    141  NH2 ARG d   1      15.383  21.050  -4.307  0.00  0.00    -0.235 N 
ATOM    142  H   ARG d   1      18.130  22.424  -5.265  0.00  0.00     0.174 HD
ATOM    143  H   ARG d   1      17.789  21.518  -3.787  0.00  0.00     0.174 HD
ATOM    144  H   ARG d   1      14.416  20.912  -4.601  0.00  0.00     0.174 HD
ATOM    145  H   ARG d   1      15.704  20.671  -3.416  0.00  0.00     0.174 HD
ATOM    146  H   ARG d   1      14.836  22.065  -6.509  0.00  0.00     0.177 HD
ENDBRANCH 135 138
ENDBRANCH 132 135
ENDBRANCH 129 132
ENDBRANCH  96 129
ENDBRANCH  93  96
ENDBRANCH  90  92
BRANCH  90 147
ATOM    147  CB  ALA d   1      15.309  28.478 -11.227  0.00  0.00    -0.049 C 
ATOM    148  H   ALA d   1      15.242  27.426 -11.503  0.00  0.00     0.030 H 
ATOM    149  H   ALA d   1      14.306  28.891 -11.121  0.00  0.00     0.030 H 
ATOM    150  H   ALA d   1      15.849  29.024 -12.001  0.00  0.00     0.030 H 
ENDBRANCH  90 147
ENDBRANCH  87  90
ENDBRANCH  84  86
BRANCH  84 151
ATOM    151  CB  GLU d   1      14.763  32.399  -7.379  0.00  0.00    -0.029 C 
ATOM    152  H   GLU d   1      14.916  33.464  -7.202  0.00  0.00     0.037 H 
ATOM    153  H   GLU d   1      14.427  31.846  -6.502  0.00  0.00     0.037 H 
BRANCH 151 154
ATOM    154  CG  GLU d   1      13.683  32.270  -8.431  0.00  0.00     0.018 C 
ATOM    155  H   GLU d   1      12.749  32.545  -7.941  0.00  0.00     0.049 H 
ATOM    156  H   GLU d   1      13.749  31.250  -8.810  0.00  0.00     0.049 H 
BRANCH 154 157
ATOM    157  CD  GLU d   1      13.808  33.178  -9.640  0.00  0.00     0.172 C 
ATOM    158  OE1 GLU d   1      14.669  34.085  -9.629  0.00  0.00    -0.648 OA
ATOM    159  OE2 GLU d   1      13.029  32.984 -10.599  0.00  0.00    -0.648 OA
ENDBRANCH 154 157
ENDBRANCH 151 154
ENDBRANCH  84 151
ENDBRANCH   1  84
TORSDOF 44
