REMARK WARNING: 32 MAX_TORS EXCEEDED!!!
REMARK  34 active torsions:
REMARK  status: ('A' for Active; 'I' for Inactive)
REMARK    1  A    between atoms: N_1  and  CA_2 
REMARK    2  A    between atoms: CA_2  and  C_3 
REMARK       I    between atoms: C_3  and  N_5 
REMARK    3  A    between atoms: N_5  and  CA_6 
REMARK    4  A    between atoms: CA_6  and  C_7 
REMARK    5  A    between atoms: CA_6  and  CB_9 
REMARK       I    between atoms: C_7  and  N_11 
REMARK    6  A    between atoms: CB_9  and  OG_10 
REMARK    7  A    between atoms: N_11  and  CA_12 
REMARK    8  A    between atoms: CA_12  and  C_13 
REMARK    9  A    between atoms: CA_12  and  CB_15 
REMARK       I    between atoms: C_13  and  N_16 
REMARK   10  A    between atoms: N_16  and  CA_17 
REMARK   11  A    between atoms: CA_17  and  C_18 
REMARK   12  A    between atoms: CA_17  and  CB_20 
REMARK       I    between atoms: C_18  and  N_27 
REMARK   13  A    between atoms: CB_20  and  CG_21 
REMARK   14  A    between atoms: CG_21  and  CD_22 
REMARK   15  A    between atoms: CD_22  and  NE_23 
REMARK       I    between atoms: NE_23  and  CZ_24 
REMARK       I    between atoms: CZ_24  and  NH1_25 
REMARK   16  A    between atoms: N_27  and  CA_28 
REMARK   17  A    between atoms: CA_28  and  C_29 
REMARK   18  A    between atoms: CA_28  and  CB_31 
REMARK       I    between atoms: C_29  and  N_33 
REMARK   19  A    between atoms: CB_31  and  OG_32 
REMARK   20  A    between atoms: N_33  and  CA_34 
REMARK   21  A    between atoms: CA_34  and  C_35 
REMARK   22  A    between atoms: CA_34  and  CB_37 
REMARK       I    between atoms: C_35  and  N_38 
REMARK   23  A    between atoms: N_38  and  CA_39 
REMARK   24  A    between atoms: CA_39  and  C_40 
REMARK       I    between atoms: C_40  and  N_42 
REMARK   25  A    between atoms: N_42  and  CA_43 
REMARK   26  A    between atoms: CA_43  and  C_44 
REMARK   27  A    between atoms: CA_43  and  CB_46 
REMARK       I    between atoms: C_44  and  N_54 
REMARK   28  A    between atoms: CB_46  and  CG_47 
REMARK   29  A    between atoms: CZ_52  and  OH_53 
REMARK   30  A    between atoms: N_54  and  CA_55 
REMARK   31  A    between atoms: CA_55  and  C_56 
REMARK   32  A    between atoms: CA_55  and  CB_58 
REMARK   33  A    between atoms: CB_58  and  CG_59 
REMARK   34  A    between atoms: CZ_64  and  OH_65 
ROOT
ATOM      1  CA  SER d   1      -6.215  16.396  -2.997  0.00  0.00     0.109 C 
ATOM      2  H   SER d   1      -6.775  16.527  -3.923  0.00  0.00     0.090 H 
ENDROOT
BRANCH   1   3
ATOM      3  N   SER d   1      -6.494  15.011  -2.552  0.00  0.00    -0.344 N 
ATOM      4  C   ARG d   1      -6.562  13.961  -3.400  0.00  0.00     0.241 C 
ATOM      5  O   ARG d   1      -6.413  14.064  -4.621  0.00  0.00    -0.271 OA
ATOM      6  H   SER d   1      -6.642  14.842  -1.557  0.00  0.00     0.163 HD
BRANCH   4   7
ATOM      7  CA  ARG d   1      -6.890  12.581  -2.805  0.00  0.00     0.089 C 
ATOM      8  H   ARG d   1      -6.503  11.849  -3.514  0.00  0.00     0.087 H 
BRANCH   7   9
ATOM      9  N   ARG d   1      -6.208  12.296  -1.535  0.00  0.00    -0.346 N 
ATOM     10  C   ALA d   1      -4.858  12.208  -1.509  0.00  0.00     0.240 C 
ATOM     11  O   ALA d   1      -4.163  12.443  -2.501  0.00  0.00    -0.271 OA
ATOM     12  H   ARG d   1      -6.748  12.165  -0.680  0.00  0.00     0.163 HD
BRANCH  10  13
ATOM     13  CA  ALA d   1      -4.191  11.918  -0.177  0.00  0.00     0.086 C 
ATOM     14  H   ALA d   1      -3.147  12.224  -0.252  0.00  0.00     0.086 H 
BRANCH  13  15
ATOM     15  N   ALA d   1      -4.806  12.693   0.915  0.00  0.00    -0.346 N 
ATOM     16  C   SER d   1      -4.865  14.027   0.864  0.00  0.00     0.243 C 
ATOM     17  O   SER d   1      -4.419  14.687  -0.074  0.00  0.00    -0.271 OA
ATOM     18  H   ALA d   1      -5.193  12.204   1.722  0.00  0.00     0.163 HD
BRANCH  16  19
ATOM     19  CA  SER d   1      -5.539  14.751   2.006  0.00  0.00     0.109 C 
ATOM     20  H   SER d   1      -5.329  14.287   2.970  0.00  0.00     0.090 H 
BRANCH  19  21
ATOM     21  N   SER d   1      -5.023  16.108   1.910  0.00  0.00    -0.344 N 
ATOM     22  C   GLY d   1      -4.610  16.788   2.965  0.00  0.00     0.243 C 
ATOM     23  O   GLY d   1      -4.732  16.373   4.130  0.00  0.00    -0.272 OA
ATOM     24  H   SER d   1      -4.978  16.552   0.993  0.00  0.00     0.163 HD
BRANCH  22  25
ATOM     25  CA  GLY d   1      -3.966  18.124   2.634  0.00  0.00     0.152 C 
ATOM     26  H   GLY d   1      -3.107  17.922   1.994  0.00  0.00     0.090 H 
ATOM     27  H   GLY d   1      -4.728  18.745   2.163  0.00  0.00     0.090 H 
BRANCH  25  28
ATOM     28  N   GLY d   1      -3.481  18.841   3.796  0.00  0.00    -0.071 N 
ATOM     29  H   GLY d   1      -3.064  19.723   3.500  0.00  0.00     0.274 HD
ATOM     30  H   GLY d   1      -4.259  19.027   4.429  0.00  0.00     0.274 HD
ATOM     31  H   GLY d   1      -2.780  18.276   4.275  0.00  0.00     0.274 HD
ENDBRANCH  25  28
ENDBRANCH  22  25
ENDBRANCH  19  21
BRANCH  19  32
ATOM     32  CB  SER d   1      -7.069  14.720   1.885  0.00  0.00     0.044 C 
ATOM     33  H   SER d   1      -7.489  15.443   2.584  0.00  0.00     0.077 H 
ATOM     34  H   SER d   1      -7.416  13.711   2.108  0.00  0.00     0.077 H 
BRANCH  32  35
ATOM     35  OG  SER d   1      -7.485  15.064   0.570  0.00  0.00    -0.398 OA
ATOM     36  H   SER d   1      -7.178  15.949   0.359  0.00  0.00     0.209 HD
ENDBRANCH  32  35
ENDBRANCH  19  32
ENDBRANCH  16  19
ENDBRANCH  13  15
BRANCH  13  37
ATOM     37  CB  ALA d   1      -4.247  10.445   0.125  0.00  0.00    -0.049 C 
ATOM     38  H   ALA d   1      -3.707  10.244   1.050  0.00  0.00     0.030 H 
ATOM     39  H   ALA d   1      -5.287  10.137   0.236  0.00  0.00     0.030 H 
ATOM     40  H   ALA d   1      -3.788   9.890  -0.693  0.00  0.00     0.030 H 
ENDBRANCH  13  37
ENDBRANCH  10  13
ENDBRANCH   7   9
BRANCH   7  41
ATOM     41  CB  ARG d   1      -8.424  12.405  -2.659  0.00  0.00    -0.036 C 
ATOM     42  H   ARG d   1      -8.806  13.255  -2.094  0.00  0.00     0.036 H 
ATOM     43  H   ARG d   1      -8.605  11.452  -2.161  0.00  0.00     0.036 H 
BRANCH  41  44
ATOM     44  CG  ARG d   1      -9.147  12.375  -4.007  0.00  0.00    -0.048 C 
ATOM     45  H   ARG d   1      -8.769  11.541  -4.599  0.00  0.00     0.035 H 
ATOM     46  H   ARG d   1      -8.969  13.314  -4.531  0.00  0.00     0.035 H 
BRANCH  44  47
ATOM     47  CD  ARG d   1     -10.641  12.198  -3.791  0.00  0.00     0.009 C 
ATOM     48  H   ARG d   1     -11.125  12.200  -4.768  0.00  0.00     0.064 H 
ATOM     49  H   ARG d   1     -10.988  13.011  -3.152  0.00  0.00     0.064 H 
BRANCH  47  50
ATOM     50  NE  ARG d   1     -10.965  10.931  -3.128  0.00  0.00    -0.227 N 
ATOM     51  CZ  ARG d   1     -11.116   9.784  -3.767  0.00  0.00     0.665 C 
ATOM     52  NH1 ARG d   1     -11.003   9.733  -5.094  0.00  0.00    -0.235 N 
ATOM     53  NH2 ARG d   1     -11.400   8.678  -3.093  0.00  0.00    -0.235 N 
ATOM     54  H   ARG d   1     -10.799  10.582  -5.622  0.00  0.00     0.174 HD
ATOM     55  H   ARG d   1     -11.120   8.845  -5.582  0.00  0.00     0.174 HD
ATOM     56  H   ARG d   1     -11.502   8.711  -2.079  0.00  0.00     0.174 HD
ATOM     57  H   ARG d   1     -11.516   7.794  -3.589  0.00  0.00     0.174 HD
ATOM     58  H   ARG d   1     -11.081  10.935  -2.115  0.00  0.00     0.177 HD
ENDBRANCH  47  50
ENDBRANCH  44  47
ENDBRANCH  41  44
ENDBRANCH   7  41
ENDBRANCH   4   7
ENDBRANCH   1   3
BRANCH   1  59
ATOM     59  C   SER d   1      -4.752  16.639  -3.365  0.00  0.00     0.243 C 
ATOM     60  O   SER d   1      -4.459  17.588  -4.083  0.00  0.00    -0.271 OA
ATOM     61  N   GLU d   1      -3.847  15.761  -2.926  0.00  0.00    -0.346 N 
ATOM     62  H   GLU d   1      -4.171  14.997  -2.333  0.00  0.00     0.163 HD
BRANCH  61  63
ATOM     63  CA  GLU d   1      -2.404  15.826  -3.246  0.00  0.00     0.086 C 
ATOM     64  H   GLU d   1      -2.071  16.857  -3.128  0.00  0.00     0.086 H 
BRANCH  63  65
ATOM     65  C   GLU d   1      -2.158  15.384  -4.694  0.00  0.00     0.240 C 
ATOM     66  O   GLU d   1      -1.411  16.048  -5.417  0.00  0.00    -0.271 OA
ATOM     67  N   GLY d   1      -2.784  14.274  -5.118  0.00  0.00    -0.351 N 
ATOM     68  H   GLY d   1      -3.388  13.769  -4.470  0.00  0.00     0.163 HD
BRANCH  67  69
ATOM     69  CA  GLY d   1      -2.626  13.768  -6.478  0.00  0.00     0.069 C 
ATOM     70  H   GLY d   1      -2.420  14.633  -7.108  0.00  0.00     0.078 H 
ATOM     71  H   GLY d   1      -3.539  13.221  -6.713  0.00  0.00     0.078 H 
BRANCH  69  72
ATOM     72  C   GLY d   1      -1.469  12.792  -6.689  0.00  0.00     0.236 C 
ATOM     73  O   GLY d   1      -0.710  12.502  -5.754  0.00  0.00    -0.272 OA
ATOM     74  N   TYR d   1      -1.349  12.276  -7.933  0.00  0.00    -0.346 N 
ATOM     75  H   TYR d   1      -1.996  12.633  -8.636  0.00  0.00     0.163 HD
BRANCH  74  76
ATOM     76  CA  TYR d   1      -0.398  11.266  -8.382  0.00  0.00     0.093 C 
ATOM     77  H   TYR d   1      -0.204  10.633  -7.516  0.00  0.00     0.088 H 
BRANCH  76  78
ATOM     78  C   TYR d   1       0.976  11.797  -8.808  0.00  0.00     0.241 C 
ATOM     79  O   TYR d   1       1.057  12.774  -9.548  0.00  0.00    -0.271 OA
ATOM     80  N   TYR d   1       2.048  11.061  -8.433  0.00  0.00    -0.344 N 
ATOM     81  H   TYR d   1       1.886  10.256  -7.828  0.00  0.00     0.163 HD
BRANCH  80  82
ATOM     82  CA  TYR d   1       3.427  11.346  -8.841  0.00  0.00     0.100 C 
ATOM     83  H   TYR d   1       3.355  12.037  -9.681  0.00  0.00     0.090 H 
BRANCH  82  84
ATOM     84  C   TYR d   1       4.144  10.104  -9.333  0.00  0.00     0.197 C 
ATOM     85  O   TYR d   1       4.399  10.001 -10.528  0.00  0.00    -0.646 OA
ATOM     86  O   TYR d   1       4.472   9.193  -8.527  0.00  0.00    -0.646 OA
ENDBRANCH  82  84
BRANCH  82  87
ATOM     87  CB  TYR d   1       4.233  12.061  -7.747  0.00  0.00    -0.013 C 
ATOM     88  H   TYR d   1       5.283  12.069  -8.038  0.00  0.00     0.043 H 
ATOM     89  H   TYR d   1       4.089  11.530  -6.806  0.00  0.00     0.043 H 
BRANCH  87  90
ATOM     90  CG  TYR d   1       3.772  13.483  -7.572  0.00  0.00    -0.056 A 
ATOM     91  CD1 TYR d   1       4.166  14.478  -8.463  0.00  0.00    -0.074 A 
ATOM     92  CE1 TYR d   1       3.690  15.778  -8.348  0.00  0.00    -0.051 A 
ATOM     93  H   TYR d   1       4.861  14.232  -9.266  0.00  0.00     0.084 H 
ATOM     94  CZ  TYR d   1       2.809  16.100  -7.329  0.00  0.00     0.065 A 
ATOM     95  H   TYR d   1       4.009  16.542  -9.057  0.00  0.00     0.087 H 
ATOM     96  CE2 TYR d   1       2.385  15.120  -6.446  0.00  0.00    -0.051 A 
ATOM     97  CD2 TYR d   1       2.846  13.817  -6.589  0.00  0.00    -0.074 A 
ATOM     98  H   TYR d   1       1.692  15.370  -5.642  0.00  0.00     0.087 H 
ATOM     99  H   TYR d   1       2.475  13.042  -5.918  0.00  0.00     0.084 H 
BRANCH  94 100
ATOM    100  OH  TYR d   1       2.321  17.378  -7.222  0.00  0.00    -0.361 OA
ATOM    101  H   TYR d   1       2.714  17.927  -7.904  0.00  0.00     0.217 HD
ENDBRANCH  94 100
ENDBRANCH  87  90
ENDBRANCH  82  87
ENDBRANCH  80  82
ENDBRANCH  76  78
BRANCH  76 102
ATOM    102  CB  TYR d   1      -1.030  10.484  -9.563  0.00  0.00    -0.014 C 
ATOM    103  H   TYR d   1      -1.179  11.204 -10.368  0.00  0.00     0.043 H 
ATOM    104  H   TYR d   1      -1.936  10.018  -9.177  0.00  0.00     0.043 H 
BRANCH 102 105
ATOM    105  CG  TYR d   1      -0.179   9.366 -10.136  0.00  0.00    -0.056 A 
ATOM    106  CD1 TYR d   1       0.177   8.269  -9.359  0.00  0.00    -0.074 A 
ATOM    107  CE1 TYR d   1       0.947   7.231  -9.882  0.00  0.00    -0.051 A 
ATOM    108  H   TYR d   1      -0.152   8.220  -8.321  0.00  0.00     0.084 H 
ATOM    109  CZ  TYR d   1       1.365   7.277 -11.202  0.00  0.00     0.065 A 
ATOM    110  H   TYR d   1       1.220   6.384  -9.253  0.00  0.00     0.087 H 
ATOM    111  CE2 TYR d   1       1.007   8.351 -12.006  0.00  0.00    -0.051 A 
ATOM    112  CD2 TYR d   1       0.242   9.390 -11.469  0.00  0.00    -0.074 A 
ATOM    113  H   TYR d   1       1.321   8.383 -13.049  0.00  0.00     0.087 H 
ATOM    114  H   TYR d   1      -0.032  10.235 -12.101  0.00  0.00     0.084 H 
BRANCH 109 115
ATOM    115  OH  TYR d   1       2.129   6.249 -11.705  0.00  0.00    -0.361 OA
ATOM    116  H   TYR d   1       2.280   5.597 -11.016  0.00  0.00     0.217 HD
ENDBRANCH 109 115
ENDBRANCH 102 105
ENDBRANCH  76 102
ENDBRANCH  74  76
ENDBRANCH  69  72
ENDBRANCH  67  69
ENDBRANCH  63  65
BRANCH  63 117
ATOM    117  CB  GLU d   1      -1.606  14.924  -2.288  0.00  0.00    -0.049 C 
ATOM    118  H   GLU d   1      -1.760  15.259  -1.262  0.00  0.00     0.030 H 
ATOM    119  H   GLU d   1      -1.949  13.894  -2.390  0.00  0.00     0.030 H 
ATOM    120  H   GLU d   1      -0.546  14.982  -2.535  0.00  0.00     0.030 H 
ENDBRANCH  63 117
ENDBRANCH  61  63
ENDBRANCH   1  59
BRANCH   1 121
ATOM    121  CB  SER d   1      -6.729  17.430  -1.988  0.00  0.00     0.044 C 
ATOM    122  H   SER d   1      -7.775  17.204  -1.783  0.00  0.00     0.077 H 
ATOM    123  H   SER d   1      -6.587  18.419  -2.423  0.00  0.00     0.077 H 
BRANCH 121 124
ATOM    124  OG  SER d   1      -6.028  17.393  -0.756  0.00  0.00    -0.398 OA
ATOM    125  H   SER d   1      -6.125  16.524  -0.360  0.00  0.00     0.209 HD
ENDBRANCH 121 124
ENDBRANCH   1 121
TORSDOF 34
