REMARK WARNING: 32 MAX_TORS EXCEEDED!!!
REMARK  33 active torsions:
REMARK  status: ('A' for Active; 'I' for Inactive)
REMARK    1  A    between atoms: N_1  and  CA_2 
REMARK    2  A    between atoms: CA_2  and  C_3 
REMARK    3  A    between atoms: CA_2  and  CB_5 
REMARK       I    between atoms: C_3  and  N_7 
REMARK    4  A    between atoms: CB_5  and  SG_6 
REMARK    5  A    between atoms: N_7  and  CA_8 
REMARK    6  A    between atoms: CA_8  and  C_9 
REMARK    7  A    between atoms: CA_8  and  CB_11 
REMARK       I    between atoms: C_9  and  N_12 
REMARK    8  A    between atoms: N_12  and  CA_13 
REMARK    9  A    between atoms: CA_13  and  C_14 
REMARK   10  A    between atoms: CA_13  and  CB_16 
REMARK       I    between atoms: C_14  and  N_23 
REMARK   11  A    between atoms: CB_16  and  CG_17 
REMARK   12  A    between atoms: CG_17  and  CD_18 
REMARK   13  A    between atoms: CD_18  and  NE_19 
REMARK       I    between atoms: NE_19  and  CZ_20 
REMARK       I    between atoms: CZ_20  and  NH1_21 
REMARK   14  A    between atoms: N_23  and  CA_24 
REMARK   15  A    between atoms: CA_24  and  C_25 
REMARK   16  A    between atoms: CA_24  and  CB_27 
REMARK       I    between atoms: C_25  and  N_29 
REMARK   17  A    between atoms: CB_27  and  OG_28 
REMARK   18  A    between atoms: N_29  and  CA_30 
REMARK   19  A    between atoms: CA_30  and  C_31 
REMARK   20  A    between atoms: CA_30  and  CB_33 
REMARK       I    between atoms: C_31  and  N_34 
REMARK   21  A    between atoms: N_34  and  CA_35 
REMARK   22  A    between atoms: CA_35  and  C_36 
REMARK       I    between atoms: C_36  and  N_38 
REMARK   23  A    between atoms: N_38  and  CA_39 
REMARK   24  A    between atoms: CA_39  and  C_40 
REMARK   25  A    between atoms: CA_39  and  CB_42 
REMARK       I    between atoms: C_40  and  N_43 
REMARK   26  A    between atoms: N_43  and  CA_44 
REMARK   27  A    between atoms: CA_44  and  C_45 
REMARK   28  A    between atoms: CA_44  and  CB_47 
REMARK       I    between atoms: C_45  and  N_48 
REMARK   29  A    between atoms: N_48  and  CA_49 
REMARK   30  A    between atoms: CA_49  and  C_50 
REMARK   31  A    between atoms: CA_49  and  CB_52 
REMARK   32  A    between atoms: CB_52  and  OG1_53 
REMARK   33  A    between atoms: CB_52  and  CG2_54 
ROOT
ATOM      1  CA  SER d   1     -14.942 -23.075  15.792  0.00  0.00     0.109 C 
ATOM      2  H   SER d   1     -15.667 -22.379  15.370  0.00  0.00     0.090 H 
ENDROOT
BRANCH   1   3
ATOM      3  N   SER d   1     -14.296 -22.356  16.901  0.00  0.00    -0.344 N 
ATOM      4  C   ARG d   1     -15.000 -21.560  17.724  0.00  0.00     0.241 C 
ATOM      5  O   ARG d   1     -16.214 -21.382  17.604  0.00  0.00    -0.271 OA
ATOM      6  H   SER d   1     -13.293 -22.464  17.049  0.00  0.00     0.163 HD
BRANCH   4   7
ATOM      7  CA  ARG d   1     -14.247 -20.853  18.855  0.00  0.00     0.089 C 
ATOM      8  H   ARG d   1     -15.006 -20.614  19.600  0.00  0.00     0.087 H 
BRANCH   7   9
ATOM      9  N   ARG d   1     -13.283 -21.696  19.561  0.00  0.00    -0.346 N 
ATOM     10  C   ALA d   1     -13.676 -22.773  20.251  0.00  0.00     0.240 C 
ATOM     11  O   ALA d   1     -14.862 -23.107  20.357  0.00  0.00    -0.271 OA
ATOM     12  H   ARG d   1     -12.292 -21.458  19.527  0.00  0.00     0.163 HD
BRANCH  10  13
ATOM     13  CA  ALA d   1     -12.591 -23.578  20.967  0.00  0.00     0.086 C 
ATOM     14  H   ALA d   1     -13.018 -24.569  21.124  0.00  0.00     0.086 H 
BRANCH  13  15
ATOM     15  N   ALA d   1     -11.371 -23.789  20.176  0.00  0.00    -0.346 N 
ATOM     16  C   CYS d   1     -11.363 -24.496  19.035  0.00  0.00     0.249 C 
ATOM     17  O   CYS d   1     -12.389 -24.975  18.537  0.00  0.00    -0.271 OA
ATOM     18  H   ALA d   1     -10.496 -23.382  20.507  0.00  0.00     0.163 HD
BRANCH  16  19
ATOM     19  CA  CYS d   1     -10.007 -24.667  18.337  0.00  0.00     0.183 C 
ATOM     20  H   CYS d   1      -9.316 -24.037  18.898  0.00  0.00     0.100 H 
BRANCH  19  21
ATOM     21  N   CYS d   1      -9.486 -26.049  18.399  0.00  0.00    -0.066 N 
ATOM     22  H   CYS d   1      -9.465 -26.360  19.370  0.00  0.00     0.275 HD
ATOM     23  H   CYS d   1     -10.092 -26.664  17.857  0.00  0.00     0.275 HD
ATOM     24  H   CYS d   1      -8.542 -26.073  18.013  0.00  0.00     0.275 HD
ENDBRANCH  19  21
BRANCH  19  25
ATOM     25  CB  CYS d   1     -10.045 -24.185  16.892  0.00  0.00     0.009 C 
ATOM     26  H   CYS d   1     -10.782 -24.798  16.373  0.00  0.00     0.052 H 
ATOM     27  H   CYS d   1      -9.029 -24.266  16.505  0.00  0.00     0.052 H 
BRANCH  25  28
ATOM     28  SG  CYS d   1     -10.553 -22.458  16.680  0.00  0.00    -0.180 SA
ATOM     29  H   CYS d   1      -9.704 -21.665  17.327  0.00  0.00     0.101 HD
ENDBRANCH  25  28
ENDBRANCH  19  25
ENDBRANCH  16  19
ENDBRANCH  13  15
BRANCH  13  30
ATOM     30  CB  ALA d   1     -12.250 -22.941  22.301  0.00  0.00    -0.049 C 
ATOM     31  H   ALA d   1     -11.576 -23.596  22.853  0.00  0.00     0.030 H 
ATOM     32  H   ALA d   1     -11.765 -21.980  22.130  0.00  0.00     0.030 H 
ATOM     33  H   ALA d   1     -13.164 -22.791  22.875  0.00  0.00     0.030 H 
ENDBRANCH  13  30
ENDBRANCH  10  13
ENDBRANCH   7   9
BRANCH   7  34
ATOM     34  CB  ARG d   1     -13.614 -19.539  18.373  0.00  0.00    -0.036 C 
ATOM     35  H   ARG d   1     -13.079 -19.722  17.441  0.00  0.00     0.036 H 
ATOM     36  H   ARG d   1     -12.927 -19.173  19.136  0.00  0.00     0.036 H 
BRANCH  34  37
ATOM     37  CG  ARG d   1     -14.697 -18.488  18.130  0.00  0.00    -0.048 C 
ATOM     38  H   ARG d   1     -15.174 -18.284  19.089  0.00  0.00     0.035 H 
ATOM     39  H   ARG d   1     -15.377 -18.889  17.378  0.00  0.00     0.035 H 
BRANCH  37  40
ATOM     40  CD  ARG d   1     -14.172 -17.193  17.610  0.00  0.00     0.009 C 
ATOM     41  H   ARG d   1     -15.027 -16.543  17.422  0.00  0.00     0.064 H 
ATOM     42  H   ARG d   1     -13.590 -17.410  16.714  0.00  0.00     0.064 H 
BRANCH  40  43
ATOM     43  NE  ARG d   1     -13.292 -16.505  18.553  0.00  0.00    -0.227 N 
ATOM     44  CZ  ARG d   1     -13.708 -15.621  19.449  0.00  0.00     0.665 C 
ATOM     45  NH1 ARG d   1     -15.001 -15.333  19.558  0.00  0.00    -0.235 N 
ATOM     46  NH2 ARG d   1     -12.835 -15.001  20.229  0.00  0.00    -0.235 N 
ATOM     47  H   ARG d   1     -15.679 -15.793  18.950  0.00  0.00     0.174 HD
ATOM     48  H   ARG d   1     -15.315 -14.652  20.249  0.00  0.00     0.174 HD
ATOM     49  H   ARG d   1     -11.839 -15.203  20.141  0.00  0.00     0.174 HD
ATOM     50  H   ARG d   1     -13.159 -14.321  20.917  0.00  0.00     0.174 HD
ATOM     51  H   ARG d   1     -12.295 -16.719  18.519  0.00  0.00     0.177 HD
ENDBRANCH  40  43
ENDBRANCH  37  40
ENDBRANCH  34  37
ENDBRANCH   7  34
ENDBRANCH   4   7
ENDBRANCH   1   3
BRANCH   1  52
ATOM     52  C   SER d   1     -15.760 -24.284  16.238  0.00  0.00     0.243 C 
ATOM     53  O   SER d   1     -16.603 -24.762  15.485  0.00  0.00    -0.271 OA
ATOM     54  N   GLU d   1     -15.582 -24.727  17.482  0.00  0.00    -0.346 N 
ATOM     55  H   GLU d   1     -14.903 -24.262  18.085  0.00  0.00     0.163 HD
BRANCH  54  56
ATOM     56  CA  GLU d   1     -16.336 -25.860  17.997  0.00  0.00     0.086 C 
ATOM     57  H   GLU d   1     -16.527 -26.521  17.152  0.00  0.00     0.086 H 
BRANCH  56  58
ATOM     58  C   GLU d   1     -17.710 -25.470  18.550  0.00  0.00     0.240 C 
ATOM     59  O   GLU d   1     -18.705 -26.129  18.239  0.00  0.00    -0.271 OA
ATOM     60  N   GLY d   1     -17.750 -24.396  19.338  0.00  0.00    -0.351 N 
ATOM     61  H   GLY d   1     -16.897 -23.847  19.448  0.00  0.00     0.163 HD
BRANCH  60  62
ATOM     62  CA  GLY d   1     -18.945 -23.962  20.051  0.00  0.00     0.069 C 
ATOM     63  H   GLY d   1     -19.840 -24.182  19.470  0.00  0.00     0.078 H 
ATOM     64  H   GLY d   1     -18.925 -22.884  20.215  0.00  0.00     0.078 H 
BRANCH  62  65
ATOM     65  C   GLY d   1     -18.971 -24.704  21.376  0.00  0.00     0.236 C 
ATOM     66  O   GLY d   1     -17.909 -25.157  21.831  0.00  0.00    -0.272 OA
ATOM     67  N   PHE d   1     -20.172 -24.826  22.020  0.00  0.00    -0.347 N 
ATOM     68  H   PHE d   1     -20.976 -24.362  21.597  0.00  0.00     0.163 HD
BRANCH  67  69
ATOM     69  CA  PHE d   1     -20.409 -25.574  23.281  0.00  0.00     0.086 C 
ATOM     70  H   PHE d   1     -20.203 -26.600  22.976  0.00  0.00     0.086 H 
BRANCH  69  71
ATOM     71  C   PHE d   1     -21.876 -25.634  23.788  0.00  0.00     0.240 C 
ATOM     72  O   PHE d   1     -22.809 -25.300  23.054  0.00  0.00    -0.271 OA
ATOM     73  N   TYR d   1     -22.030 -26.118  25.049  0.00  0.00    -0.346 N 
ATOM     74  H   TYR d   1     -21.138 -26.346  25.488  0.00  0.00     0.163 HD
BRANCH  73  75
ATOM     75  CA  TYR d   1     -23.180 -26.393  25.936  0.00  0.00     0.086 C 
ATOM     76  H   TYR d   1     -23.181 -27.477  25.820  0.00  0.00     0.086 H 
BRANCH  75  77
ATOM     77  C   TYR d   1     -24.635 -26.127  25.560  0.00  0.00     0.240 C 
ATOM     78  O   TYR d   1     -25.139 -25.033  25.827  0.00  0.00    -0.271 OA
ATOM     79  N   THR d   1     -25.341 -27.194  25.115  0.00  0.00    -0.343 N 
ATOM     80  H   THR d   1     -24.796 -28.044  24.972  0.00  0.00     0.163 HD
BRANCH  79  81
ATOM     81  CA  THR d   1     -26.778 -27.312  24.806  0.00  0.00     0.120 C 
ATOM     82  H   THR d   1     -26.878 -27.454  23.730  0.00  0.00     0.093 H 
BRANCH  81  83
ATOM     83  C   THR d   1     -27.579 -26.026  25.101  0.00  0.00     0.199 C 
ATOM     84  O   THR d   1     -27.447 -25.029  24.392  0.00  0.00    -0.646 OA
ATOM     85  O   THR d   1     -28.375 -25.997  26.077  0.00  0.00    -0.646 OA
ENDBRANCH  81  83
BRANCH  81  86
ATOM     86  CB  THR d   1     -27.368 -28.570  25.550  0.00  0.00     0.061 C 
ATOM     87  H   THR d   1     -27.154 -28.400  26.605  0.00  0.00     0.086 H 
BRANCH  86  88
ATOM     88  OG1 THR d   1     -26.736 -29.779  25.108  0.00  0.00    -0.393 OA
ATOM     89  H   THR d   1     -27.114 -30.526  25.577  0.00  0.00     0.210 HD
ENDBRANCH  86  88
BRANCH  86  90
ATOM     90  CG2 THR d   1     -28.892 -28.716  25.413  0.00  0.00    -0.050 C 
ATOM     91  H   THR d   1     -29.379 -27.835  25.831  0.00  0.00     0.031 H 
ATOM     92  H   THR d   1     -29.153 -28.811  24.359  0.00  0.00     0.031 H 
ATOM     93  H   THR d   1     -29.221 -29.605  25.952  0.00  0.00     0.031 H 
ENDBRANCH  86  90
ENDBRANCH  81  86
ENDBRANCH  79  81
ENDBRANCH  75  77
BRANCH  75  94
ATOM     94  CB  TYR d   1     -22.909 -25.863  27.355  0.00  0.00    -0.049 C 
ATOM     95  H   TYR d   1     -22.024 -26.352  27.761  0.00  0.00     0.030 H 
ATOM     96  H   TYR d   1     -22.744 -24.786  27.314  0.00  0.00     0.030 H 
ATOM     97  H   TYR d   1     -23.768 -26.076  27.991  0.00  0.00     0.030 H 
ENDBRANCH  75  94
ENDBRANCH  73  75
ENDBRANCH  69  71
BRANCH  69  98
ATOM     98  CB  PHE d   1     -19.412 -25.222  24.406  0.00  0.00    -0.049 C 
ATOM     99  H   PHE d   1     -18.399 -25.451  24.077  0.00  0.00     0.030 H 
ATOM    100  H   PHE d   1     -19.488 -24.160  24.638  0.00  0.00     0.030 H 
ATOM    101  H   PHE d   1     -19.648 -25.807  25.295  0.00  0.00     0.030 H 
ENDBRANCH  69  98
ENDBRANCH  67  69
ENDBRANCH  62  65
ENDBRANCH  60  62
ENDBRANCH  56  58
BRANCH  56 102
ATOM    102  CB  GLU d   1     -15.514 -26.611  19.051  0.00  0.00    -0.049 C 
ATOM    103  H   GLU d   1     -14.590 -26.973  18.599  0.00  0.00     0.030 H 
ATOM    104  H   GLU d   1     -15.277 -25.936  19.874  0.00  0.00     0.030 H 
ATOM    105  H   GLU d   1     -16.092 -27.456  19.426  0.00  0.00     0.030 H 
ENDBRANCH  56 102
ENDBRANCH  54  56
ENDBRANCH   1  52
BRANCH   1 106
ATOM    106  CB  SER d   1     -13.949 -23.425  14.690  0.00  0.00     0.044 C 
ATOM    107  H   SER d   1     -13.583 -22.488  14.269  0.00  0.00     0.077 H 
ATOM    108  H   SER d   1     -14.470 -24.053  13.967  0.00  0.00     0.077 H 
BRANCH 106 109
ATOM    109  OG  SER d   1     -12.827 -24.150  15.151  0.00  0.00    -0.398 OA
ATOM    110  H   SER d   1     -12.358 -23.629  15.806  0.00  0.00     0.209 HD
ENDBRANCH 106 109
ENDBRANCH   1 106
TORSDOF 33
