REMARK  4 active torsions:
REMARK  status: ('A' for Active; 'I' for Inactive)
REMARK       I    between atoms: CAV_22  and  NAS_19 
REMARK    1  A    between atoms: NAS_19  and  CBB_28 
REMARK    2  A    between atoms: NAT_20  and  CAX_24 
REMARK    3  A    between atoms: CAY_25  and  NAT_20 
REMARK    4  A    between atoms: CAV_22  and  CAZ_26 
ROOT
ATOM      1  FAC 048 d   1     -22.655   4.715 -19.472  0.00  0.00    -0.204 F 
ATOM      2  CAI 048 d   1     -22.700   2.654 -20.672  0.00  0.00    -0.041 A 
ATOM      3  CAJ 048 d   1     -22.055   1.459 -21.001  0.00  0.00    -0.054 A 
ATOM      4  CAN 048 d   1     -20.153   2.091 -19.664  0.00  0.00    -0.028 A 
ATOM      5  CAW 048 d   1     -22.061   3.562 -19.828  0.00  0.00     0.143 A 
ATOM      6  CAY 048 d   1     -20.766   1.170 -20.519  0.00  0.00     0.034 A 
ATOM      7  CBB 048 d   1     -20.793   3.293 -19.331  0.00  0.00     0.076 A 
ATOM      8  H6  048 d   1     -23.685   2.873 -21.068  0.00  0.00     0.088 H 
ATOM      9  H7  048 d   1     -22.558   0.742 -21.640  0.00  0.00     0.087 H 
ATOM     10  H11 048 d   1     -19.173   1.873 -19.255  0.00  0.00     0.090 H 
ENDROOT
BRANCH   6  11
ATOM     11  NAT 048 d   1     -20.124   0.010 -20.799  0.00  0.00    -0.356 N 
ATOM     12  H21 048 d   1     -19.867  -0.568 -19.986  0.00  0.00     0.166 HD
BRANCH  11  13
ATOM     13  CAX 048 d   1     -19.781  -0.481 -21.997  0.00  0.00     0.033 A 
ATOM     14  CAK 048 d   1     -20.057   0.146 -23.225  0.00  0.00    -0.056 A 
ATOM     15  CAL 048 d   1     -19.648  -0.432 -24.429  0.00  0.00    -0.067 A 
ATOM     16  H8  048 d   1     -20.593   1.088 -23.237  0.00  0.00     0.086 H 
ATOM     17  CBC 048 d   1     -18.951  -1.641 -24.400  0.00  0.00     0.016 A 
ATOM     18  H9  048 d   1     -19.869   0.052 -25.373  0.00  0.00     0.085 H 
ATOM     19  CAU 048 d   1     -18.558  -2.164 -25.783  0.00  0.00     0.160 C 
ATOM     20  CBA 048 d   1     -18.675  -2.265 -23.185  0.00  0.00    -0.042 A 
ATOM     21  OAA 048 d   1     -18.166  -1.374 -26.647  0.00  0.00    -0.292 OA
ATOM     22  CAQ 048 d   1     -18.622  -3.651 -26.127  0.00  0.00    -0.005 C 
ATOM     23  CAO 048 d   1     -17.667  -4.470 -25.243  0.00  0.00    -0.058 C 
ATOM     24  H16 048 d   1     -19.650  -4.011 -25.973  0.00  0.00     0.044 H 
ATOM     25  H17 048 d   1     -18.340  -3.787 -27.181  0.00  0.00     0.044 H 
ATOM     26  CAP 048 d   1     -18.273  -4.736 -23.857  0.00  0.00    -0.061 C 
ATOM     27  H12 048 d   1     -17.462  -5.433 -25.734  0.00  0.00     0.033 H 
ATOM     28  H13 048 d   1     -16.726  -3.913 -25.121  0.00  0.00     0.033 H 
ATOM     29  CAR 048 d   1     -17.898  -3.586 -22.921  0.00  0.00    -0.040 C 
ATOM     30  H14 048 d   1     -17.878  -5.681 -23.457  0.00  0.00     0.033 H 
ATOM     31  H15 048 d   1     -19.368  -4.802 -23.940  0.00  0.00     0.033 H 
ATOM     32  H18 048 d   1     -16.823  -3.383 -23.039  0.00  0.00     0.040 H 
ATOM     33  H19 048 d   1     -18.100  -3.904 -21.887  0.00  0.00     0.040 H 
ATOM     34  CAM 048 d   1     -19.092  -1.683 -21.991  0.00  0.00    -0.050 A 
ATOM     35  H10 048 d   1     -18.876  -2.174 -21.049  0.00  0.00     0.087 H 
ENDBRANCH  11  13
ENDBRANCH   6  11
BRANCH   7  36
ATOM     36  NAS 048 d   1     -20.228   4.188 -18.506  0.00  0.00    -0.320 N 
ATOM     37  CAV 048 d   1     -18.955   4.592 -18.567  0.00  0.00     0.256 C 
ATOM     38  OAB 048 d   1     -18.128   4.201 -19.387  0.00  0.00    -0.267 OA
ATOM     39  H20 048 d   1     -20.804   4.583 -17.790  0.00  0.00     0.169 HD
BRANCH  37  40
ATOM     40  CAZ 048 d   1     -18.546   5.603 -17.500  0.00  0.00     0.032 A 
ATOM     41  CAG 048 d   1     -17.933   6.805 -17.881  0.00  0.00    -0.068 A 
ATOM     42  CAE 048 d   1     -17.545   7.714 -16.895  0.00  0.00    -0.082 A 
ATOM     43  H4  048 d   1     -17.762   7.026 -18.928  0.00  0.00     0.085 H 
ATOM     44  CAD 048 d   1     -17.776   7.417 -15.552  0.00  0.00    -0.083 A 
ATOM     45  H2  048 d   1     -17.066   8.646 -17.172  0.00  0.00     0.083 H 
ATOM     46  CAF 048 d   1     -18.380   6.218 -15.168  0.00  0.00    -0.082 A 
ATOM     47  H1  048 d   1     -17.481   8.131 -14.791  0.00  0.00     0.083 H 
ATOM     48  CAH 048 d   1     -18.761   5.306 -16.148  0.00  0.00    -0.068 A 
ATOM     49  H3  048 d   1     -18.550   6.000 -14.120  0.00  0.00     0.083 H 
ATOM     50  H5  048 d   1     -19.224   4.367 -15.865  0.00  0.00     0.085 H 
ENDBRANCH  37  40
ENDBRANCH   7  36
TORSDOF 4
