REMARK  10 active torsions:
REMARK  status: ('A' for Active; 'I' for Inactive)
REMARK    1  A    between atoms: CAT_20  and  OAC_3 
REMARK    2  A    between atoms: CBM_39  and  OAD_4 
REMARK    3  A    between atoms: CBM_39  and  CAT_20 
REMARK    4  A    between atoms: OAZ_26  and  CAW_23 
REMARK    5  A    between atoms: CAW_23  and  CBM_39 
REMARK       I    between atoms: NAX_24  and  CBA_27 
REMARK    6  A    between atoms: CBJ_36  and  NAX_24 
REMARK    7  A    between atoms: CBC_29  and  NAY_25 
REMARK    8  A    between atoms: NAY_25  and  CBD_30 
REMARK    9  A    between atoms: CBF_32  and  OAZ_26 
REMARK   10  A    between atoms: CBA_27  and  CBG_33 
ROOT
ATOM      1  OAB FS8 d   1      -2.227   4.398 -23.001  0.00  0.00    -0.287 OA
ATOM      2  CAJ FS8 d   1      -2.878   1.423 -20.290  0.00  0.00    -0.056 A 
ATOM      3  CAN FS8 d   1      -1.850   2.751 -27.502  0.00  0.00    -0.050 A 
ATOM      4  CAO FS8 d   1      -0.948   2.003 -26.733  0.00  0.00    -0.073 A 
ATOM      5  CAP FS8 d   1      -2.689   2.400 -21.275  0.00  0.00    -0.067 A 
ATOM      6  CAQ FS8 d   1      -1.738  -0.140 -21.758  0.00  0.00    -0.050 A 
ATOM      7  CAS FS8 d   1      -2.778   3.767 -25.506  0.00  0.00    -0.036 A 
ATOM      8  CAU FS8 d   1      -0.043   1.351 -24.691  0.00  0.00    -0.036 C 
ATOM      9  CAV FS8 d   1      -0.861   0.297 -23.884  0.00  0.00    -0.036 C 
ATOM     10  CBB FS8 d   1      -2.004   3.251 -23.383  0.00  0.00     0.193 C 
ATOM     11  CBC FS8 d   1      -2.395   0.144 -20.541  0.00  0.00     0.033 A 
ATOM     12  CBF FS8 d   1      -2.758   3.621 -26.893  0.00  0.00     0.069 A 
ATOM     13  CBH FS8 d   1      -0.958   2.165 -25.351  0.00  0.00    -0.043 A 
ATOM     14  CBI FS8 d   1      -1.539   0.842 -22.744  0.00  0.00    -0.042 A 
ATOM     15  CBK FS8 d   1      -2.027   2.141 -22.495  0.00  0.00     0.021 A 
ATOM     16  CBL FS8 d   1      -1.855   3.046 -24.745  0.00  0.00     0.024 A 
ATOM     17  H   FS8 d   1      -3.388   1.658 -19.356  0.00  0.00     0.086 H 
ATOM     18  H   FS8 d   1      -1.843   2.653 -28.588  0.00  0.00     0.087 H 
ATOM     19  H   FS8 d   1      -0.254   1.309 -27.207  0.00  0.00     0.084 H 
ATOM     20  H   FS8 d   1      -3.070   3.405 -21.092  0.00  0.00     0.085 H 
ATOM     21  H   FS8 d   1      -1.374  -1.151 -21.939  0.00  0.00     0.087 H 
ATOM     22  H   FS8 d   1      -3.498   4.429 -25.026  0.00  0.00     0.089 H 
ATOM     23  H   FS8 d   1       0.618   0.859 -25.405  0.00  0.00     0.040 H 
ATOM     24  H   FS8 d   1       0.585   1.942 -24.024  0.00  0.00     0.040 H 
ATOM     25  H   FS8 d   1      -0.157  -0.450 -23.518  0.00  0.00     0.040 H 
ATOM     26  H   FS8 d   1      -1.621  -0.107 -24.553  0.00  0.00     0.040 H 
ENDROOT
BRANCH  11  27
ATOM     27  NAY FS8 d   1      -2.495  -0.882 -19.698  0.00  0.00    -0.356 N 
ATOM     28  H   FS8 d   1      -1.990  -1.727 -19.965  0.00  0.00     0.166 HD
BRANCH  27  29
ATOM     29  CBD FS8 d   1      -3.177  -0.946 -18.539  0.00  0.00     0.034 A 
ATOM     30  CAI FS8 d   1      -4.416  -0.336 -18.318  0.00  0.00    -0.054 A 
ATOM     31  CAM FS8 d   1      -5.034  -0.520 -17.070  0.00  0.00    -0.041 A 
ATOM     32  H   FS8 d   1      -4.889   0.266 -19.093  0.00  0.00     0.087 H 
ATOM     33  CBE FS8 d   1      -4.427  -1.300 -16.061  0.00  0.00     0.143 A 
ATOM     34  H   FS8 d   1      -5.999  -0.052 -16.877  0.00  0.00     0.088 H 
ATOM     35  FAE FS8 d   1      -4.991  -1.407 -14.983  0.00  0.00    -0.204 F 
ATOM     36  CBJ FS8 d   1      -3.190  -1.910 -16.276  0.00  0.00     0.076 A 
ATOM     37  CAR FS8 d   1      -2.581  -1.738 -17.531  0.00  0.00    -0.028 A 
ATOM     38  H   FS8 d   1      -1.627  -2.226 -17.732  0.00  0.00     0.090 H 
BRANCH  36  39
ATOM     39  NAX FS8 d   1      -2.658  -2.682 -15.286  0.00  0.00    -0.320 N 
ATOM     40  CBA FS8 d   1      -1.347  -2.613 -14.931  0.00  0.00     0.256 C 
ATOM     41  OAA FS8 d   1      -0.541  -1.827 -15.431  0.00  0.00    -0.267 OA
ATOM     42  H   FS8 d   1      -3.266  -3.336 -14.793  0.00  0.00     0.169 HD
BRANCH  40  43
ATOM     43  CBG FS8 d   1      -0.895  -3.504 -13.919  0.00  0.00     0.032 A 
ATOM     44  CAK FS8 d   1      -1.032  -4.895 -14.068  0.00  0.00    -0.068 A 
ATOM     45  CAG FS8 d   1      -0.584  -5.800 -13.083  0.00  0.00    -0.082 A 
ATOM     46  H   FS8 d   1      -1.499  -5.286 -14.972  0.00  0.00     0.085 H 
ATOM     47  CAF FS8 d   1       0.061  -5.306 -11.957  0.00  0.00    -0.083 A 
ATOM     48  H   FS8 d   1      -0.742  -6.872 -13.204  0.00  0.00     0.083 H 
ATOM     49  CAH FS8 d   1       0.240  -3.911 -11.815  0.00  0.00    -0.082 A 
ATOM     50  H   FS8 d   1       0.426  -5.988 -11.189  0.00  0.00     0.083 H 
ATOM     51  CAL FS8 d   1      -0.218  -3.028 -12.786  0.00  0.00    -0.068 A 
ATOM     52  H   FS8 d   1       0.745  -3.522 -10.931  0.00  0.00     0.083 H 
ATOM     53  H   FS8 d   1      -0.050  -1.958 -12.666  0.00  0.00     0.085 H 
ENDBRANCH  40  43
ENDBRANCH  36  39
ENDBRANCH  27  29
ENDBRANCH  11  27
BRANCH  12  54
ATOM     54  OAZ FS8 d   1      -3.647   4.363 -27.627  0.00  0.00    -0.349 OA
BRANCH  54  55
ATOM     55  CAW FS8 d   1      -3.770   3.980 -29.009  0.00  0.00     0.052 C 
ATOM     56  H   FS8 d   1      -3.718   2.894 -29.094  0.00  0.00     0.079 H 
ATOM     57  H   FS8 d   1      -2.958   4.424 -29.585  0.00  0.00     0.079 H 
BRANCH  55  58
ATOM     58  CBM FS8 d   1      -5.114   4.474 -29.551  0.00  0.00     0.076 C 
ATOM     59  H   FS8 d   1      -5.862   3.689 -29.439  0.00  0.00     0.089 H 
BRANCH  58  60
ATOM     60  OAD FS8 d   1      -4.981   4.782 -30.948  0.00  0.00    -0.391 OA
ATOM     61  H   FS8 d   1      -4.348   5.495 -31.058  0.00  0.00     0.210 HD
ENDBRANCH  58  60
BRANCH  58  62
ATOM     62  CAT FS8 d   1      -5.609   5.699 -28.745  0.00  0.00     0.042 C 
ATOM     63  H   FS8 d   1      -6.595   5.465 -28.344  0.00  0.00     0.078 H 
ATOM     64  H   FS8 d   1      -4.882   5.904 -27.959  0.00  0.00     0.078 H 
BRANCH  62  65
ATOM     65  OAC FS8 d   1      -5.727   6.874 -29.560  0.00  0.00    -0.398 OA
ATOM     66  H   FS8 d   1      -6.354   6.709 -30.268  0.00  0.00     0.209 HD
ENDBRANCH  62  65
ENDBRANCH  58  62
ENDBRANCH  55  58
ENDBRANCH  54  55
ENDBRANCH  12  54
TORSDOF 10
