REMARK WARNING: 32 MAX_TORS EXCEEDED!!!
REMARK  47 active torsions:
REMARK  status: ('A' for Active; 'I' for Inactive)
REMARK    1  A    between atoms: CA_2  and  N_1 
REMARK    2  A    between atoms: C_3  and  CA_2 
REMARK    3  A    between atoms: CA_2  and  CB_5 
REMARK       I    between atoms: N_7  and  C_3 
REMARK    4  A    between atoms: CB_5  and  OG_6 
REMARK    5  A    between atoms: CA_8  and  N_7 
REMARK    6  A    between atoms: C_9  and  CA_8 
REMARK       I    between atoms: N_11  and  C_9 
REMARK    7  A    between atoms: CA_12  and  N_11 
REMARK    8  A    between atoms: C_13  and  CA_12 
REMARK    9  A    between atoms: CA_12  and  CB_15 
REMARK       I    between atoms: N_22  and  C_13 
REMARK   10  A    between atoms: CB_15  and  CG_16 
REMARK   11  A    between atoms: CG_16  and  CD_17 
REMARK   12  A    between atoms: CD_17  and  NE_18 
REMARK       I    between atoms: NE_18  and  CZ_19 
REMARK       I    between atoms: CZ_19  and  NH1_20 
REMARK   13  A    between atoms: CA_23  and  N_22 
REMARK   14  A    between atoms: C_24  and  CA_23 
REMARK       I    between atoms: N_35  and  C_24 
REMARK   15  A    between atoms: CH_27  and  CH3_28 
REMARK       I    between atoms: NZ_29  and  CH_27 
REMARK   16  A    between atoms: CE_30  and  NZ_29 
REMARK   17  A    between atoms: CD_31  and  CE_30 
REMARK   18  A    between atoms: CG_32  and  CD_31 
REMARK   19  A    between atoms: CB_33  and  CG_32 
REMARK   20  A    between atoms: CA_34  and  CB_33 
REMARK   21  A    between atoms: CA_34  and  N_35 
REMARK   22  A    between atoms: C_36  and  CA_34 
REMARK       I    between atoms: N_38  and  C_36 
REMARK   23  A    between atoms: CA_39  and  N_38 
REMARK   24  A    between atoms: C_40  and  CA_39 
REMARK       I    between atoms: N_42  and  C_40 
REMARK   25  A    between atoms: CA_43  and  N_42 
REMARK   26  A    between atoms: C_44  and  CA_43 
REMARK       I    between atoms: N_55  and  C_44 
REMARK   27  A    between atoms: CH_47  and  CH3_48 
REMARK       I    between atoms: NZ_49  and  CH_47 
REMARK   28  A    between atoms: CE_50  and  NZ_49 
REMARK   29  A    between atoms: CD_51  and  CE_50 
REMARK   30  A    between atoms: CG_52  and  CD_51 
REMARK   31  A    between atoms: CB_53  and  CG_52 
REMARK   32  A    between atoms: CA_54  and  CB_53 
REMARK   33  A    between atoms: CA_54  and  N_55 
REMARK   34  A    between atoms: CA_54  and  C_56 
REMARK       I    between atoms: C_56  and  N_58 
REMARK   35  A    between atoms: N_58  and  CA_59 
REMARK   36  A    between atoms: CA_59  and  C_60 
REMARK       I    between atoms: C_60  and  N_62 
REMARK   37  A    between atoms: N_62  and  CA_63 
REMARK   38  A    between atoms: CA_63  and  C_64 
REMARK   39  A    between atoms: CA_63  and  CB_66 
REMARK       I    between atoms: C_64  and  N_70 
REMARK   40  A    between atoms: CB_66  and  CG_67 
REMARK   41  A    between atoms: CG_67  and  CD1_68 
REMARK   42  A    between atoms: CG_67  and  CD2_69 
REMARK   43  A    between atoms: N_70  and  CA_71 
REMARK   44  A    between atoms: CA_71  and  C_72 
REMARK       I    between atoms: C_72  and  N_74 
REMARK   45  A    between atoms: N_74  and  CA_75 
REMARK   46  A    between atoms: CA_75  and  C_76 
REMARK   47  A    between atoms: CA_75  and  CB_78 
ROOT
ATOM      1  CA  GLY d   1      25.791  32.941  29.718  0.00  0.00     0.069 C 
ATOM      2  H   GLY d   1      24.979  32.229  29.570  0.00  0.00     0.078 H 
ATOM      3  H   GLY d   1      25.605  33.577  30.583  0.00  0.00     0.078 H 
ENDROOT
BRANCH   1   4
ATOM      4  N   GLY d   1      25.893  33.794  28.520  0.00  0.00    -0.351 N 
ATOM      5  C   ALY d   1      25.363  33.111  27.209  0.00  0.00     0.240 C 
ATOM      6  O   ALY d   1      25.089  31.900  27.278  0.00  0.00    -0.271 OA
ATOM      7  H   GLY d   1      26.273  34.740  28.541  0.00  0.00     0.163 HD
BRANCH   5   8
ATOM      8  CA  ALY d   1      25.461  33.884  25.939  0.00  0.00     0.089 C 
ATOM      9  H   ALY d   1      24.496  33.804  25.439  0.00  0.00     0.087 H 
BRANCH   8  10
ATOM     10  CB  ALY d   1      26.489  33.317  24.999  0.00  0.00    -0.038 C 
ATOM     11  H   ALY d   1      27.488  33.558  25.362  0.00  0.00     0.036 H 
ATOM     12  H   ALY d   1      26.377  32.234  24.945  0.00  0.00     0.036 H 
BRANCH  10  13
ATOM     13  CG  ALY d   1      26.290  33.922  23.609  0.00  0.00    -0.061 C 
ATOM     14  H   ALY d   1      25.314  33.630  23.220  0.00  0.00     0.033 H 
ATOM     15  H   ALY d   1      26.341  35.009  23.673  0.00  0.00     0.033 H 
BRANCH  13  16
ATOM     16  CD  ALY d   1      27.374  33.418  22.686  0.00  0.00    -0.050 C 
ATOM     17  H   ALY d   1      28.344  33.726  23.077  0.00  0.00     0.035 H 
ATOM     18  H   ALY d   1      27.314  32.331  22.629  0.00  0.00     0.035 H 
BRANCH  16  19
ATOM     19  CE  ALY d   1      27.197  33.995  21.295  0.00  0.00    -0.005 C 
ATOM     20  H   ALY d   1      26.217  33.724  20.902  0.00  0.00     0.064 H 
ATOM     21  H   ALY d   1      27.267  35.082  21.332  0.00  0.00     0.064 H 
BRANCH  19  22
ATOM     22  NZ  ALY d   1      28.256  33.452  20.425  0.00  0.00    -0.361 N 
ATOM     23  CH  ALY d   1      29.266  34.157  19.892  0.00  0.00     0.213 C 
ATOM     24  OH  ALY d   1      29.414  35.347  20.167  0.00  0.00    -0.274 OA
ATOM     25  H   ALY d   1      28.218  32.456  20.210  0.00  0.00     0.162 HD
BRANCH  23  26
ATOM     26  CH3 ALY d   1      30.221  33.394  18.994  0.00  0.00    -0.003 C 
ATOM     27  H   ALY d   1      30.244  33.861  18.010  0.00  0.00     0.040 H 
ATOM     28  H   ALY d   1      31.220  33.412  19.430  0.00  0.00     0.040 H 
ATOM     29  H   ALY d   1      29.883  32.362  18.900  0.00  0.00     0.040 H 
ENDBRANCH  23  26
ENDBRANCH  19  22
ENDBRANCH  16  19
ENDBRANCH  13  16
ENDBRANCH  10  13
ENDBRANCH   8  10
BRANCH   8  30
ATOM     30  N   ALY d   1      25.743  35.302  26.222  0.00  0.00    -0.346 N 
ATOM     31  C   GLY d   1      24.737  36.270  25.912  0.00  0.00     0.236 C 
ATOM     32  O   GLY d   1      23.533  36.049  25.690  0.00  0.00    -0.272 OA
ATOM     33  H   ALY d   1      26.634  35.586  26.629  0.00  0.00     0.163 HD
BRANCH  31  34
ATOM     34  CA  GLY d   1      25.328  37.667  25.899  0.00  0.00     0.069 C 
ATOM     35  H   GLY d   1      25.669  37.890  26.910  0.00  0.00     0.078 H 
ATOM     36  H   GLY d   1      26.131  37.679  25.162  0.00  0.00     0.078 H 
BRANCH  34  37
ATOM     37  N   GLY d   1      24.360  38.702  25.518  0.00  0.00    -0.351 N 
ATOM     38  C   ARG d   1      23.485  39.185  26.397  0.00  0.00     0.240 C 
ATOM     39  O   ARG d   1      23.454  38.821  27.573  0.00  0.00    -0.271 OA
ATOM     40  H   GLY d   1      24.358  39.058  24.562  0.00  0.00     0.163 HD
BRANCH  38  41
ATOM     41  CA  ARG d   1      22.519  40.262  25.913  0.00  0.00     0.089 C 
ATOM     42  H   ARG d   1      22.504  41.036  26.680  0.00  0.00     0.087 H 
BRANCH  41  43
ATOM     43  N   ARG d   1      22.971  40.943  24.698  0.00  0.00    -0.346 N 
ATOM     44  C   GLY d   1      23.992  41.777  24.746  0.00  0.00     0.236 C 
ATOM     45  O   GLY d   1      24.665  41.924  25.766  0.00  0.00    -0.272 OA
ATOM     46  H   ARG d   1      22.495  40.772  23.812  0.00  0.00     0.163 HD
BRANCH  44  47
ATOM     47  CA  GLY d   1      24.259  42.600  23.491  0.00  0.00     0.069 C 
ATOM     48  H   GLY d   1      24.066  41.974  22.620  0.00  0.00     0.078 H 
ATOM     49  H   GLY d   1      23.608  43.474  23.506  0.00  0.00     0.078 H 
BRANCH  47  50
ATOM     50  N   GLY d   1      25.630  43.051  23.437  0.00  0.00    -0.350 N 
ATOM     51  C   SER d   1      25.970  44.306  23.726  0.00  0.00     0.250 C 
ATOM     52  O   SER d   1      25.148  45.219  23.958  0.00  0.00    -0.271 OA
ATOM     53  H   GLY d   1      26.359  42.389  23.170  0.00  0.00     0.163 HD
BRANCH  51  54
ATOM     54  CA  SER d   1      27.422  44.641  23.836  0.00  0.00     0.195 C 
ATOM     55  H   SER d   1      27.834  44.094  22.988  0.00  0.00     0.102 H 
BRANCH  54  56
ATOM     56  N   SER d   1      27.849  46.016  23.457  0.00  0.00    -0.064 N 
ATOM     57  H   SER d   1      27.320  46.322  22.640  0.00  0.00     0.275 HD
ATOM     58  H   SER d   1      27.673  46.652  24.235  0.00  0.00     0.275 HD
ATOM     59  H   SER d   1      28.845  46.013  23.238  0.00  0.00     0.275 HD
ENDBRANCH  54  56
BRANCH  54  60
ATOM     60  CB  SER d   1      28.121  44.033  25.047  0.00  0.00     0.051 C 
ATOM     61  H   SER d   1      29.196  44.204  24.986  0.00  0.00     0.077 H 
ATOM     62  H   SER d   1      27.952  42.957  25.078  0.00  0.00     0.077 H 
BRANCH  60  63
ATOM     63  OG  SER d   1      27.592  44.647  26.214  0.00  0.00    -0.398 OA
ATOM     64  H   SER d   1      26.647  44.484  26.260  0.00  0.00     0.209 HD
ENDBRANCH  60  63
ENDBRANCH  54  60
ENDBRANCH  51  54
ENDBRANCH  47  50
ENDBRANCH  44  47
ENDBRANCH  41  43
BRANCH  41  65
ATOM     65  CB  ARG d   1      21.086  39.711  25.789  0.00  0.00    -0.036 C 
ATOM     66  H   ARG d   1      20.479  40.563  25.482  0.00  0.00     0.036 H 
ATOM     67  H   ARG d   1      20.877  39.243  26.751  0.00  0.00     0.036 H 
BRANCH  65  68
ATOM     68  CG  ARG d   1      20.817  38.658  24.778  0.00  0.00    -0.048 C 
ATOM     69  H   ARG d   1      21.620  37.922  24.823  0.00  0.00     0.035 H 
ATOM     70  H   ARG d   1      20.762  39.127  23.796  0.00  0.00     0.035 H 
BRANCH  68  71
ATOM     71  CD  ARG d   1      19.462  37.932  25.058  0.00  0.00     0.009 C 
ATOM     72  H   ARG d   1      19.475  37.579  26.089  0.00  0.00     0.064 H 
ATOM     73  H   ARG d   1      19.362  37.117  24.341  0.00  0.00     0.064 H 
BRANCH  71  74
ATOM     74  NE  ARG d   1      18.309  38.820  24.898  0.00  0.00    -0.227 N 
ATOM     75  CZ  ARG d   1      17.042  38.458  25.046  0.00  0.00     0.665 C 
ATOM     76  NH1 ARG d   1      16.756  37.202  25.318  0.00  0.00    -0.235 N 
ATOM     77  NH2 ARG d   1      16.067  39.355  24.935  0.00  0.00    -0.235 N 
ATOM     78  H   ARG d   1      17.506  36.517  25.413  0.00  0.00     0.174 HD
ATOM     79  H   ARG d   1      15.784  36.914  25.434  0.00  0.00     0.174 HD
ATOM     80  H   ARG d   1      16.291  40.330  24.735  0.00  0.00     0.174 HD
ATOM     81  H   ARG d   1      15.095  39.069  25.050  0.00  0.00     0.174 HD
ATOM     82  H   ARG d   1      18.495  39.793  24.654  0.00  0.00     0.177 HD
ENDBRANCH  71  74
ENDBRANCH  68  71
ENDBRANCH  65  68
ENDBRANCH  41  65
ENDBRANCH  38  41
ENDBRANCH  34  37
ENDBRANCH  31  34
ENDBRANCH   8  30
ENDBRANCH   5   8
ENDBRANCH   1   4
BRANCH   1  83
ATOM     83  C   GLY d   1      27.058  32.179  29.950  0.00  0.00     0.235 C 
ATOM     84  O   GLY d   1      28.035  32.244  29.186  0.00  0.00    -0.272 OA
ATOM     85  N   GLY d   1      27.036  31.457  31.050  0.00  0.00    -0.351 N 
ATOM     86  H   GLY d   1      26.196  31.454  31.628  0.00  0.00     0.163 HD
BRANCH  85  87
ATOM     87  CA  GLY d   1      28.168  30.674  31.454  0.00  0.00     0.069 C 
ATOM     88  H   GLY d   1      27.977  30.276  32.450  0.00  0.00     0.078 H 
ATOM     89  H   GLY d   1      29.052  31.312  31.445  0.00  0.00     0.078 H 
BRANCH  87  90
ATOM     90  C   GLY d   1      28.400  29.517  30.510  0.00  0.00     0.236 C 
ATOM     91  O   GLY d   1      27.478  28.929  29.952  0.00  0.00    -0.272 OA
ATOM     92  N   ALY d   1      29.784  29.093  30.429  0.00  0.00    -0.346 N 
ATOM     93  H   ALY d   1      30.504  29.549  30.989  0.00  0.00     0.163 HD
BRANCH  92  94
ATOM     94  CA  ALY d   1      30.122  27.997  29.526  0.00  0.00     0.089 C 
ATOM     95  H   ALY d   1      29.229  27.495  29.154  0.00  0.00     0.087 H 
BRANCH  94  96
ATOM     96  CB  ALY d   1      30.859  28.500  28.307  0.00  0.00    -0.038 C 
ATOM     97  H   ALY d   1      31.664  29.183  28.578  0.00  0.00     0.036 H 
ATOM     98  H   ALY d   1      31.342  27.686  27.766  0.00  0.00     0.036 H 
BRANCH  96  99
ATOM     99  CG  ALY d   1      29.803  29.190  27.455  0.00  0.00    -0.061 C 
ATOM    100  H   ALY d   1      28.987  28.485  27.296  0.00  0.00     0.033 H 
ATOM    101  H   ALY d   1      29.483  30.090  27.981  0.00  0.00     0.033 H 
BRANCH  99 102
ATOM    102  CD  ALY d   1      30.327  29.604  26.106  0.00  0.00    -0.050 C 
ATOM    103  H   ALY d   1      31.289  30.098  26.244  0.00  0.00     0.035 H 
ATOM    104  H   ALY d   1      30.425  28.714  25.484  0.00  0.00     0.035 H 
BRANCH 102 105
ATOM    105  CE  ALY d   1      29.369  30.583  25.412  0.00  0.00    -0.005 C 
ATOM    106  H   ALY d   1      29.127  31.373  26.122  0.00  0.00     0.064 H 
ATOM    107  H   ALY d   1      29.865  30.957  24.517  0.00  0.00     0.064 H 
BRANCH 105 108
ATOM    108  NZ  ALY d   1      28.103  29.946  24.995  0.00  0.00    -0.361 N 
ATOM    109  CH  ALY d   1      27.802  29.734  23.693  0.00  0.00     0.213 C 
ATOM    110  OH  ALY d   1      28.593  30.106  22.782  0.00  0.00    -0.274 OA
ATOM    111  H   ALY d   1      27.436  29.657  25.710  0.00  0.00     0.162 HD
BRANCH 109 112
ATOM    112  CH3 ALY d   1      26.474  29.114  23.417  0.00  0.00    -0.003 C 
ATOM    113  H   ALY d   1      25.860  29.811  22.847  0.00  0.00     0.040 H 
ATOM    114  H   ALY d   1      26.614  28.198  22.843  0.00  0.00     0.040 H 
ATOM    115  H   ALY d   1      25.980  28.881  24.360  0.00  0.00     0.040 H 
ENDBRANCH 109 112
ENDBRANCH 105 108
ENDBRANCH 102 105
ENDBRANCH  99 102
ENDBRANCH  96  99
ENDBRANCH  94  96
BRANCH  94 116
ATOM    116  C   ALY d   1      30.977  27.091  30.317  0.00  0.00     0.240 C 
ATOM    117  O   ALY d   1      31.827  26.368  29.901  0.00  0.00    -0.271 OA
ATOM    118  N   GLY d   1      30.646  26.874  31.830  0.00  0.00    -0.351 N 
ATOM    119  H   GLY d   1      29.941  27.451  32.287  0.00  0.00     0.163 HD
BRANCH 118 120
ATOM    120  CA  GLY d   1      31.361  25.826  32.598  0.00  0.00     0.069 C 
ATOM    121  H   GLY d   1      31.299  24.912  32.007  0.00  0.00     0.078 H 
ATOM    122  H   GLY d   1      30.888  25.784  33.579  0.00  0.00     0.078 H 
BRANCH 120 123
ATOM    123  C   GLY d   1      32.833  26.084  32.840  0.00  0.00     0.236 C 
ATOM    124  O   GLY d   1      33.593  25.130  33.007  0.00  0.00    -0.272 OA
ATOM    125  N   LEU d   1      33.244  27.353  32.910  0.00  0.00    -0.346 N 
ATOM    126  H   LEU d   1      32.592  28.107  32.694  0.00  0.00     0.163 HD
BRANCH 125 127
ATOM    127  CA  LEU d   1      34.624  27.676  33.295  0.00  0.00     0.089 C 
ATOM    128  H   LEU d   1      35.161  26.733  33.190  0.00  0.00     0.087 H 
BRANCH 127 129
ATOM    129  C   LEU d   1      34.780  28.185  34.749  0.00  0.00     0.240 C 
ATOM    130  O   LEU d   1      35.893  28.193  35.290  0.00  0.00    -0.271 OA
ATOM    131  N   GLY d   1      33.691  28.680  35.336  0.00  0.00    -0.351 N 
ATOM    132  H   GLY d   1      32.774  28.341  35.045  0.00  0.00     0.163 HD
BRANCH 131 133
ATOM    133  CA  GLY d   1      33.774  29.707  36.398  0.00  0.00     0.069 C 
ATOM    134  H   GLY d   1      32.775  30.134  36.484  0.00  0.00     0.078 H 
ATOM    135  H   GLY d   1      34.569  30.389  36.097  0.00  0.00     0.078 H 
BRANCH 133 136
ATOM    136  C   GLY d   1      34.142  29.218  37.783  0.00  0.00     0.236 C 
ATOM    137  O   GLY d   1      34.700  28.135  37.927  0.00  0.00    -0.272 OA
ATOM    138  N   TYR d   1      33.858  30.006  38.828  0.00  0.00    -0.346 N 
ATOM    139  H   TYR d   1      34.006  29.614  39.758  0.00  0.00     0.163 HD
BRANCH 138 140
ATOM    140  CA  TYR d   1      33.350  31.391  38.755  0.00  0.00     0.093 C 
ATOM    141  H   TYR d   1      33.804  31.913  37.913  0.00  0.00     0.089 H 
BRANCH 140 142
ATOM    142  C   TYR d   1      33.700  32.053  40.093  0.00  0.00     0.196 C 
ATOM    143  O   TYR d   1      33.780  33.282  40.215  0.00  0.00    -0.646 OA
ATOM    144  OXT TYR d   1      33.935  31.332  41.089  0.00  0.00    -0.646 OA
ENDBRANCH 140 142
BRANCH 140 145
ATOM    145  CB  TYR d   1      31.828  31.433  38.524  0.00  0.00    -0.048 C 
ATOM    146  H   TYR d   1      31.590  30.932  37.586  0.00  0.00     0.030 H 
ATOM    147  H   TYR d   1      31.323  30.926  39.346  0.00  0.00     0.030 H 
ATOM    148  H   TYR d   1      31.497  32.471  38.477  0.00  0.00     0.030 H 
ENDBRANCH 140 145
ENDBRANCH 138 140
ENDBRANCH 133 136
ENDBRANCH 131 133
ENDBRANCH 127 129
BRANCH 127 149
ATOM    149  CB  LEU d   1      35.176  28.781  32.407  0.00  0.00    -0.035 C 
ATOM    150  H   LEU d   1      36.251  28.779  32.588  0.00  0.00     0.037 H 
ATOM    151  H   LEU d   1      34.602  29.669  32.671  0.00  0.00     0.037 H 
BRANCH 149 152
ATOM    152  CG  LEU d   1      35.029  28.649  30.902  0.00  0.00    -0.059 C 
ATOM    153  H   LEU d   1      33.968  28.681  30.654  0.00  0.00     0.038 H 
BRANCH 152 154
ATOM    154  CD1 LEU d   1      35.767  29.827  30.243  0.00  0.00    -0.073 C 
ATOM    155  H   LEU d   1      35.328  30.765  30.582  0.00  0.00     0.028 H 
ATOM    156  H   LEU d   1      36.820  29.796  30.522  0.00  0.00     0.028 H 
ATOM    157  H   LEU d   1      35.674  29.752  29.160  0.00  0.00     0.028 H 
ENDBRANCH 152 154
BRANCH 152 158
ATOM    158  CD2 LEU d   1      35.516  27.303  30.361  0.00  0.00    -0.073 C 
ATOM    159  H   LEU d   1      36.572  27.177  30.600  0.00  0.00     0.028 H 
ATOM    160  H   LEU d   1      34.940  26.499  30.819  0.00  0.00     0.028 H 
ATOM    161  H   LEU d   1      35.382  27.277  29.280  0.00  0.00     0.028 H 
ENDBRANCH 152 158
ENDBRANCH 149 152
ENDBRANCH 127 149
ENDBRANCH 125 127
ENDBRANCH 120 123
ENDBRANCH 118 120
ENDBRANCH  94 116
ENDBRANCH  92  94
ENDBRANCH  87  90
ENDBRANCH  85  87
ENDBRANCH   1  83
TORSDOF 47
