REMARK  31 active torsions:
REMARK  status: ('A' for Active; 'I' for Inactive)
REMARK    1  A    between atoms: CA_2  and  N_1 
REMARK    2  A    between atoms: C_3  and  CA_2 
REMARK       I    between atoms: N_14  and  C_3 
REMARK    3  A    between atoms: CH_6  and  CH3_7 
REMARK       I    between atoms: NZ_8  and  CH_6 
REMARK    4  A    between atoms: CE_9  and  NZ_8 
REMARK    5  A    between atoms: CD_10  and  CE_9 
REMARK    6  A    between atoms: CG_11  and  CD_10 
REMARK    7  A    between atoms: CB_12  and  CG_11 
REMARK    8  A    between atoms: CA_13  and  CB_12 
REMARK    9  A    between atoms: CA_13  and  N_14 
REMARK   10  A    between atoms: C_15  and  CA_13 
REMARK   11  A    between atoms: C_15  and  O_16 
REMARK   12  A    between atoms: N_17  and  C_15 
REMARK   13  A    between atoms: CA_18  and  N_17 
REMARK   14  A    between atoms: C_19  and  CA_18 
REMARK       I    between atoms: N_21  and  C_19 
REMARK   15  A    between atoms: CA_22  and  N_21 
REMARK   16  A    between atoms: C_23  and  CA_22 
REMARK       I    between atoms: N_25  and  C_23 
REMARK   17  A    between atoms: CA_26  and  N_25 
REMARK   18  A    between atoms: C_27  and  CA_26 
REMARK   19  A    between atoms: CA_26  and  CB_29 
REMARK       I    between atoms: N_39  and  C_27 
REMARK   20  A    between atoms: CH_31  and  CH3_32 
REMARK       I    between atoms: NZ_33  and  CH_31 
REMARK   21  A    between atoms: CE_34  and  NZ_33 
REMARK   22  A    between atoms: CD_35  and  CE_34 
REMARK   23  A    between atoms: CG_36  and  CD_35 
REMARK   24  A    between atoms: CB_37  and  CG_36 
REMARK   25  A    between atoms: CA_38  and  CB_37 
REMARK   26  A    between atoms: CA_38  and  N_39 
REMARK   27  A    between atoms: CA_38  and  C_40 
REMARK       I    between atoms: C_40  and  N_42 
REMARK   28  A    between atoms: N_42  and  CA_43 
REMARK   29  A    between atoms: CA_43  and  C_44 
REMARK   30  A    between atoms: CA_43  and  CB_46 
REMARK   31  A    between atoms: CB_46  and  CG_47 
ROOT
ATOM      1  C   GLY d   1      27.559  41.396  30.131  0.00  0.00     0.236 C 
ATOM      2  O   GLY d   1      28.589  41.508  29.458  0.00  0.00    -0.272 OA
ATOM      3  N   ALA d   1      27.526  40.782  31.311  0.00  0.00    -0.347 N 
ATOM      4  H29 ALA d   1      26.670  40.756  31.827  0.00  0.00     0.163 HD
ENDROOT
BRANCH   1   5
ATOM      5  CA  GLY d   1      26.246  41.985  29.648  0.00  0.00     0.069 C 
ATOM      6  H27 GLY d   1      25.692  41.207  29.101  0.00  0.00     0.078 H 
ATOM      7  H28 GLY d   1      25.662  42.304  30.523  0.00  0.00     0.078 H 
BRANCH   5   8
ATOM      8  N   GLY d   1      26.429  43.136  28.764  0.00  0.00    -0.351 N 
ATOM      9  C   GLY d   1      27.153  44.212  29.098  0.00  0.00     0.243 C 
ATOM     10  O   GLY d   1      27.765  44.308  30.164  0.00  0.00    -0.272 OA
ATOM     11  H26 GLY d   1      25.991  43.118  27.865  0.00  0.00     0.163 HD
BRANCH   9  12
ATOM     12  CA  GLY d   1      27.177  45.365  28.103  0.00  0.00     0.157 C 
ATOM     13  H24 GLY d   1      26.538  46.167  28.500  0.00  0.00     0.090 H 
ATOM     14  H25 GLY d   1      28.214  45.725  28.028  0.00  0.00     0.090 H 
BRANCH  12  15
ATOM     15  N   GLY d   1      26.699  45.039  26.714  0.00  0.00    -0.039 N 
ATOM     16  H22 GLY d   1      25.757  44.700  26.834  0.00  0.00     0.280 HD
ATOM     17  H23 GLY d   1      26.679  45.923  26.230  0.00  0.00     0.280 HD
BRANCH  15  18
ATOM     18  C   ALY d   1      27.280  44.171  25.843  0.00  0.00     0.210 C 
ATOM     19  H20 ALY d   1      27.135  43.150  26.227  0.00  0.00     0.132 H 
BRANCH  18  20
ATOM     20  CA  ALY d   1      26.708  44.138  24.439  0.00  0.00     0.061 C 
ATOM     21  H18 ALY d   1      25.649  43.841  24.458  0.00  0.00     0.079 H 
BRANCH  20  22
ATOM     22  CB  ALY d   1      27.552  43.076  23.753  0.00  0.00    -0.042 C 
ATOM     23  H16 ALY d   1      28.593  43.429  23.724  0.00  0.00     0.036 H 
ATOM     24  H17 ALY d   1      27.494  42.152  24.347  0.00  0.00     0.036 H 
BRANCH  22  25
ATOM     25  CG  ALY d   1      27.115  42.757  22.330  0.00  0.00    -0.062 C 
ATOM     26  H14 ALY d   1      26.115  42.300  22.334  0.00  0.00     0.033 H 
ATOM     27  H15 ALY d   1      27.096  43.675  21.724  0.00  0.00     0.033 H 
BRANCH  25  28
ATOM     28  CD  ALY d   1      28.134  41.782  21.772  0.00  0.00    -0.050 C 
ATOM     29  H12 ALY d   1      29.128  42.026  22.174  0.00  0.00     0.035 H 
ATOM     30  H13 ALY d   1      27.859  40.759  22.069  0.00  0.00     0.035 H 
BRANCH  28  31
ATOM     31  CE  ALY d   1      28.170  41.870  20.275  0.00  0.00    -0.005 C 
ATOM     32  H10 ALY d   1      27.244  41.461  19.845  0.00  0.00     0.064 H 
ATOM     33  H11 ALY d   1      28.293  42.915  19.955  0.00  0.00     0.064 H 
BRANCH  31  34
ATOM     34  NZ  ALY d   1      29.319  41.073  19.859  0.00  0.00    -0.361 N 
ATOM     35  CH  ALY d   1      30.467  41.572  19.428  0.00  0.00     0.213 C 
ATOM     36  OH  ALY d   1      30.636  42.775  19.398  0.00  0.00    -0.274 OA
ATOM     37  H9  ALY d   1      29.233  40.078  19.903  0.00  0.00     0.162 HD
BRANCH  35  38
ATOM     38  CH3 ALY d   1      31.513  40.581  19.011  0.00  0.00    -0.003 C 
ATOM     39  H6  ALY d   1      31.119  39.561  19.130  0.00  0.00     0.040 H 
ATOM     40  H7  ALY d   1      32.407  40.705  19.640  0.00  0.00     0.040 H 
ATOM     41  H8  ALY d   1      31.780  40.751  17.957  0.00  0.00     0.040 H 
ENDBRANCH  35  38
ENDBRANCH  31  34
ENDBRANCH  28  31
ENDBRANCH  25  28
ENDBRANCH  22  25
ENDBRANCH  20  22
BRANCH  20  42
ATOM     42  N   ALY d   1      26.825  45.434  23.777  0.00  0.00    -0.351 N 
ATOM     43  C   GLY d   1      26.221  46.625  23.638  0.00  0.00     0.243 C 
ATOM     44  O   GLY d   1      25.011  46.386  23.820  0.00  0.00    -0.272 OA
ATOM     45  H19 ALY d   1      27.660  45.435  23.226  0.00  0.00     0.163 HD
BRANCH  43  46
ATOM     46  CA  GLY d   1      26.711  47.916  22.984  0.00  0.00     0.152 C 
ATOM     47  H4  GLY d   1      27.504  48.345  23.614  0.00  0.00     0.090 H 
ATOM     48  H5  GLY d   1      27.123  47.669  21.994  0.00  0.00     0.090 H 
BRANCH  46  49
ATOM     49  N   GLY d   1      25.644  48.942  22.807  0.00  0.00    -0.071 N 
ATOM     50  H1  GLY d   1      26.036  49.763  22.372  0.00  0.00     0.274 HD
ATOM     51  H2  GLY d   1      25.262  49.188  23.707  0.00  0.00     0.274 HD
ATOM     52  H3  GLY d   1      24.913  48.569  22.222  0.00  0.00     0.274 HD
ENDBRANCH  46  49
ENDBRANCH  43  46
ENDBRANCH  20  42
ENDBRANCH  18  20
BRANCH  18  53
ATOM     53  O   ALY d   1      28.477  44.467  26.000  0.00  0.00    -0.368 OA
ATOM     54  H21 ALY d   1      28.721  44.323  26.907  0.00  0.00     0.212 HD
ENDBRANCH  18  53
ENDBRANCH  15  18
ENDBRANCH  12  15
ENDBRANCH   9  12
ENDBRANCH   5   8
ENDBRANCH   1   5
BRANCH   3  55
ATOM     55  CA  ALA d   1      28.713  40.148  31.864  0.00  0.00     0.086 C 
ATOM     56  H30 ALA d   1      29.565  40.835  31.751  0.00  0.00     0.086 H 
BRANCH  55  57
ATOM     57  C   ALA d   1      29.013  38.859  31.075  0.00  0.00     0.240 C 
ATOM     58  O   ALA d   1      28.087  38.131  30.671  0.00  0.00    -0.271 OA
ATOM     59  N   ALY d   1      30.174  38.512  30.493  0.00  0.00    -0.346 N 
ATOM     60  H47 ALY d   1      30.955  39.102  30.698  0.00  0.00     0.163 HD
BRANCH  59  61
ATOM     61  CA  ALY d   1      30.447  37.391  29.603  0.00  0.00     0.089 C 
ATOM     62  H46 ALY d   1      29.544  36.767  29.534  0.00  0.00     0.087 H 
BRANCH  61  63
ATOM     63  CB  ALY d   1      30.778  37.874  28.185  0.00  0.00    -0.038 C 
ATOM     64  H44 ALY d   1      31.629  38.569  28.240  0.00  0.00     0.036 H 
ATOM     65  H45 ALY d   1      31.055  37.003  27.572  0.00  0.00     0.036 H 
BRANCH  63  66
ATOM     66  CG  ALY d   1      29.608  38.587  27.519  0.00  0.00    -0.061 C 
ATOM     67  H42 ALY d   1      28.746  37.904  27.501  0.00  0.00     0.033 H 
ATOM     68  H43 ALY d   1      29.357  39.478  28.113  0.00  0.00     0.033 H 
BRANCH  66  69
ATOM     69  CD  ALY d   1      29.913  39.026  26.084  0.00  0.00    -0.050 C 
ATOM     70  H40 ALY d   1      30.736  39.755  26.097  0.00  0.00     0.035 H 
ATOM     71  H41 ALY d   1      30.211  38.147  25.493  0.00  0.00     0.035 H 
BRANCH  69  72
ATOM     72  CE  ALY d   1      28.681  39.670  25.441  0.00  0.00    -0.005 C 
ATOM     73  H38 ALY d   1      28.151  40.283  26.185  0.00  0.00     0.064 H 
ATOM     74  H39 ALY d   1      28.990  40.304  24.597  0.00  0.00     0.064 H 
BRANCH  72  75
ATOM     75  NZ  ALY d   1      27.800  38.598  24.961  0.00  0.00    -0.361 N 
ATOM     76  CH  ALY d   1      27.796  38.009  23.753  0.00  0.00     0.213 C 
ATOM     77  OH  ALY d   1      28.582  38.317  22.867  0.00  0.00    -0.274 OA
ATOM     78  H37 ALY d   1      27.119  38.265  25.613  0.00  0.00     0.162 HD
BRANCH  76  79
ATOM     79  CH3 ALY d   1      26.776  36.931  23.537  0.00  0.00    -0.003 C 
ATOM     80  H34 ALY d   1      26.172  36.809  24.449  0.00  0.00     0.040 H 
ATOM     81  H35 ALY d   1      27.286  35.984  23.306  0.00  0.00     0.040 H 
ATOM     82  H36 ALY d   1      26.121  37.209  22.698  0.00  0.00     0.040 H 
ENDBRANCH  76  79
ENDBRANCH  72  75
ENDBRANCH  69  72
ENDBRANCH  66  69
ENDBRANCH  63  66
ENDBRANCH  61  63
BRANCH  61  83
ATOM     83  C   ALY d   1      31.551  36.559  30.251  0.00  0.00     0.241 C 
ATOM     84  O   ALY d   1      32.037  35.630  29.589  0.00  0.00    -0.271 OA
ATOM     85  N   ARG d   1      32.670  37.023  30.902  0.00  0.00    -0.345 N 
ATOM     86  H48 ARG d   1      32.568  37.979  31.177  0.00  0.00     0.163 HD
BRANCH  85  87
ATOM     87  CA  ARG d   1      34.016  36.465  31.311  0.00  0.00     0.096 C 
ATOM     88  H49 ARG d   1      34.525  36.157  30.386  0.00  0.00     0.089 H 
BRANCH  87  89
ATOM     89  C   ARG d   1      33.920  35.216  32.205  0.00  0.00     0.196 C 
ATOM     90  O   ARG d   1      32.948  34.985  32.920  0.00  0.00    -0.646 OA
ATOM     91  H   ARG d   1      34.748  34.507  32.204  0.00  0.00    -0.646 OA
ENDBRANCH  87  89
BRANCH  87  92
ATOM     92  CB  ARG d   1      34.894  37.542  31.982  0.00  0.00    -0.040 C 
ATOM     93  H50 ARG d   1      35.556  37.045  32.706  0.00  0.00     0.036 H 
ATOM     94  H51 ARG d   1      34.233  38.244  32.512  0.00  0.00     0.036 H 
BRANCH  92  95
ATOM     95  CG  ARG d   1      35.760  38.340  31.011  0.00  0.00    -0.074 C 
ATOM     96  H52 ARG d   1      36.350  39.081  31.570  0.00  0.00     0.027 H 
ATOM     97  H53 ARG d   1      35.116  38.857  30.285  0.00  0.00     0.027 H 
ATOM     98  H54 ARG d   1      36.439  37.657  30.479  0.00  0.00     0.027 H 
ENDBRANCH  92  95
ENDBRANCH  87  92
ENDBRANCH  85  87
ENDBRANCH  61  83
ENDBRANCH  59  61
ENDBRANCH  55  57
BRANCH  55  99
ATOM     99  CB  ALA d   1      28.526  39.857  33.350  0.00  0.00    -0.049 C 
ATOM    100  H31 ALA d   1      29.433  39.379  33.747  0.00  0.00     0.030 H 
ATOM    101  H32 ALA d   1      27.667  39.184  33.486  0.00  0.00     0.030 H 
ATOM    102  H33 ALA d   1      28.343  40.799  33.888  0.00  0.00     0.030 H 
ENDBRANCH  55  99
ENDBRANCH   3  55
TORSDOF 31
