REMARK  2 active torsions:
REMARK  status: ('A' for Active; 'I' for Inactive)
REMARK    1  A    between atoms: N1_3  and  C7_4 
REMARK    2  A    between atoms: C5_7  and  C8_12 
ROOT
ATOM      1  O1  0DF d   1      16.552   2.611  -9.545  0.00  0.00    -0.246 OA
ATOM      2  C3  0DF d   1      17.290   3.217  -8.671  0.00  0.00     0.328 A 
ATOM      3  N1  0DF d   1      18.602   3.270  -8.758  0.00  0.00    -0.300 N 
ATOM      4  C2  0DF d   1      19.001   3.940  -7.667  0.00  0.00     0.085 A 
ATOM      5  C6  0DF d   1      20.262   4.371  -7.232  0.00  0.00    -0.041 A 
ATOM      6  C5  0DF d   1      20.283   5.091  -6.046  0.00  0.00    -0.006 A 
ATOM      7  C4  0DF d   1      19.106   5.410  -5.390  0.00  0.00     0.015 A 
ATOM      8  N3  0DF d   1      17.915   5.054  -5.848  0.00  0.00    -0.240 NA
ATOM      9  C1  0DF d   1      17.841   4.321  -6.981  0.00  0.00     0.158 A 
ATOM     10  N2  0DF d   1      16.784   3.815  -7.597  0.00  0.00    -0.291 N 
ATOM     11  H   0DF d   1      21.172   4.154  -7.792  0.00  0.00     0.088 H 
ATOM     12  H   0DF d   1      19.162   5.976  -4.460  0.00  0.00     0.116 H 
ATOM     13  H   0DF d   1      15.806   3.871  -7.313  0.00  0.00     0.172 HD
ENDROOT
BRANCH   6  14
ATOM     14  C8  0DF d   1      21.533   5.631  -5.453  0.00  0.00    -0.025 A 
ATOM     15  C13 0DF d   1      22.447   6.283  -6.299  0.00  0.00    -0.072 A 
ATOM     16  C12 0DF d   1      23.613   6.828  -5.765  0.00  0.00    -0.082 A 
ATOM     17  H   0DF d   1      22.245   6.362  -7.367  0.00  0.00     0.084 H 
ATOM     18  C11 0DF d   1      23.831   6.753  -4.385  0.00  0.00    -0.083 A 
ATOM     19  H   0DF d   1      24.346   7.307  -6.414  0.00  0.00     0.083 H 
ATOM     20  C10 0DF d   1      22.915   6.147  -3.535  0.00  0.00    -0.082 A 
ATOM     21  H   0DF d   1      24.742   7.181  -3.967  0.00  0.00     0.083 H 
ATOM     22  C9  0DF d   1      21.746   5.584  -4.066  0.00  0.00    -0.072 A 
ATOM     23  H   0DF d   1      23.104   6.109  -2.462  0.00  0.00     0.083 H 
ATOM     24  H   0DF d   1      21.012   5.116  -3.410  0.00  0.00     0.084 H 
ENDBRANCH   6  14
BRANCH   3  25
ATOM     25  C7  0DF d   1      19.417   2.698  -9.843  0.00  0.00    -0.009 C 
ATOM     26  H   0DF d   1      19.985   3.493 -10.327  0.00  0.00     0.057 H 
ATOM     27  H   0DF d   1      20.104   1.960  -9.429  0.00  0.00     0.057 H 
ATOM     28  H   0DF d   1      18.764   2.220 -10.573  0.00  0.00     0.057 H 
ENDBRANCH   3  25
TORSDOF 2
