REMARK  10 active torsions:
REMARK  status: ('A' for Active; 'I' for Inactive)
REMARK       I    between atoms: C_1  and  N_2 
REMARK    1  A    between atoms: C11_23  and  C_1 
REMARK    2  A    between atoms: N_2  and  CA_17 
REMARK    3  A    between atoms: C2_6  and  NA2_31 
REMARK       I    between atoms: N5_12  and  CP1_34 
REMARK    4  A    between atoms: C9_16  and  C6_13 
REMARK    5  A    between atoms: N10_22  and  C9_16 
REMARK    6  A    between atoms: CA_17  and  CB_18 
REMARK    7  A    between atoms: CA_17  and  CT_21 
REMARK    8  A    between atoms: CB_18  and  CG_20 
REMARK    9  A    between atoms: CG_20  and  CD_19 
REMARK   10  A    between atoms: C14_26  and  N10_22 
ROOT
ATOM      1  C11 FOZ d   1      50.249 -18.438  27.115  0.00  0.00     0.032 A 
ATOM      2  C12 FOZ d   1      49.433 -19.151  26.220  0.00  0.00    -0.066 A 
ATOM      3  C13 FOZ d   1      48.475 -20.062  26.693  0.00  0.00    -0.057 A 
ATOM      4  C14 FOZ d   1      48.356 -20.276  28.074  0.00  0.00     0.028 A 
ATOM      5  C15 FOZ d   1      49.182 -19.575  28.975  0.00  0.00    -0.057 A 
ATOM      6  C16 FOZ d   1      50.125 -18.667  28.500  0.00  0.00    -0.066 A 
ATOM      7  H   FOZ d   1      49.544 -18.996  25.153  0.00  0.00     0.085 H 
ATOM      8  H   FOZ d   1      47.835 -20.594  25.999  0.00  0.00     0.086 H 
ATOM      9  H   FOZ d   1      49.083 -19.743  30.041  0.00  0.00     0.086 H 
ATOM     10  H   FOZ d   1      50.764 -18.136  29.196  0.00  0.00     0.085 H 
ENDROOT
BRANCH   4  11
ATOM     11  N10 FOZ d   1      47.425 -21.154  28.528  0.00  0.00    -0.388 N 
ATOM     12  H   FOZ d   1      46.859 -21.658  27.830  0.00  0.00     0.159 HD
BRANCH  11  13
ATOM     13  C9  FOZ d   1      47.169 -21.435  29.949  0.00  0.00     0.013 C 
ATOM     14  H   FOZ d   1      47.721 -22.345  30.228  0.00  0.00     0.067 H 
ATOM     15  H   FOZ d   1      47.538 -20.586  30.543  0.00  0.00     0.067 H 
BRANCH  13  16
ATOM     16  C6  FOZ d   1      45.668 -21.651  30.281  0.00  0.00     0.050 C 
ATOM     17  N5  FOZ d   1      44.884 -20.634  29.541  0.00  0.00    -0.309 N 
ATOM     18  C4A FOZ d   1      44.927 -19.347  30.121  0.00  0.00     0.153 A 
ATOM     19  CP1 FOZ d   1      43.655 -21.031  28.964  0.00  0.00     0.176 C 
ATOM     20  C4  FOZ d   1      44.751 -18.142  29.273  0.00  0.00     0.290 A 
ATOM     21  C8A FOZ d   1      45.277 -19.131  31.544  0.00  0.00     0.175 A 
ATOM     22  N3  FOZ d   1      44.897 -16.929  29.871  0.00  0.00    -0.152 N 
ATOM     23  O4  FOZ d   1      44.458 -18.273  28.051  0.00  0.00    -0.265 OA
ATOM     24  C2  FOZ d   1      45.212 -16.812  31.192  0.00  0.00     0.703 A 
ATOM     25  H   FOZ d   1      44.770 -16.100  29.326  0.00  0.00     0.187 HD
ATOM     26  N1  FOZ d   1      45.410 -17.873  31.997  0.00  0.00    -0.045 NA
ATOM     27  N8  FOZ d   1      45.489 -20.204  32.335  0.00  0.00    -0.370 N 
ATOM     28  C7  FOZ d   1      45.466 -21.566  31.800  0.00  0.00     0.015 C 
ATOM     29  H   FOZ d   1      45.671 -20.061  33.339  0.00  0.00     0.161 HD
ATOM     30  H   FOZ d   1      46.267 -22.141  32.287  0.00  0.00     0.067 H 
ATOM     31  H   FOZ d   1      44.492 -22.015  32.044  0.00  0.00     0.067 H 
ATOM     32  O3  FOZ d   1      43.707 -21.846  28.048  0.00  0.00    -0.283 OA
ATOM     33  H   FOZ d   1      42.705 -20.631  29.317  0.00  0.00     0.180 H 
ATOM     34  H   FOZ d   1      45.358 -22.651  29.943  0.00  0.00     0.078 H 
BRANCH  24  35
ATOM     35  NA2 FOZ d   1      45.344 -15.578  31.711  0.00  0.00    -0.233 N 
ATOM     36  H   FOZ d   1      45.581 -15.461  32.706  0.00  0.00     0.174 HD
ATOM     37  H   FOZ d   1      45.208 -14.751  31.113  0.00  0.00     0.174 HD
ENDBRANCH  24  35
ENDBRANCH  13  16
ENDBRANCH  11  13
ENDBRANCH   4  11
BRANCH   1  38
ATOM     38  C   FOZ d   1      51.314 -17.471  26.629  0.00  0.00     0.252 C 
ATOM     39  N   FOZ d   1      51.660 -17.406  25.343  0.00  0.00    -0.342 N 
ATOM     40  H   FOZ d   1      51.244 -18.051  24.702  0.00  0.00     0.163 HD
ATOM     41  O   FOZ d   1      51.875 -16.765  27.448  0.00  0.00    -0.268 OA
BRANCH  39  42
ATOM     42  CA  FOZ d   1      52.628 -16.426  24.827  0.00  0.00     0.097 C 
ATOM     43  H   FOZ d   1      52.512 -15.519  25.438  0.00  0.00     0.089 H 
BRANCH  42  44
ATOM     44  CB  FOZ d   1      54.086 -16.859  24.933  0.00  0.00    -0.028 C 
ATOM     45  H   FOZ d   1      54.382 -16.870  25.992  0.00  0.00     0.037 H 
ATOM     46  H   FOZ d   1      54.715 -16.143  24.384  0.00  0.00     0.037 H 
BRANCH  44  47
ATOM     47  CG  FOZ d   1      54.285 -18.255  24.343  0.00  0.00     0.018 C 
ATOM     48  H   FOZ d   1      54.089 -18.226  23.261  0.00  0.00     0.049 H 
ATOM     49  H   FOZ d   1      53.588 -18.957  24.823  0.00  0.00     0.049 H 
BRANCH  47  50
ATOM     50  CD  FOZ d   1      55.709 -18.715  24.584  0.00  0.00     0.172 C 
ATOM     51  OE1 FOZ d   1      55.931 -19.360  25.633  0.00  0.00    -0.648 OA
ATOM     52  OE2 FOZ d   1      56.600 -18.456  23.739  0.00  0.00    -0.648 OA
ENDBRANCH  47  50
ENDBRANCH  44  47
ENDBRANCH  42  44
BRANCH  42  53
ATOM     53  CT  FOZ d   1      52.342 -16.054  23.392  0.00  0.00     0.196 C 
ATOM     54  O1  FOZ d   1      52.883 -15.068  22.881  0.00  0.00    -0.646 OA
ATOM     55  O2  FOZ d   1      51.512 -16.711  22.769  0.00  0.00    -0.646 OA
ENDBRANCH  42  53
ENDBRANCH  39  42
ENDBRANCH   1  38
TORSDOF 10
