REMARK  3 active torsions:
REMARK  status: ('A' for Active; 'I' for Inactive)
REMARK    1  A    between atoms: C2_2  and  C12_12 
REMARK    2  A    between atoms: N7_7  and  C10_10 
REMARK    3  A    between atoms: C16_16  and  C18_18 
REMARK       I    between atoms: C18_18  and  N20_20 
ROOT
ATOM      1  C1  0DJ d   1      12.067  -2.329  33.980  0.00  0.00     0.015 A 
ATOM      2  C2  0DJ d   1      10.947  -3.046  34.307  0.00  0.00    -0.006 A 
ATOM      3  C3  0DJ d   1       9.694  -2.507  33.974  0.00  0.00    -0.041 A 
ATOM      4  C4  0DJ d   1       9.656  -1.292  33.325  0.00  0.00     0.085 A 
ATOM      5  C5  0DJ d   1      10.842  -0.634  33.046  0.00  0.00     0.158 A 
ATOM      6  N6  0DJ d   1      12.002  -1.173  33.366  0.00  0.00    -0.240 NA
ATOM      7  N7  0DJ d   1       8.686  -0.532  32.894  0.00  0.00    -0.300 N 
ATOM      8  C8  0DJ d   1       9.260   0.500  32.338  0.00  0.00     0.328 A 
ATOM      9  N9  0DJ d   1      10.567   0.482  32.426  0.00  0.00    -0.291 N 
ATOM     10  O11 0DJ d   1       8.634   1.430  31.777  0.00  0.00    -0.246 OA
ATOM     11  H1  0DJ d   1      13.040  -2.731  34.238  0.00  0.00     0.116 H 
ATOM     12  H2  0DJ d   1       8.779  -3.034  34.221  0.00  0.00     0.088 H 
ATOM     13  H3  0DJ d   1      11.211   1.170  32.092  0.00  0.00     0.172 HD
ENDROOT
BRANCH   2  14
ATOM     14  C12 0DJ d   1      11.090  -4.368  34.984  0.00  0.00    -0.024 A 
ATOM     15  C13 0DJ d   1      10.291  -5.436  34.587  0.00  0.00    -0.072 A 
ATOM     16  C14 0DJ d   1      10.410  -6.672  35.194  0.00  0.00    -0.081 A 
ATOM     17  H7  0DJ d   1       9.567  -5.297  33.792  0.00  0.00     0.084 H 
ATOM     18  C15 0DJ d   1      11.349  -6.837  36.188  0.00  0.00    -0.068 A 
ATOM     19  H8  0DJ d   1       9.775  -7.497  34.893  0.00  0.00     0.083 H 
ATOM     20  C16 0DJ d   1      12.160  -5.797  36.574  0.00  0.00     0.032 A 
ATOM     21  H9  0DJ d   1      11.450  -7.801  36.673  0.00  0.00     0.085 H 
ATOM     22  C17 0DJ d   1      12.038  -4.567  35.963  0.00  0.00    -0.057 A 
ATOM     23  H10 0DJ d   1      12.691  -3.753  36.255  0.00  0.00     0.086 H 
BRANCH  20  24
ATOM     24  C18 0DJ d   1      13.162  -6.013  37.695  0.00  0.00     0.249 C 
ATOM     25  O19 0DJ d   1      13.572  -5.099  38.333  0.00  0.00    -0.268 OA
ATOM     26  N20 0DJ d   1      13.526  -7.233  37.989  0.00  0.00    -0.366 N 
ATOM     27  H11 0DJ d   1      14.185  -7.395  38.724  0.00  0.00     0.159 HD
ATOM     28  H12 0DJ d   1      13.146  -8.005  37.479  0.00  0.00     0.159 HD
ENDBRANCH  20  24
ENDBRANCH   2  14
BRANCH   7  29
ATOM     29  C10 0DJ d   1       7.282  -0.851  32.969  0.00  0.00    -0.009 C 
ATOM     30  H4  0DJ d   1       7.150  -1.799  33.511  0.00  0.00     0.057 H 
ATOM     31  H5  0DJ d   1       6.874  -0.950  31.952  0.00  0.00     0.057 H 
ATOM     32  H6  0DJ d   1       6.751  -0.048  33.501  0.00  0.00     0.057 H 
ENDBRANCH   7  29
TORSDOF 3
