REMARK  32 active torsions:
REMARK  status: ('A' for Active; 'I' for Inactive)
REMARK    1  A    between atoms: N_1  and  CA_2 
REMARK    2  A    between atoms: CA_2  and  C_3 
REMARK    3  A    between atoms: CA_2  and  CB_5 
REMARK       I    between atoms: C_3  and  N_6 
REMARK    4  A    between atoms: N_6  and  CA_7 
REMARK    5  A    between atoms: CA_7  and  C_8 
REMARK    6  A    between atoms: CA_7  and  CB_10 
REMARK       I    between atoms: C_8  and  N_17 
REMARK    7  A    between atoms: CB_10  and  CG_11 
REMARK    8  A    between atoms: CG_11  and  CD_12 
REMARK    9  A    between atoms: CD_12  and  NE_13 
REMARK       I    between atoms: NE_13  and  CZ_14 
REMARK       I    between atoms: CZ_14  and  NH1_15 
REMARK       I    between atoms: CZ_14  and  NH2_16 
REMARK   10  A    between atoms: N_17  and  CA_18 
REMARK   11  A    between atoms: CA_18  and  C_19 
REMARK   12  A    between atoms: CA_18  and  CB_21 
REMARK       I    between atoms: C_19  and  N_28 
REMARK   13  A    between atoms: CB_21  and  CG_22 
REMARK   14  A    between atoms: CG_22  and  CD_23 
REMARK   15  A    between atoms: CD_23  and  NE_24 
REMARK       I    between atoms: NE_24  and  CZ_25 
REMARK       I    between atoms: CZ_25  and  NH1_26 
REMARK   16  A    between atoms: N_28  and  CA_29 
REMARK   17  A    between atoms: CA_29  and  C_30 
REMARK   18  A    between atoms: CA_29  and  CB_32 
REMARK       I    between atoms: C_30  and  N_37 
REMARK   19  A    between atoms: CB_32  and  CG_33 
REMARK   20  A    between atoms: CG_33  and  CD_34 
REMARK   21  A    between atoms: CD_34  and  CE_35 
REMARK   22  A    between atoms: CE_35  and  NZ_36 
REMARK   23  A    between atoms: N_37  and  CA_38 
REMARK   24  A    between atoms: CA_38  and  CB_39 
REMARK   25  A    between atoms: CA_38  and  C_41 
REMARK   26  A    between atoms: CB_39  and  OG_40 
REMARK   27  A    between atoms: OG_40  and  P_43 
REMARK       I    between atoms: C_41  and  N_47 
REMARK   28  A    between atoms: N_47  and  CA_48 
REMARK   29  A    between atoms: CA_48  and  C_49 
REMARK   30  A    between atoms: CA_48  and  CB_51 
REMARK   31  A    between atoms: CB_51  and  CG1_52 
REMARK   32  A    between atoms: CB_51  and  CG2_53 
ROOT
ATOM      1  CA  ARG d   1      28.786 -11.886  13.884  0.00  0.00     0.089 C 
ATOM      2  H22 ARG d   1      29.827 -12.222  13.765  0.00  0.00     0.087 H 
ENDROOT
BRANCH   1   3
ATOM      3  N   ARG d   1      28.816 -10.426  14.170  0.00  0.00    -0.346 N 
ATOM      4  C   ARG d   1      29.278  -9.545  13.281  0.00  0.00     0.241 C 
ATOM      5  O   ARG d   1      29.758  -9.872  12.186  0.00  0.00    -0.271 OA
ATOM      6  H21 ARG d   1      28.481 -10.096  15.053  0.00  0.00     0.163 HD
BRANCH   4   7
ATOM      7  CA  ARG d   1      29.204  -8.073  13.682  0.00  0.00     0.089 C 
ATOM      8  H9  ARG d   1      29.084  -7.997  14.773  0.00  0.00     0.087 H 
BRANCH   7   9
ATOM      9  N   ARG d   1      30.446  -7.447  13.283  0.00  0.00    -0.346 N 
ATOM     10  C   LYS d   1      31.421  -7.304  14.171  0.00  0.00     0.248 C 
ATOM     11  O   LYS d   1      31.265  -7.522  15.391  0.00  0.00    -0.271 OA
ATOM     12  H8  ARG d   1      30.569  -7.124  12.344  0.00  0.00     0.163 HD
BRANCH  10  13
ATOM     13  CA  LYS d   1      32.764  -6.828  13.618  0.00  0.00     0.172 C 
ATOM     14  H4  LYS d   1      32.582  -6.203  12.732  0.00  0.00     0.098 H 
BRANCH  13  15
ATOM     15  N   LYS d   1      33.470  -6.004  14.648  0.00  0.00    -0.067 N 
ATOM     16  H1  LYS d   1      34.355  -5.692  14.280  0.00  0.00     0.275 HD
ATOM     17  H2  LYS d   1      33.627  -6.561  15.474  0.00  0.00     0.275 HD
ATOM     18  H3  LYS d   1      32.904  -5.204  14.884  0.00  0.00     0.275 HD
ENDBRANCH  13  15
BRANCH  13  19
ATOM     19  CB  LYS d   1      33.616  -8.035  13.199  0.00  0.00    -0.042 C 
ATOM     20  H5  LYS d   1      33.074  -8.622  12.443  0.00  0.00     0.030 H 
ATOM     21  H6  LYS d   1      33.816  -8.665  14.078  0.00  0.00     0.030 H 
ATOM     22  H7  LYS d   1      34.568  -7.683  12.776  0.00  0.00     0.030 H 
ENDBRANCH  13  19
ENDBRANCH  10  13
ENDBRANCH   7   9
BRANCH   7  23
ATOM     23  CB  ARG d   1      28.042  -7.378  13.009  0.00  0.00    -0.036 C 
ATOM     24  H10 ARG d   1      28.213  -7.387  11.922  0.00  0.00     0.036 H 
ATOM     25  H11 ARG d   1      28.005  -6.338  13.366  0.00  0.00     0.036 H 
BRANCH  23  26
ATOM     26  CG  ARG d   1      26.694  -8.031  13.289  0.00  0.00    -0.048 C 
ATOM     27  H12 ARG d   1      26.586  -8.196  14.371  0.00  0.00     0.035 H 
ATOM     28  H13 ARG d   1      26.639  -8.996  12.763  0.00  0.00     0.035 H 
BRANCH  26  29
ATOM     29  CD  ARG d   1      25.578  -7.130  12.804  0.00  0.00     0.009 C 
ATOM     30  H14 ARG d   1      25.855  -6.704  11.829  0.00  0.00     0.064 H 
ATOM     31  H15 ARG d   1      25.428  -6.317  13.530  0.00  0.00     0.064 H 
BRANCH  29  32
ATOM     32  NE  ARG d   1      24.334  -7.885  12.663  0.00  0.00    -0.227 N 
ATOM     33  CZ  ARG d   1      23.468  -8.119  13.643  0.00  0.00     0.665 C 
ATOM     34  NH1 ARG d   1      23.665  -7.629  14.874  0.00  0.00    -0.235 N 
ATOM     35  NH2 ARG d   1      22.382  -8.834  13.389  0.00  0.00    -0.235 N 
ATOM     36  H17 ARG d   1      22.982  -7.822  15.620  0.00  0.00     0.174 HD
ATOM     37  H18 ARG d   1      24.500  -7.060  15.074  0.00  0.00     0.174 HD
ATOM     38  H19 ARG d   1      22.225  -9.214  12.444  0.00  0.00     0.174 HD
ATOM     39  H20 ARG d   1      21.695  -9.010  14.136  0.00  0.00     0.174 HD
ATOM     40  H16 ARG d   1      24.112  -8.265  11.732  0.00  0.00     0.177 HD
ENDBRANCH  29  32
ENDBRANCH  26  29
ENDBRANCH  23  26
ENDBRANCH   7  23
ENDBRANCH   4   7
ENDBRANCH   1   3
BRANCH   1  41
ATOM     41  C   ARG d   1      28.064 -12.161  12.559  0.00  0.00     0.241 C 
ATOM     42  O   ARG d   1      27.179 -11.378  12.129  0.00  0.00    -0.271 OA
ATOM     43  N   LYS d   1      28.468 -13.258  11.918  0.00  0.00    -0.346 N 
ATOM     44  H34 LYS d   1      29.140 -13.847  12.367  0.00  0.00     0.163 HD
BRANCH  43  45
ATOM     45  CA  LYS d   1      27.987 -13.642  10.609  0.00  0.00     0.089 C 
ATOM     46  H35 LYS d   1      27.686 -12.736  10.063  0.00  0.00     0.087 H 
BRANCH  45  47
ATOM     47  C   LYS d   1      26.810 -14.579  10.713  0.00  0.00     0.241 C 
ATOM     48  O   LYS d   1      26.812 -15.480  11.547  0.00  0.00    -0.271 OA
ATOM     49  N   SEP d   1      25.816 -14.362   9.835  0.00  0.00    -0.344 N 
ATOM     50  H47 SEP d   1      25.788 -13.508   9.315  0.00  0.00     0.163 HD
BRANCH  49  51
ATOM     51  CA  SEP d   1      24.760 -15.385   9.634  0.00  0.00     0.110 C 
ATOM     52  H48 SEP d   1      25.085 -16.355  10.037  0.00  0.00     0.090 H 
BRANCH  51  53
ATOM     53  CB  SEP d   1      23.436 -14.983  10.308  0.00  0.00     0.059 C 
ATOM     54  H49 SEP d   1      23.565 -14.936  11.399  0.00  0.00     0.079 H 
ATOM     55  H50 SEP d   1      22.649 -15.712  10.063  0.00  0.00     0.079 H 
BRANCH  53  56
ATOM     56  OG  SEP d   1      23.093 -13.705   9.801  0.00  0.00    -0.280 OA
BRANCH  56  57
ATOM     57  P   SEP d   1      21.606 -13.247  10.237  0.00  0.00     0.422 P 
ATOM     58  O1P SEP d   1      21.457 -11.916   9.384  0.00  0.00    -0.617 OA
ATOM     59  O2P SEP d   1      20.524 -14.307   9.771  0.00  0.00    -0.617 OA
ATOM     60  O3P SEP d   1      21.481 -12.951  11.748  0.00  0.00    -0.617 OA
ENDBRANCH  56  57
ENDBRANCH  53  56
ENDBRANCH  51  53
BRANCH  51  61
ATOM     61  C   SEP d   1      24.610 -15.460   8.107  0.00  0.00     0.243 C 
ATOM     62  O   SEP d   1      25.186 -14.617   7.364  0.00  0.00    -0.271 OA
ATOM     63  N   VAL d   1      23.878 -16.455   7.598  0.00  0.00    -0.344 N 
ATOM     64  H51 VAL d   1      23.407 -17.098   8.203  0.00  0.00     0.163 HD
BRANCH  63  65
ATOM     65  CA  VAL d   1      23.772 -16.595   6.130  0.00  0.00     0.099 C 
ATOM     66  H52 VAL d   1      23.934 -15.598   5.694  0.00  0.00     0.090 H 
BRANCH  65  67
ATOM     67  C   VAL d   1      22.409 -17.065   5.695  0.00  0.00     0.197 C 
ATOM     68  O   VAL d   1      22.019 -16.930   4.508  0.00  0.00    -0.646 OA
ATOM     69  OXT VAL d   1      21.640 -17.624   6.505  0.00  0.00    -0.646 OA
ENDBRANCH  65  67
BRANCH  65  70
ATOM     70  CB  VAL d   1      24.880 -17.548   5.566  0.00  0.00    -0.032 C 
ATOM     71  H53 VAL d   1      25.839 -17.285   6.037  0.00  0.00     0.042 H 
BRANCH  70  72
ATOM     72  CG1 VAL d   1      24.541 -19.003   5.923  0.00  0.00    -0.071 C 
ATOM     73  H54 VAL d   1      25.321 -19.669   5.526  0.00  0.00     0.028 H 
ATOM     74  H55 VAL d   1      23.570 -19.272   5.482  0.00  0.00     0.028 H 
ATOM     75  H56 VAL d   1      24.490 -19.110   7.017  0.00  0.00     0.028 H 
ENDBRANCH  70  72
BRANCH  70  76
ATOM     76  CG2 VAL d   1      25.030 -17.386   4.040  0.00  0.00    -0.071 C 
ATOM     77  H57 VAL d   1      25.272 -16.339   3.804  0.00  0.00     0.028 H 
ATOM     78  H58 VAL d   1      24.087 -17.664   3.547  0.00  0.00     0.028 H 
ATOM     79  H59 VAL d   1      25.838 -18.039   3.680  0.00  0.00     0.028 H 
ENDBRANCH  70  76
ENDBRANCH  65  70
ENDBRANCH  63  65
ENDBRANCH  51  61
ENDBRANCH  49  51
ENDBRANCH  45  47
BRANCH  45  80
ATOM     80  CB  LYS d   1      29.074 -14.369   9.831  0.00  0.00    -0.038 C 
ATOM     81  H36 LYS d   1      28.717 -14.531   8.803  0.00  0.00     0.036 H 
ATOM     82  H37 LYS d   1      29.257 -15.340  10.314  0.00  0.00     0.036 H 
BRANCH  80  83
ATOM     83  CG  LYS d   1      30.414 -13.594   9.767  0.00  0.00    -0.061 C 
ATOM     84  H38 LYS d   1      31.122 -14.144   9.130  0.00  0.00     0.033 H 
ATOM     85  H39 LYS d   1      30.829 -13.501  10.781  0.00  0.00     0.033 H 
BRANCH  83  86
ATOM     86  CD  LYS d   1      30.184 -12.179   9.176  0.00  0.00    -0.043 C 
ATOM     87  H40 LYS d   1      29.474 -11.638   9.818  0.00  0.00     0.035 H 
ATOM     88  H41 LYS d   1      29.760 -12.281   8.166  0.00  0.00     0.035 H 
BRANCH  86  89
ATOM     89  CE  LYS d   1      31.490 -11.366   9.086  0.00  0.00     0.080 C 
ATOM     90  H42 LYS d   1      31.989 -11.369  10.066  0.00  0.00     0.075 H 
ATOM     91  H43 LYS d   1      31.256 -10.331   8.797  0.00  0.00     0.075 H 
BRANCH  89  92
ATOM     92  NZ  LYS d   1      32.385 -11.962   8.081  0.00  0.00    -0.079 N 
ATOM     93  H44 LYS d   1      33.236 -11.425   8.028  0.00  0.00     0.274 HD
ATOM     94  H45 LYS d   1      31.930 -11.959   7.182  0.00  0.00     0.274 HD
ATOM     95  H46 LYS d   1      32.602 -12.910   8.345  0.00  0.00     0.274 HD
ENDBRANCH  89  92
ENDBRANCH  86  89
ENDBRANCH  83  86
ENDBRANCH  80  83
ENDBRANCH  45  80
ENDBRANCH  43  45
ENDBRANCH   1  41
BRANCH   1  96
ATOM     96  CB  ARG d   1      28.187 -12.676  15.054  0.00  0.00    -0.036 C 
ATOM     97  H23 ARG d   1      28.582 -12.241  15.984  0.00  0.00     0.036 H 
ATOM     98  H24 ARG d   1      28.531 -13.717  14.961  0.00  0.00     0.036 H 
BRANCH  96  99
ATOM     99  CG  ARG d   1      26.638 -12.705  15.174  0.00  0.00    -0.048 C 
ATOM    100  H25 ARG d   1      26.380 -13.148  16.147  0.00  0.00     0.035 H 
ATOM    101  H26 ARG d   1      26.246 -13.340  14.366  0.00  0.00     0.035 H 
BRANCH  99 102
ATOM    102  CD  ARG d   1      25.941 -11.316  15.077  0.00  0.00     0.009 C 
ATOM    103  H27 ARG d   1      26.228 -10.816  14.140  0.00  0.00     0.064 H 
ATOM    104  H28 ARG d   1      26.233 -10.688  15.932  0.00  0.00     0.064 H 
BRANCH 102 105
ATOM    105  NE  ARG d   1      24.506 -11.546  15.098  0.00  0.00    -0.227 N 
ATOM    106  CZ  ARG d   1      23.758 -11.789  14.024  0.00  0.00     0.665 C 
ATOM    107  NH1 ARG d   1      24.313 -11.877  12.819  0.00  0.00    -0.235 N 
ATOM    108  NH2 ARG d   1      22.442 -12.008  14.170  0.00  0.00    -0.235 N 
ATOM    109  H30 ARG d   1      23.726 -12.065  11.994  0.00  0.00     0.174 HD
ATOM    110  H31 ARG d   1      25.330 -11.757  12.710  0.00  0.00     0.174 HD
ATOM    111  H32 ARG d   1      22.009 -11.941  15.102  0.00  0.00     0.174 HD
ATOM    112  H33 ARG d   1      21.865 -12.243  13.350  0.00  0.00     0.174 HD
ATOM    113  H29 ARG d   1      24.032 -11.519  16.012  0.00  0.00     0.177 HD
ENDBRANCH 102 105
ENDBRANCH  99 102
ENDBRANCH  96  99
ENDBRANCH   1  96
TORSDOF 32
