REMARK  4 active torsions:
REMARK  status: ('A' for Active; 'I' for Inactive)
REMARK    1  A    between atoms: C8_6  and  C10_7 
REMARK    2  A    between atoms: N1_9  and  C4_10 
REMARK    3  A    between atoms: C2_12  and  O2_13 
REMARK    4  A    between atoms: C1_15  and  C5_16 
ROOT
ATOM      1  C4  0DN d   1       7.709   2.165  19.119  0.00  0.00     0.116 C 
ATOM      2  C3  0DN d   1       7.089   3.057  20.214  0.00  0.00     0.002 C 
ATOM      3  C2  0DN d   1       8.215   3.180  21.233  0.00  0.00     0.067 C 
ATOM      4  O1  0DN d   1       8.700   1.381  19.747  0.00  0.00    -0.356 OA
ATOM      5  C1  0DN d   1       9.088   1.945  20.991  0.00  0.00     0.090 C 
ATOM      6  H6  0DN d   1       8.172   2.830  18.375  0.00  0.00     0.118 H 
ATOM      7  H7  0DN d   1       6.204   2.579  20.659  0.00  0.00     0.043 H 
ATOM      8  H8  0DN d   1       6.811   4.042  19.811  0.00  0.00     0.043 H 
ATOM      9  H9  0DN d   1       7.837   3.226  22.265  0.00  0.00     0.087 H 
ATOM     10  H11 0DN d   1      10.132   2.284  20.922  0.00  0.00     0.091 H 
ENDROOT
BRANCH   1  11
ATOM     11  N1  0DN d   1       6.842   1.232  18.398  0.00  0.00    -0.282 N 
ATOM     12  C6  0DN d   1       6.733   1.369  16.988  0.00  0.00     0.331 A 
ATOM     13  O4  0DN d   1       7.371   2.297  16.431  0.00  0.00    -0.246 OA
ATOM     14  N2  0DN d   1       5.954   0.523  16.280  0.00  0.00    -0.275 N 
ATOM     15  C7  0DN d   1       5.306  -0.500  16.892  0.00  0.00     0.256 A 
ATOM     16  H1  0DN d   1       5.854   0.652  15.293  0.00  0.00     0.173 HD
ATOM     17  O3  0DN d   1       4.590  -1.291  16.243  0.00  0.00    -0.267 OA
ATOM     18  C8  0DN d   1       5.423  -0.669  18.366  0.00  0.00     0.022 A 
ATOM     19  C9  0DN d   1       6.223   0.219  19.051  0.00  0.00    -0.002 A 
ATOM     20  H5  0DN d   1       6.359   0.106  20.126  0.00  0.00     0.113 H 
BRANCH  18  21
ATOM     21  C10 0DN d   1       4.737  -1.781  19.117  0.00  0.00    -0.045 C 
ATOM     22  H2  0DN d   1       4.971  -1.699  20.189  0.00  0.00     0.033 H 
ATOM     23  H3  0DN d   1       5.090  -2.752  18.738  0.00  0.00     0.033 H 
ATOM     24  H4  0DN d   1       3.649  -1.704  18.973  0.00  0.00     0.033 H 
ENDBRANCH  18  21
ENDBRANCH   1  11
BRANCH   3  25
ATOM     25  O2  0DN d   1       8.996   4.346  20.905  0.00  0.00    -0.393 OA
ATOM     26  H10 0DN d   1       9.704   4.438  21.532  0.00  0.00     0.210 HD
ENDBRANCH   3  25
BRANCH   5  27
ATOM     27  C5  0DN d   1       9.031   0.858  22.066  0.00  0.00     0.085 C 
ATOM     28  F1  0DN d   1       7.727   0.567  22.369  0.00  0.00    -0.253 F 
ATOM     29  H12 0DN d   1       9.545   1.214  22.971  0.00  0.00     0.086 H 
ATOM     30  H13 0DN d   1       9.530  -0.049  21.694  0.00  0.00     0.086 H 
ENDBRANCH   5  27
TORSDOF 4
