REMARK  3 active torsions:
REMARK  status: ('A' for Active; 'I' for Inactive)
REMARK    1  A    between atoms: C7_1  and  C13_11 
REMARK    2  A    between atoms: N2_2  and  C15_14 
REMARK    3  A    between atoms: C5_23  and  C9_5 
ROOT
ATOM      1  C7  0CK d   1      -6.056  -6.812  -9.961  0.00  0.00     0.095 A 
ATOM      2  N2  0CK d   1      -4.791  -7.124  -9.464  0.00  0.00    -0.333 N 
ATOM      3  C8  0CK d   1      -5.041  -7.929  -8.380  0.00  0.00     0.067 A 
ATOM      4  N3  0CK d   1      -6.336  -8.212  -8.091  0.00  0.00    -0.241 NA
ATOM      5  C9  0CK d   1      -7.040  -7.544  -9.066  0.00  0.00     0.097 A 
ATOM      6  H   0CK d   1      -4.228  -8.327  -7.773  0.00  0.00     0.143 H 
ENDROOT
BRANCH   2   7
ATOM      7  C15 0CK d   1      -3.448  -6.830  -9.955  0.00  0.00     0.018 C 
ATOM      8  C14 0CK d   1      -2.330  -6.535  -8.956  0.00  0.00    -0.046 C 
ATOM      9  C19 0CK d   1      -1.058  -5.999  -9.596  0.00  0.00    -0.063 C 
ATOM     10  H   0CK d   1      -2.076  -7.475  -8.467  0.00  0.00     0.036 H 
ATOM     11  H   0CK d   1      -2.698  -5.768  -8.274  0.00  0.00     0.036 H 
ATOM     12  C18 0CK d   1      -0.536  -6.939 -10.684  0.00  0.00    -0.065 C 
ATOM     13  H   0CK d   1      -0.295  -5.909  -8.823  0.00  0.00     0.033 H 
ATOM     14  H   0CK d   1      -1.282  -5.035 -10.052  0.00  0.00     0.033 H 
ATOM     15  C17 0CK d   1      -1.633  -7.274 -11.720  0.00  0.00    -0.063 C 
ATOM     16  H   0CK d   1       0.287  -6.445 -11.201  0.00  0.00     0.033 H 
ATOM     17  H   0CK d   1      -0.213  -7.867 -10.212  0.00  0.00     0.033 H 
ATOM     18  C16 0CK d   1      -2.937  -7.746 -11.069  0.00  0.00    -0.046 C 
ATOM     19  H   0CK d   1      -1.850  -6.366 -12.283  0.00  0.00     0.033 H 
ATOM     20  H   0CK d   1      -1.262  -8.082 -12.351  0.00  0.00     0.033 H 
ATOM     21  H   0CK d   1      -3.699  -7.761 -11.848  0.00  0.00     0.036 H 
ATOM     22  H   0CK d   1      -2.739  -8.719 -10.620  0.00  0.00     0.036 H 
ATOM     23  H   0CK d   1      -3.683  -5.853 -10.377  0.00  0.00     0.073 H 
ENDBRANCH   2   7
BRANCH   1  24
ATOM     24  C13 0CK d   1      -6.321  -5.872 -11.148  0.00  0.00     0.106 A 
ATOM     25  C10 0CK d   1      -7.541  -5.078 -11.261  0.00  0.00    -0.035 A 
ATOM     26  C11 0CK d   1      -7.729  -4.202 -12.368  0.00  0.00     0.023 A 
ATOM     27  H   0CK d   1      -8.312  -5.156 -10.494  0.00  0.00     0.089 H 
ATOM     28  N4  0CK d   1      -6.750  -4.097 -13.350  0.00  0.00    -0.075 NA
ATOM     29  H   0CK d   1      -8.643  -3.612 -12.446  0.00  0.00     0.115 H 
ATOM     30  C12 0CK d   1      -5.583  -4.857 -13.239  0.00  0.00     0.720 A 
ATOM     31  N5  0CK d   1      -5.346  -5.724 -12.190  0.00  0.00    -0.061 NA
ATOM     32  N1  0CK d   1      -4.628  -4.740 -14.198  0.00  0.00    -0.231 N 
ATOM     33  H   0CK d   1      -3.768  -5.284 -14.130  0.00  0.00     0.174 HD
ATOM     34  H   0CK d   1      -4.771  -4.109 -14.986  0.00  0.00     0.174 HD
ENDBRANCH   1  24
BRANCH   5  35
ATOM     35  C5  0CK d   1      -8.550  -7.666  -9.174  0.00  0.00    -0.005 A 
ATOM     36  C4  0CK d   1      -9.440  -7.495  -8.020  0.00  0.00    -0.068 A 
ATOM     37  C3  0CK d   1     -10.893  -7.646  -8.193  0.00  0.00    -0.045 A 
ATOM     38  H   0CK d   1      -9.027  -7.257  -7.040  0.00  0.00     0.085 H 
ATOM     39  C2  0CK d   1     -11.437  -7.964  -9.521  0.00  0.00     0.116 A 
ATOM     40  H   0CK d   1     -11.562  -7.523  -7.341  0.00  0.00     0.088 H 
ATOM     41  C1  0CK d   1     -10.581  -8.144 -10.686  0.00  0.00    -0.045 A 
ATOM     42  F1  0CK d   1     -12.791  -8.078  -9.698  0.00  0.00    -0.206 F 
ATOM     43  C6  0CK d   1      -9.140  -7.990 -10.491  0.00  0.00    -0.068 A 
ATOM     44  H   0CK d   1     -10.998  -8.384 -11.664  0.00  0.00     0.088 H 
ATOM     45  H   0CK d   1      -8.477  -8.119 -11.347  0.00  0.00     0.085 H 
ENDBRANCH   5  35
TORSDOF 3
