REMARK  4 active torsions:
REMARK  status: ('A' for Active; 'I' for Inactive)
REMARK    1  A    between atoms: C6_3  and  C7_10 
REMARK    2  A    between atoms: C14_16  and  C5_4 
REMARK    3  A    between atoms: C10_8  and  C12_21 
REMARK    4  A    between atoms: C9_12  and  C13_20 
ROOT
ATOM      1  N2  T4G d   1      50.356  24.015  31.108  0.00  0.00     0.044 NA
ATOM      2  N1  T4G d   1      49.210  23.574  31.703  0.00  0.00    -0.131 NA
ATOM      3  C6  T4G d   1      47.919  23.679  31.147  0.00  0.00     0.120 A 
ATOM      4  C5  T4G d   1      47.766  24.287  29.849  0.00  0.00     0.117 A 
ATOM      5  N4  T4G d   1      48.963  24.727  29.270  0.00  0.00    -0.059 NA
ATOM      6  C3  T4G d   1      50.199  24.595  29.874  0.00  0.00     0.739 A 
ATOM      7  N3  T4G d   1      51.287  25.042  29.241  0.00  0.00    -0.230 N 
ATOM      8  H   T4G d   1      51.200  25.475  28.322  0.00  0.00     0.174 HD
ATOM      9  H   T4G d   1      52.205  24.950  29.677  0.00  0.00     0.174 HD
ENDROOT
BRANCH   3  10
ATOM     10  C7  T4G d   1      46.833  23.112  31.959  0.00  0.00     0.001 A 
ATOM     11  C11 T4G d   1      46.996  21.821  32.503  0.00  0.00    -0.047 A 
ATOM     12  C10 T4G d   1      45.957  21.271  33.272  0.00  0.00     0.032 A 
ATOM     13  H   T4G d   1      47.914  21.259  32.330  0.00  0.00     0.087 H 
ATOM     14  N5  T4G d   1      44.795  21.918  33.516  0.00  0.00    -0.259 NA
ATOM     15  C9  T4G d   1      44.639  23.151  32.989  0.00  0.00     0.032 A 
ATOM     16  C8  T4G d   1      45.621  23.791  32.204  0.00  0.00    -0.047 A 
ATOM     17  H   T4G d   1      45.447  24.787  31.796  0.00  0.00     0.087 H 
BRANCH  12  18
ATOM     18  C12 T4G d   1      46.121  19.890  33.868  0.00  0.00    -0.035 C 
ATOM     19  H   T4G d   1      46.046  19.953  34.954  0.00  0.00     0.035 H 
ATOM     20  H   T4G d   1      45.338  19.235  33.486  0.00  0.00     0.035 H 
ATOM     21  H   T4G d   1      47.097  19.490  33.593  0.00  0.00     0.035 H 
ENDBRANCH  12  18
BRANCH  15  22
ATOM     22  C13 T4G d   1      43.327  23.834  33.285  0.00  0.00    -0.035 C 
ATOM     23  H   T4G d   1      43.516  24.766  33.818  0.00  0.00     0.035 H 
ATOM     24  H   T4G d   1      42.811  24.047  32.349  0.00  0.00     0.035 H 
ATOM     25  H   T4G d   1      42.710  23.181  33.901  0.00  0.00     0.035 H 
ENDBRANCH  15  22
ENDBRANCH   3  10
BRANCH   4  26
ATOM     26  C14 T4G d   1      46.483  24.479  29.120  0.00  0.00    -0.004 A 
ATOM     27  C19 T4G d   1      45.520  23.453  28.961  0.00  0.00    -0.071 A 
ATOM     28  C18 T4G d   1      44.323  23.688  28.261  0.00  0.00    -0.082 A 
ATOM     29  H   T4G d   1      45.709  22.468  29.387  0.00  0.00     0.084 H 
ATOM     30  C17 T4G d   1      44.052  24.948  27.699  0.00  0.00    -0.083 A 
ATOM     31  H   T4G d   1      43.596  22.883  28.153  0.00  0.00     0.083 H 
ATOM     32  C16 T4G d   1      44.995  25.983  27.844  0.00  0.00    -0.082 A 
ATOM     33  H   T4G d   1      43.122  25.121  27.157  0.00  0.00     0.083 H 
ATOM     34  C15 T4G d   1      46.194  25.744  28.546  0.00  0.00    -0.071 A 
ATOM     35  H   T4G d   1      44.799  26.966  27.415  0.00  0.00     0.083 H 
ATOM     36  H   T4G d   1      46.918  26.552  28.651  0.00  0.00     0.084 H 
ENDBRANCH   4  26
TORSDOF 4
