REMARK  4 active torsions:
REMARK  status: ('A' for Active; 'I' for Inactive)
REMARK    1  A    between atoms: C6_3  and  C7_10 
REMARK    2  A    between atoms: C13_16  and  C5_4 
REMARK    3  A    between atoms: C3_6  and  N3_19 
REMARK    4  A    between atoms: C10_7  and  O1_21 
ROOT
ATOM      1  N2  T4E d   1      23.684   6.666  32.080  0.00  0.00     0.044 NA
ATOM      2  N1  T4E d   1      23.105   7.781  32.548  0.00  0.00    -0.131 NA
ATOM      3  C6  T4E d   1      23.167   8.937  31.828  0.00  0.00     0.120 A 
ATOM      4  C5  T4E d   1      23.852   8.945  30.571  0.00  0.00     0.117 A 
ATOM      5  N4  T4E d   1      24.432   7.799  30.123  0.00  0.00    -0.059 NA
ATOM      6  C3  T4E d   1      24.308   6.738  30.908  0.00  0.00     0.739 A 
ENDROOT
BRANCH   3   7
ATOM      7  C7  T4E d   1      22.480  10.083  32.466  0.00  0.00    -0.001 A 
ATOM      8  C12 T4E d   1      21.110   9.987  32.803  0.00  0.00    -0.068 A 
ATOM      9  C11 T4E d   1      20.430  11.061  33.407  0.00  0.00    -0.048 A 
ATOM     10  H   T4E d   1      20.570   9.064  32.591  0.00  0.00     0.085 H 
ATOM     11  C10 T4E d   1      21.114  12.259  33.687  0.00  0.00     0.087 A 
ATOM     12  H   T4E d   1      19.374  10.965  33.658  0.00  0.00     0.087 H 
ATOM     13  C9  T4E d   1      22.484  12.376  33.356  0.00  0.00     0.068 A 
ATOM     14  C8  T4E d   1      23.155  11.292  32.750  0.00  0.00    -0.047 A 
ATOM     15 CL1  T4E d   1      23.352  13.836  33.683  0.00  0.00    -0.081 Cl
ATOM     16  H   T4E d   1      24.211  11.389  32.497  0.00  0.00     0.087 H 
BRANCH  11  17
ATOM     17  O1  T4E d   1      20.443  13.293  34.273  0.00  0.00    -0.359 OA
ATOM     18  H   T4E d   1      20.859  13.509  35.111  0.00  0.00     0.217 HD
ENDBRANCH  11  17
ENDBRANCH   3   7
BRANCH   4  19
ATOM     19  C13 T4E d   1      24.011  10.116  29.668  0.00  0.00    -0.004 A 
ATOM     20  C18 T4E d   1      23.004  11.102  29.521  0.00  0.00    -0.071 A 
ATOM     21  C17 T4E d   1      23.174  12.204  28.663  0.00  0.00    -0.082 A 
ATOM     22  H   T4E d   1      22.077  11.005  30.085  0.00  0.00     0.084 H 
ATOM     23  C16 T4E d   1      24.362  12.344  27.927  0.00  0.00    -0.083 A 
ATOM     24  H   T4E d   1      22.384  12.949  28.570  0.00  0.00     0.083 H 
ATOM     25  C15 T4E d   1      25.380  11.381  28.053  0.00  0.00    -0.082 A 
ATOM     26  H   T4E d   1      24.495  13.196  27.260  0.00  0.00     0.083 H 
ATOM     27  C14 T4E d   1      25.200  10.281  28.914  0.00  0.00    -0.071 A 
ATOM     28  H   T4E d   1      26.305  11.486  27.486  0.00  0.00     0.083 H 
ATOM     29  H   T4E d   1      25.994   9.539  29.003  0.00  0.00     0.084 H 
ENDBRANCH   4  19
BRANCH   6  30
ATOM     30  N3  T4E d   1      24.883   5.599  30.462  0.00  0.00    -0.230 N 
ATOM     31  H   T4E d   1      25.376   5.592  29.569  0.00  0.00     0.174 HD
ATOM     32  H   T4E d   1      24.824   4.746  31.018  0.00  0.00     0.174 HD
ENDBRANCH   6  30
TORSDOF 4
