REMARK WARNING: 32 MAX_TORS EXCEEDED!!!
REMARK  37 active torsions:
REMARK  status: ('A' for Active; 'I' for Inactive)
REMARK    1  A    between atoms: N_1  and  CA_2 
REMARK    2  A    between atoms: CA_2  and  C_3 
REMARK    3  A    between atoms: CA_2  and  CB_5 
REMARK       I    between atoms: C_3  and  N_7 
REMARK    4  A    between atoms: CB_5  and  OG_6 
REMARK    5  A    between atoms: CA_8  and  C_9 
REMARK       I    between atoms: C_9  and  N_14 
REMARK    6  A    between atoms: N_14  and  CA_15 
REMARK    7  A    between atoms: CA_15  and  CB_16 
REMARK    8  A    between atoms: CA_15  and  C_18 
REMARK    9  A    between atoms: CB_16  and  OG_17 
REMARK   10  A    between atoms: OG_17  and  P_20 
REMARK       I    between atoms: C_18  and  N_24 
REMARK   11  A    between atoms: N_24  and  CA_25 
REMARK   12  A    between atoms: CA_25  and  C_26 
REMARK   13  A    between atoms: CA_25  and  CB_28 
REMARK       I    between atoms: C_26  and  N_32 
REMARK   14  A    between atoms: CB_28  and  CG_29 
REMARK   15  A    between atoms: CG_29  and  CD1_30 
REMARK   16  A    between atoms: CG_29  and  CD2_31 
REMARK   17  A    between atoms: CA_33  and  C_34 
REMARK       I    between atoms: C_34  and  N_39 
REMARK   18  A    between atoms: N_39  and  CA_40 
REMARK   19  A    between atoms: CA_40  and  C_41 
REMARK   20  A    between atoms: CA_40  and  CB_43 
REMARK       I    between atoms: C_41  and  N_47 
REMARK   21  A    between atoms: CB_43  and  CG_44 
REMARK       I    between atoms: CG_44  and  ND2_46 
REMARK   22  A    between atoms: N_47  and  CA_48 
REMARK   23  A    between atoms: CA_48  and  C_49 
REMARK   24  A    between atoms: CA_48  and  CB_51 
REMARK       I    between atoms: C_49  and  N_55 
REMARK   25  A    between atoms: CB_51  and  CG1_52 
REMARK   26  A    between atoms: CB_51  and  CG2_53 
REMARK   27  A    between atoms: CG1_52  and  CD1_54 
REMARK   28  A    between atoms: N_55  and  CA_56 
REMARK   29  A    between atoms: CA_56  and  C_57 
REMARK   30  A    between atoms: CA_56  and  CB_59 
REMARK       I    between atoms: C_57  and  N_62 
REMARK   31  A    between atoms: CB_59  and  OG1_60 
REMARK   32  A    between atoms: CB_59  and  CG2_61 
REMARK   33  A    between atoms: N_62  and  CA_63 
REMARK   34  A    between atoms: CA_63  and  C_64 
REMARK   35  A    between atoms: CA_63  and  CB_66 
REMARK   36  A    between atoms: CB_66  and  CG_67 
REMARK   37  A    between atoms: CG_67  and  CD2_68 
ROOT
ATOM      1  N   PRO d   1       5.743  12.173  15.638  0.00  0.00    -0.337 N 
ATOM      2  CA  PRO d   1       4.555  12.284  14.812  0.00  0.00     0.091 C 
ATOM      3  CB  PRO d   1       3.880  10.925  14.992  0.00  0.00    -0.036 C 
ATOM      4  CG  PRO d   1       4.289  10.490  16.356  0.00  0.00    -0.048 C 
ATOM      5  CD  PRO d   1       5.685  11.014  16.547  0.00  0.00    -0.001 C 
ATOM      6  H30 PRO d   1       4.804  12.479  13.758  0.00  0.00     0.087 H 
ATOM      7  H31 PRO d   1       4.232  10.211  14.233  0.00  0.00     0.036 H 
ATOM      8  H32 PRO d   1       2.786  11.021  14.925  0.00  0.00     0.036 H 
ATOM      9  H33 PRO d   1       4.278   9.392  16.428  0.00  0.00     0.035 H 
ATOM     10  H34 PRO d   1       3.613  10.914  17.113  0.00  0.00     0.035 H 
ATOM     11  H35 PRO d   1       5.850  11.323  17.590  0.00  0.00     0.064 H 
ATOM     12  H36 PRO d   1       6.431  10.256  16.267  0.00  0.00     0.064 H 
ATOM     13  C   LEU d   1       6.546  13.180  15.965  0.00  0.00     0.243 C 
ATOM     14  O   LEU d   1       6.599  14.293  15.460  0.00  0.00    -0.271 OA
ENDROOT
BRANCH   2  15
ATOM     15  C   PRO d   1       3.673  13.380  15.359  0.00  0.00     0.241 C 
ATOM     16  O   PRO d   1       3.455  13.553  16.558  0.00  0.00    -0.271 OA
ATOM     17  N   ASN d   1       3.172  14.123  14.400  0.00  0.00    -0.346 N 
ATOM     18  H37 ASN d   1       3.369  13.837  13.462  0.00  0.00     0.163 HD
BRANCH  17  19
ATOM     19  CA  ASN d   1       2.361  15.318  14.558  0.00  0.00     0.097 C 
ATOM     20  H38 ASN d   1       2.897  16.057  15.171  0.00  0.00     0.088 H 
BRANCH  19  21
ATOM     21  C   ASN d   1       1.057  14.923  15.272  0.00  0.00     0.241 C 
ATOM     22  O   ASN d   1       0.562  13.810  15.106  0.00  0.00    -0.271 OA
ATOM     23  N   ILE d   1       0.479  15.742  16.138  0.00  0.00    -0.346 N 
ATOM     24  H43 ILE d   1       0.801  16.682  16.251  0.00  0.00     0.163 HD
BRANCH  23  25
ATOM     25  CA  ILE d   1      -0.659  15.225  16.934  0.00  0.00     0.092 C 
ATOM     26  H44 ILE d   1      -0.287  14.334  17.460  0.00  0.00     0.088 H 
BRANCH  25  27
ATOM     27  C   ILE d   1      -1.901  14.779  16.126  0.00  0.00     0.241 C 
ATOM     28  O   ILE d   1      -2.287  15.476  15.187  0.00  0.00    -0.271 OA
ATOM     29  N   THR d   1      -2.544  13.651  16.478  0.00  0.00    -0.344 N 
ATOM     30  H54 THR d   1      -2.156  13.033  17.162  0.00  0.00     0.163 HD
BRANCH  29  31
ATOM     31  CA  THR d   1      -3.825  13.350  15.837  0.00  0.00     0.113 C 
ATOM     32  H55 THR d   1      -3.784  13.748  14.812  0.00  0.00     0.091 H 
BRANCH  31  33
ATOM     33  C   THR d   1      -4.980  14.079  16.566  0.00  0.00     0.243 C 
ATOM     34  O   THR d   1      -5.113  14.004  17.798  0.00  0.00    -0.271 OA
ATOM     35  N   LEU d   1      -5.755  14.854  15.806  0.00  0.00    -0.345 N 
ATOM     36  H61 LEU d   1      -5.608  14.866  14.817  0.00  0.00     0.163 HD
BRANCH  35  37
ATOM     37  CA  LEU d   1      -6.821  15.693  16.379  0.00  0.00     0.096 C 
ATOM     38  H62 LEU d   1      -6.491  15.996  17.384  0.00  0.00     0.089 H 
BRANCH  37  39
ATOM     39  C   LEU d   1      -8.156  14.944  16.546  0.00  0.00     0.196 C 
ATOM     40  O   LEU d   1      -8.327  13.842  16.022  0.00  0.00    -0.646 OA
ATOM     41  OXT LEU d   1      -9.073  15.436  17.206  0.00  0.00    -0.646 OA
ENDBRANCH  37  39
BRANCH  37  42
ATOM     42  CB  LEU d   1      -7.013  16.972  15.547  0.00  0.00    -0.037 C 
ATOM     43  H63 LEU d   1      -7.896  17.499  15.938  0.00  0.00     0.036 H 
ATOM     44  H64 LEU d   1      -7.197  16.672  14.505  0.00  0.00     0.036 H 
BRANCH  42  45
ATOM     45  CG  LEU d   1      -5.836  17.958  15.552  0.00  0.00    -0.066 C 
ATOM     46  H65 LEU d   1      -6.011  18.724  14.783  0.00  0.00     0.032 H 
ATOM     47  H66 LEU d   1      -4.912  17.409  15.319  0.00  0.00     0.032 H 
BRANCH  45  48
ATOM     48  CD2 LEU d   1      -5.670  18.657  16.927  0.00  0.00    -0.076 C 
ATOM     49  H67 LEU d   1      -4.818  19.352  16.885  0.00  0.00     0.027 H 
ATOM     50  H68 LEU d   1      -5.487  17.900  17.704  0.00  0.00     0.027 H 
ATOM     51  H69 LEU d   1      -6.587  19.215  17.168  0.00  0.00     0.027 H 
ENDBRANCH  45  48
ENDBRANCH  42  45
ENDBRANCH  37  42
ENDBRANCH  35  37
ENDBRANCH  31  33
BRANCH  31  52
ATOM     52  CB  THR d   1      -4.056  11.809  15.722  0.00  0.00     0.060 C 
ATOM     53  H56 THR d   1      -5.129  11.610  15.584  0.00  0.00     0.086 H 
BRANCH  52  54
ATOM     54  OG1 THR d   1      -3.593  11.178  16.921  0.00  0.00    -0.393 OA
ATOM     55  H57 THR d   1      -3.731  10.240  16.858  0.00  0.00     0.210 HD
ENDBRANCH  52  54
BRANCH  52  56
ATOM     56  CG2 THR d   1      -3.252  11.211  14.512  0.00  0.00    -0.050 C 
ATOM     57  H58 THR d   1      -3.431  10.127  14.453  0.00  0.00     0.031 H 
ATOM     58  H59 THR d   1      -2.178  11.398  14.657  0.00  0.00     0.031 H 
ATOM     59  H60 THR d   1      -3.584  11.689  13.579  0.00  0.00     0.031 H 
ENDBRANCH  52  56
ENDBRANCH  31  52
ENDBRANCH  29  31
ENDBRANCH  25  27
BRANCH  25  60
ATOM     60  CB  ILE d   1      -1.104  16.245  18.001  0.00  0.00    -0.030 C 
ATOM     61  H45 ILE d   1      -1.159  17.238  17.531  0.00  0.00     0.043 H 
BRANCH  60  62
ATOM     62  CG1 ILE d   1      -0.083  16.305  19.139  0.00  0.00    -0.063 C 
ATOM     63  H46 ILE d   1       0.827  15.777  18.817  0.00  0.00     0.033 H 
ATOM     64  H47 ILE d   1      -0.511  15.797  20.016  0.00  0.00     0.033 H 
BRANCH  62  65
ATOM     65  CD1 ILE d   1       0.299  17.713  19.542  0.00  0.00    -0.076 C 
ATOM     66  H51 ILE d   1       1.032  17.674  20.361  0.00  0.00     0.027 H 
ATOM     67  H52 ILE d   1      -0.598  18.254  19.878  0.00  0.00     0.027 H 
ATOM     68  H53 ILE d   1       0.740  18.234  18.680  0.00  0.00     0.027 H 
ENDBRANCH  62  65
ENDBRANCH  60  62
BRANCH  60  69
ATOM     69  CG2 ILE d   1      -2.484  15.891  18.534  0.00  0.00    -0.071 C 
ATOM     70  H48 ILE d   1      -3.200  15.854  17.700  0.00  0.00     0.028 H 
ATOM     71  H49 ILE d   1      -2.804  16.654  19.259  0.00  0.00     0.028 H 
ATOM     72  H50 ILE d   1      -2.445  14.909  19.029  0.00  0.00     0.028 H 
ENDBRANCH  60  69
ENDBRANCH  25  60
ENDBRANCH  23  25
ENDBRANCH  19  21
BRANCH  19  73
ATOM     73  CB  ASN d   1       2.109  15.910  13.163  0.00  0.00     0.036 C 
ATOM     74  H39 ASN d   1       1.409  15.253  12.626  0.00  0.00     0.051 H 
ATOM     75  H40 ASN d   1       3.066  15.947  12.621  0.00  0.00     0.051 H 
BRANCH  73  76
ATOM     76  CG  ASN d   1       1.526  17.302  13.202  0.00  0.00     0.217 C 
ATOM     77  OD1 ASN d   1       1.799  18.072  14.125  0.00  0.00    -0.274 OA
ATOM     78  ND2 ASN d   1       0.779  17.657  12.185  0.00  0.00    -0.370 N 
ATOM     79  H41 ASN d   1       0.368  18.568  12.161  0.00  0.00     0.159 HD
ATOM     80  H42 ASN d   1       0.620  17.017  11.434  0.00  0.00     0.159 HD
ENDBRANCH  73  76
ENDBRANCH  19  73
ENDBRANCH  17  19
ENDBRANCH   2  15
BRANCH  13  81
ATOM     81  CA  LEU d   1       7.479  12.815  17.110  0.00  0.00     0.090 C 
ATOM     82  H20 LEU d   1       7.390  11.738  17.312  0.00  0.00     0.087 H 
BRANCH  81  83
ATOM     83  N   LEU d   1       8.877  13.117  16.772  0.00  0.00    -0.346 N 
ATOM     84  C   SEP d   1       9.498  12.479  15.795  0.00  0.00     0.243 C 
ATOM     85  O   SEP d   1       8.923  11.671  15.025  0.00  0.00    -0.271 OA
ATOM     86  H19 LEU d   1       9.367  13.818  17.290  0.00  0.00     0.163 HD
BRANCH  84  87
ATOM     87  CA  SEP d   1      10.981  12.762  15.575  0.00  0.00     0.110 C 
ATOM     88  H16 SEP d   1      11.532  12.491  16.488  0.00  0.00     0.090 H 
BRANCH  87  89
ATOM     89  N   SEP d   1      11.535  11.943  14.442  0.00  0.00    -0.344 N 
ATOM     90  C   PRO d   1      12.350  10.926  14.763  0.00  0.00     0.241 C 
ATOM     91  O   PRO d   1      12.607  10.627  15.930  0.00  0.00    -0.271 OA
ATOM     92  H15 SEP d   1      11.306  12.147  13.490  0.00  0.00     0.163 HD
BRANCH  90  93
ATOM     93  CA  PRO d   1      13.013  10.088  13.661  0.00  0.00     0.091 C 
ATOM     94  N   PRO d   1      12.959  10.829  12.414  0.00  0.00    -0.337 N 
ATOM     95  C   SER d   1      11.853  10.836  11.695  0.00  0.00     0.253 C 
ATOM     96  CD  PRO d   1      14.270  10.889  11.743  0.00  0.00    -0.001 C 
ATOM     97  O   SER d   1      10.919  10.014  11.859  0.00  0.00    -0.271 OA
ATOM     98  CG  PRO d   1      15.124   9.971  12.570  0.00  0.00    -0.048 C 
ATOM     99  H13 PRO d   1      14.670  11.914  11.751  0.00  0.00     0.064 H 
ATOM    100  H14 PRO d   1      14.198  10.532  10.705  0.00  0.00     0.064 H 
ATOM    101  CB  PRO d   1      14.514   9.961  13.922  0.00  0.00    -0.036 C 
ATOM    102  H11 PRO d   1      15.123   8.958  12.142  0.00  0.00     0.035 H 
ATOM    103  H12 PRO d   1      16.156  10.348  12.618  0.00  0.00     0.035 H 
ATOM    104  H9  PRO d   1      14.740   9.020  14.444  0.00  0.00     0.036 H 
ATOM    105  H10 PRO d   1      14.879  10.809  14.520  0.00  0.00     0.036 H 
ATOM    106  H8  PRO d   1      12.529   9.104  13.579  0.00  0.00     0.087 H 
BRANCH  95 107
ATOM    107  CA  SER d   1      11.669  12.097  10.793  0.00  0.00     0.196 C 
ATOM    108  H4  SER d   1      11.426  11.736   9.783  0.00  0.00     0.102 H 
BRANCH 107 109
ATOM    109  N   SER d   1      10.509  12.885  11.285  0.00  0.00    -0.064 N 
ATOM    110  H1  SER d   1      10.387  13.700  10.705  0.00  0.00     0.275 HD
ATOM    111  H2  SER d   1      10.677  13.172  12.237  0.00  0.00     0.275 HD
ATOM    112  H3  SER d   1       9.677  12.318  11.247  0.00  0.00     0.275 HD
ENDBRANCH 107 109
BRANCH 107 113
ATOM    113  CB  SER d   1      12.935  13.001  10.652  0.00  0.00     0.051 C 
ATOM    114  H5  SER d   1      12.931  13.441   9.644  0.00  0.00     0.077 H 
ATOM    115  H6  SER d   1      13.824  12.365  10.771  0.00  0.00     0.077 H 
BRANCH 113 116
ATOM    116  OG  SER d   1      13.022  14.079  11.612  0.00  0.00    -0.398 OA
ATOM    117  H7  SER d   1      12.267  14.648  11.517  0.00  0.00     0.209 HD
ENDBRANCH 113 116
ENDBRANCH 107 113
ENDBRANCH  95 107
ENDBRANCH  90  93
ENDBRANCH  87  89
BRANCH  87 118
ATOM    118  CB  SEP d   1      11.138  14.271  15.338  0.00  0.00     0.059 C 
ATOM    119  H17 SEP d   1      12.203  14.509  15.197  0.00  0.00     0.079 H 
ATOM    120  H18 SEP d   1      10.753  14.819  16.211  0.00  0.00     0.079 H 
BRANCH 118 121
ATOM    121  OG  SEP d   1      10.384  14.675  14.136  0.00  0.00    -0.280 OA
BRANCH 121 122
ATOM    122  P   SEP d   1      10.486  16.197  13.641  0.00  0.00     0.422 P 
ATOM    123  O1P SEP d   1      10.170  17.132  14.744  0.00  0.00    -0.617 OA
ATOM    124  O2P SEP d   1      11.898  16.346  13.108  0.00  0.00    -0.617 OA
ATOM    125  O3P SEP d   1       9.474  16.359  12.467  0.00  0.00    -0.617 OA
ENDBRANCH 121 122
ENDBRANCH 118 121
ENDBRANCH  87 118
ENDBRANCH  84  87
ENDBRANCH  81  83
BRANCH  81 126
ATOM    126  CB  LEU d   1       7.066  13.595  18.358  0.00  0.00    -0.035 C 
ATOM    127  H21 LEU d   1       7.036  14.659  18.082  0.00  0.00     0.037 H 
ATOM    128  H22 LEU d   1       7.847  13.434  19.116  0.00  0.00     0.037 H 
BRANCH 126 129
ATOM    129  CG  LEU d   1       5.726  13.260  19.012  0.00  0.00    -0.059 C 
ATOM    130  H23 LEU d   1       4.944  13.280  18.238  0.00  0.00     0.038 H 
BRANCH 129 131
ATOM    131  CD1 LEU d   1       5.693  11.897  19.687  0.00  0.00    -0.073 C 
ATOM    132  H24 LEU d   1       4.700  11.732  20.131  0.00  0.00     0.028 H 
ATOM    133  H25 LEU d   1       6.458  11.860  20.476  0.00  0.00     0.028 H 
ATOM    134  H26 LEU d   1       5.896  11.114  18.942  0.00  0.00     0.028 H 
ENDBRANCH 129 131
BRANCH 129 135
ATOM    135  CD2 LEU d   1       5.442  14.333  20.047  0.00  0.00    -0.073 C 
ATOM    136  H27 LEU d   1       5.464  15.322  19.566  0.00  0.00     0.028 H 
ATOM    137  H28 LEU d   1       6.207  14.292  20.837  0.00  0.00     0.028 H 
ATOM    138  H29 LEU d   1       4.449  14.163  20.489  0.00  0.00     0.028 H 
ENDBRANCH 129 135
ENDBRANCH 126 129
ENDBRANCH  81 126
ENDBRANCH  13  81
TORSDOF 37
