REMARK  4 active torsions:
REMARK  status: ('A' for Active; 'I' for Inactive)
REMARK    1  A    between atoms: C7_1  and  C13_11 
REMARK    2  A    between atoms: N2_2  and  C15_14 
REMARK    3  A    between atoms: C5_23  and  C9_5 
REMARK    4  A    between atoms: C12_9  and  N1_12 
ROOT
ATOM      1  C7  0CK d   1       4.235   2.751  18.761  0.00  0.00     0.095 A 
ATOM      2  N2  0CK d   1       3.665   3.849  19.353  0.00  0.00    -0.333 N 
ATOM      3  C8  0CK d   1       4.466   4.152  20.412  0.00  0.00     0.067 A 
ATOM      4  N3  0CK d   1       5.541   3.378  20.608  0.00  0.00    -0.241 NA
ATOM      5  C9  0CK d   1       5.478   2.473  19.595  0.00  0.00     0.097 A 
ATOM      6  H1  0CK d   1       4.242   4.989  21.072  0.00  0.00     0.143 H 
ENDROOT
BRANCH   2   7
ATOM      7  C15 0CK d   1       2.488   4.585  18.970  0.00  0.00     0.018 C 
ATOM      8  C14 0CK d   1       1.682   5.137  20.141  0.00  0.00    -0.046 C 
ATOM      9  C19 0CK d   1       0.498   5.986  19.731  0.00  0.00    -0.063 C 
ATOM     10  H6  0CK d   1       2.350   5.753  20.761  0.00  0.00     0.036 H 
ATOM     11  H7  0CK d   1       1.310   4.289  20.734  0.00  0.00     0.036 H 
ATOM     12  C18 0CK d   1       0.864   7.054  18.680  0.00  0.00    -0.065 C 
ATOM     13  H15 0CK d   1       0.103   6.492  20.624  0.00  0.00     0.033 H 
ATOM     14  H16 0CK d   1      -0.277   5.329  19.309  0.00  0.00     0.033 H 
ATOM     15  C17 0CK d   1       1.704   6.501  17.504  0.00  0.00    -0.063 C 
ATOM     16  H13 0CK d   1      -0.067   7.476  18.274  0.00  0.00     0.033 H 
ATOM     17  H14 0CK d   1       1.441   7.848  19.177  0.00  0.00     0.033 H 
ATOM     18  C16 0CK d   1       2.885   5.679  17.982  0.00  0.00    -0.046 C 
ATOM     19  H11 0CK d   1       1.061   5.866  16.877  0.00  0.00     0.033 H 
ATOM     20  H12 0CK d   1       2.079   7.346  16.908  0.00  0.00     0.033 H 
ATOM     21  H9  0CK d   1       3.361   5.208  17.109  0.00  0.00     0.036 H 
ATOM     22  H10 0CK d   1       3.604   6.351  18.473  0.00  0.00     0.036 H 
ATOM     23  H8  0CK d   1       1.827   3.884  18.440  0.00  0.00     0.073 H 
ENDBRANCH   2   7
BRANCH   1  24
ATOM     24  C13 0CK d   1       3.646   1.991  17.569  0.00  0.00     0.106 A 
ATOM     25  C10 0CK d   1       3.838   0.562  17.383  0.00  0.00    -0.035 A 
ATOM     26  C11 0CK d   1       3.222  -0.105  16.287  0.00  0.00     0.023 A 
ATOM     27  H2  0CK d   1       4.452   0.003  18.081  0.00  0.00     0.089 H 
ATOM     28  N4  0CK d   1       2.441   0.596  15.407  0.00  0.00    -0.075 NA
ATOM     29  H3  0CK d   1       3.371  -1.170  16.148  0.00  0.00     0.115 H 
ATOM     30  C12 0CK d   1       2.239   1.959  15.563  0.00  0.00     0.720 A 
ATOM     31  N5  0CK d   1       2.820   2.652  16.603  0.00  0.00    -0.061 NA
BRANCH  30  32
ATOM     32  N1  0CK d   1       1.391   2.611  14.678  0.00  0.00    -0.231 N 
ATOM     33  H4  0CK d   1       0.958   2.091  13.902  0.00  0.00     0.174 HD
ATOM     34  H5  0CK d   1       1.195   3.615  14.798  0.00  0.00     0.174 HD
ENDBRANCH  30  32
ENDBRANCH   1  24
BRANCH   5  35
ATOM     35  C5  0CK d   1       6.579   1.453  19.382  0.00  0.00    -0.005 A 
ATOM     36  C4  0CK d   1       7.079   0.584  20.427  0.00  0.00    -0.068 A 
ATOM     37  C3  0CK d   1       8.134  -0.366  20.118  0.00  0.00    -0.045 A 
ATOM     38  H19 0CK d   1       6.670   0.642  21.429  0.00  0.00     0.085 H 
ATOM     39  C2  0CK d   1       8.669  -0.420  18.743  0.00  0.00     0.116 A 
ATOM     40  H18 0CK d   1       8.523  -1.025  20.886  0.00  0.00     0.088 H 
ATOM     41  C1  0CK d   1       8.189   0.431  17.695  0.00  0.00    -0.045 A 
ATOM     42  F1  0CK d   1       9.640  -1.263  18.398  0.00  0.00    -0.206 F 
ATOM     43  C6  0CK d   1       7.141   1.371  18.019  0.00  0.00    -0.068 A 
ATOM     44  H17 0CK d   1       8.598   0.371  16.693  0.00  0.00     0.088 H 
ATOM     45  H20 0CK d   1       6.760   2.029  17.247  0.00  0.00     0.085 H 
ENDBRANCH   5  35
TORSDOF 4
