REMARK  9 active torsions:
REMARK  status: ('A' for Active; 'I' for Inactive)
REMARK    1  A    between atoms: O3_11  and  N2_7 
REMARK       I    between atoms: N2_7  and  C8_18 
REMARK    2  A    between atoms: C7_17  and  N3_10 
REMARK    3  A    between atoms: N3_10  and  C9_19 
REMARK    4  A    between atoms: C15_25  and  O3_11 
REMARK    5  A    between atoms: C16_26  and  O4_13 
REMARK    6  A    between atoms: C17_27  and  O5_15 
REMARK    7  A    between atoms: C8_18  and  C6_16 
REMARK    8  A    between atoms: C16_26  and  C15_25 
REMARK    9  A    between atoms: C16_26  and  C17_27 
ROOT
ATOM      1  C1  3V0 d   1      36.380  32.177 -12.891  0.00  0.00     0.004 A 
ATOM      2  N1  3V0 d   1      36.875  31.501 -13.935  0.00  0.00    -0.272 NA
ATOM      3  O1  3V0 d   1      32.852  31.043 -13.149  0.00  0.00    -0.302 OA
ATOM      4  C2  3V0 d   1      35.039  32.057 -12.564  0.00  0.00    -0.032 A 
ATOM      5  C3  3V0 d   1      36.123  30.707 -14.722  0.00  0.00     0.017 A 
ATOM      6  C4  3V0 d   1      34.780  30.567 -14.436  0.00  0.00     0.045 A 
ATOM      7  C5  3V0 d   1      34.243  31.244 -13.346  0.00  0.00     0.091 A 
ATOM      8  C6  3V0 d   1      32.500  30.187 -14.146  0.00  0.00     0.173 A 
ATOM      9  C7  3V0 d   1      33.685  29.885 -14.984  0.00  0.00     0.087 A 
ATOM     10  H   3V0 d   1      37.031  32.821 -12.299  0.00  0.00     0.114 H 
ATOM     11  H   3V0 d   1      34.623  32.591 -11.710  0.00  0.00     0.090 H 
ATOM     12  H   3V0 d   1      36.567  30.185 -15.569  0.00  0.00     0.116 H 
ENDROOT
BRANCH   8  13
ATOM     13  C8  3V0 d   1      31.112  29.724 -14.344  0.00  0.00     0.301 C 
ATOM     14  N2  3V0 d   1      30.232  29.879 -13.373  0.00  0.00    -0.229 N 
ATOM     15  H   3V0 d   1      30.508  30.294 -12.483  0.00  0.00     0.198 HD
ATOM     16  O2  3V0 d   1      30.806  29.254 -15.427  0.00  0.00    -0.263 OA
BRANCH  14  17
ATOM     17  O3  3V0 d   1      28.949  29.474 -13.582  0.00  0.00    -0.275 OA
BRANCH  17  18
ATOM     18  C15 3V0 d   1      27.890  30.423 -13.405  0.00  0.00     0.071 C 
ATOM     19  H   3V0 d   1      28.251  31.400 -13.726  0.00  0.00     0.082 H 
ATOM     20  H   3V0 d   1      27.602  30.420 -12.354  0.00  0.00     0.082 H 
BRANCH  18  21
ATOM     21  C16 3V0 d   1      26.657  30.069 -14.241  0.00  0.00     0.078 C 
ATOM     22  H   3V0 d   1      26.340  29.054 -14.003  0.00  0.00     0.089 H 
BRANCH  21  23
ATOM     23  O4  3V0 d   1      26.918  30.069 -15.672  0.00  0.00    -0.391 OA
ATOM     24  H   3V0 d   1      27.212  30.942 -15.942  0.00  0.00     0.210 HD
ENDBRANCH  21  23
BRANCH  21  25
ATOM     25  C17 3V0 d   1      25.589  31.100 -13.898  0.00  0.00     0.043 C 
ATOM     26  H   3V0 d   1      24.611  30.621 -13.848  0.00  0.00     0.078 H 
ATOM     27  H   3V0 d   1      25.802  31.549 -12.928  0.00  0.00     0.078 H 
BRANCH  25  28
ATOM     28  O5  3V0 d   1      25.590  32.107 -14.915  0.00  0.00    -0.398 OA
ATOM     29  H   3V0 d   1      25.396  31.703 -15.764  0.00  0.00     0.209 HD
ENDBRANCH  25  28
ENDBRANCH  21  25
ENDBRANCH  18  21
ENDBRANCH  17  18
ENDBRANCH  14  17
ENDBRANCH   8  13
BRANCH   9  30
ATOM     30  N3  3V0 d   1      33.525  29.001 -16.033  0.00  0.00    -0.351 N 
ATOM     31  H   3V0 d   1      32.779  29.235 -16.688  0.00  0.00     0.166 HD
BRANCH  30  32
ATOM     32  C9  3V0 d   1      34.222  27.852 -16.327  0.00  0.00     0.071 A 
ATOM     33  C10 3V0 d   1      35.351  27.433 -15.619  0.00  0.00    -0.053 A 
ATOM     34  C11 3V0 d   1      36.034  26.292 -15.980  0.00  0.00    -0.065 A 
ATOM     35  H   3V0 d   1      35.697  28.018 -14.767  0.00  0.00     0.087 H 
ATOM     36  C12 3V0 d   1      35.609  25.547 -17.082  0.00  0.00     0.009 A 
ATOM     37  H   3V0 d   1      36.904  25.972 -15.407  0.00  0.00     0.085 H 
ATOM     38  I1  3V0 d   1      36.585  23.790 -17.696  0.00  0.00    -0.044 I 
ATOM     39  C13 3V0 d   1      34.500  25.941 -17.790  0.00  0.00    -0.027 A 
ATOM     40  C14 3V0 d   1      33.815  27.077 -17.416  0.00  0.00     0.144 A 
ATOM     41  H   3V0 d   1      34.162  25.357 -18.646  0.00  0.00     0.090 H 
ATOM     42  F1  3V0 d   1      32.741  27.396 -18.145  0.00  0.00    -0.204 F 
ENDBRANCH  30  32
ENDBRANCH   9  30
TORSDOF 9
