REMARK  7 active torsions:
REMARK  status: ('A' for Active; 'I' for Inactive)
REMARK    1  A    between atoms: C14_23  and  C1_1 
REMARK    2  A    between atoms: O2_8  and  N4_13 
REMARK    3  A    between atoms: C15_24  and  O2_8 
REMARK    4  A    between atoms: C4_12  and  N3_10 
REMARK    5  A    between atoms: N3_10  and  C8_17 
REMARK    6  A    between atoms: C16_25  and  O3_11 
REMARK       I    between atoms: N4_13  and  C14_23 
REMARK    7  A    between atoms: C15_24  and  C16_25 
ROOT
ATOM      1  C1  V04 d   1      32.483 -30.442 -28.337  0.00  0.00     0.061 A 
ATOM      2  N1  V04 d   1      36.129 -32.119 -29.206  0.00  0.00    -0.175 NA
ATOM      3  C2  V04 d   1      32.505 -31.377 -29.369  0.00  0.00    -0.063 A 
ATOM      4  N2  V04 d   1      36.964 -31.488 -28.265  0.00  0.00    -0.288 N 
ATOM      5  C3  V04 d   1      33.690 -31.991 -29.733  0.00  0.00    -0.051 A 
ATOM      6  C4  V04 d   1      33.660 -30.100 -27.656  0.00  0.00     0.062 A 
ATOM      7  C5  V04 d   1      34.858 -30.748 -28.018  0.00  0.00     0.039 A 
ATOM      8  C6  V04 d   1      34.858 -31.672 -29.059  0.00  0.00     0.090 A 
ATOM      9  C7  V04 d   1      36.199 -30.642 -27.545  0.00  0.00     0.010 A 
ATOM     10  H   V04 d   1      31.582 -31.627 -29.893  0.00  0.00     0.085 H 
ATOM     11  H   V04 d   1      37.965 -31.642 -28.149  0.00  0.00     0.188 HD
ATOM     12  H   V04 d   1      33.705 -32.720 -30.543  0.00  0.00     0.087 H 
ATOM     13  H   V04 d   1      36.545 -29.991 -26.742  0.00  0.00     0.115 H 
ENDROOT
BRANCH   1  14
ATOM     14  C14 V04 d   1      31.140 -29.848 -28.021  0.00  0.00     0.277 C 
ATOM     15  O1  V04 d   1      30.873 -29.442 -26.900  0.00  0.00    -0.265 OA
ATOM     16  N4  V04 d   1      30.248 -29.820 -29.005  0.00  0.00    -0.231 N 
ATOM     17  H   V04 d   1      30.505 -30.177 -29.925  0.00  0.00     0.197 HD
BRANCH  16  18
ATOM     18  O2  V04 d   1      29.001 -29.325 -28.807  0.00  0.00    -0.275 OA
BRANCH  18  19
ATOM     19  C15 V04 d   1      27.903 -30.240 -28.734  0.00  0.00     0.065 C 
ATOM     20  H   V04 d   1      28.224 -31.215 -29.101  0.00  0.00     0.081 H 
ATOM     21  H   V04 d   1      27.082 -29.863 -29.343  0.00  0.00     0.081 H 
BRANCH  19  22
ATOM     22  C16 V04 d   1      27.432 -30.379 -27.290  0.00  0.00     0.039 C 
ATOM     23  H   V04 d   1      27.978 -31.188 -26.804  0.00  0.00     0.077 H 
ATOM     24  H   V04 d   1      27.616 -29.447 -26.755  0.00  0.00     0.077 H 
BRANCH  22  25
ATOM     25  O3  V04 d   1      26.037 -30.670 -27.275  0.00  0.00    -0.399 OA
ATOM     26  H   V04 d   1      25.558 -29.956 -27.703  0.00  0.00     0.209 HD
ENDBRANCH  22  25
ENDBRANCH  19  22
ENDBRANCH  18  19
ENDBRANCH  16  18
ENDBRANCH   1  14
BRANCH   6  27
ATOM     27  N3  V04 d   1      33.582 -29.195 -26.632  0.00  0.00    -0.352 N 
ATOM     28  H   V04 d   1      32.853 -29.408 -25.951  0.00  0.00     0.166 HD
BRANCH  27  29
ATOM     29  C8  V04 d   1      34.291 -28.060 -26.342  0.00  0.00     0.071 A 
ATOM     30  C9  V04 d   1      35.444 -27.634 -27.012  0.00  0.00    -0.053 A 
ATOM     31  C10 V04 d   1      36.101 -26.468 -26.625  0.00  0.00    -0.065 A 
ATOM     32  H   V04 d   1      35.832 -28.221 -27.845  0.00  0.00     0.087 H 
ATOM     33  C11 V04 d   1      35.610 -25.713 -25.564  0.00  0.00     0.009 A 
ATOM     34  H   V04 d   1      36.999 -26.147 -27.153  0.00  0.00     0.085 H 
ATOM     35  I1  V04 d   1      36.540 -23.950 -24.943  0.00  0.00    -0.044 I 
ATOM     36  C12 V04 d   1      34.472 -26.125 -24.896  0.00  0.00    -0.027 A 
ATOM     37  C13 V04 d   1      33.820 -27.288 -25.283  0.00  0.00     0.144 A 
ATOM     38  H   V04 d   1      34.086 -25.536 -24.064  0.00  0.00     0.090 H 
ATOM     39  F1  V04 d   1      32.717 -27.660 -24.610  0.00  0.00    -0.204 F 
ENDBRANCH  27  29
ENDBRANCH   6  27
TORSDOF 7
