REMARK  16 active torsions:
REMARK  status: ('A' for Active; 'I' for Inactive)
REMARK    1  A    between atoms: CBA_6  and  CBB_7 
REMARK    2  A    between atoms: NBN_14  and  C1'_15 
REMARK    3  A    between atoms: C2'_17  and  O2'_18 
REMARK    4  A    between atoms: C3'_19  and  O3'_20 
REMARK    5  A    between atoms: C4'_21  and  C5'_22 
REMARK    6  A    between atoms: C5'_22  and  O5'_23 
REMARK    7  A    between atoms: O5'_23  and  PBO_24 
REMARK    8  A    between atoms: PBO_24  and  OAZ_27 
REMARK    9  A    between atoms: OAZ_27  and  PBP_28 
REMARK   10  A    between atoms: PBP_28  and  O1_31 
REMARK   11  A    between atoms: O1_31  and  C1_32 
REMARK   12  A    between atoms: C5_34  and  C6_35 
REMARK   13  A    between atoms: C6_35  and  O6_36 
REMARK   14  A    between atoms: C4_37  and  O4_38 
REMARK   15  A    between atoms: C3_39  and  O3_40 
REMARK   16  A    between atoms: C2_41  and  O2_42 
ROOT
ATOM      1  C1' 2GW d   1      16.075 -23.020  -6.444  0.00  0.00     0.141 C 
ATOM      2  O4' 2GW d   1      14.719 -22.463  -6.500  0.00  0.00    -0.353 OA
ATOM      3  C2' 2GW d   1      16.875 -22.125  -5.579  0.00  0.00     0.105 C 
ATOM      4  C3' 2GW d   1      16.141 -20.851  -5.688  0.00  0.00     0.091 C 
ATOM      5  C4' 2GW d   1      14.690 -21.246  -5.713  0.00  0.00     0.089 C 
ATOM      6  H8  2GW d   1      16.070 -24.034  -6.018  0.00  0.00     0.123 H 
ATOM      7  H9  2GW d   1      17.913 -22.020  -5.929  0.00  0.00     0.093 H 
ATOM      8  H11 2GW d   1      16.385 -20.349  -6.636  0.00  0.00     0.091 H 
ATOM      9  H13 2GW d   1      14.343 -21.446  -4.688  0.00  0.00     0.090 H 
ENDROOT
BRANCH   5  10
ATOM     10  C5' 2GW d   1      13.738 -20.255  -6.351  0.00  0.00     0.058 C 
ATOM     11  H14 2GW d   1      13.493 -19.484  -5.606  0.00  0.00     0.079 H 
ATOM     12  H15 2GW d   1      12.822 -20.793  -6.638  0.00  0.00     0.079 H 
BRANCH  10  13
ATOM     13  O5' 2GW d   1      14.257 -19.607  -7.510  0.00  0.00    -0.287 OA
BRANCH  13  14
ATOM     14  PBO 2GW d   1      14.678 -18.133  -7.490  0.00  0.00     0.417 P 
ATOM     15  OAK 2GW d   1      15.340 -17.824  -6.209  0.00  0.00    -0.624 OA
ATOM     16  OAC 2GW d   1      15.581 -17.816  -8.669  0.00  0.00    -0.624 OA
BRANCH  14  17
ATOM     17  OAZ 2GW d   1      13.327 -17.275  -7.703  0.00  0.00    -0.180 OA
BRANCH  17  18
ATOM     18  PBP 2GW d   1      12.552 -16.265  -6.754  0.00  0.00     0.420 P 
ATOM     19  OAL 2GW d   1      13.286 -15.596  -5.670  0.00  0.00    -0.624 OA
ATOM     20  OAD 2GW d   1      11.786 -15.323  -7.638  0.00  0.00    -0.624 OA
BRANCH  18  21
ATOM     21  O1  2GW d   1      11.471 -17.322  -6.198  0.00  0.00    -0.255 OA
BRANCH  21  22
ATOM     22  C1  2GW d   1      10.329 -17.052  -5.549  0.00  0.00     0.170 C 
ATOM     23  O5  2GW d   1       9.249 -17.466  -6.452  0.00  0.00    -0.348 OA
ATOM     24  C5  2GW d   1       9.264 -18.819  -6.739  0.00  0.00     0.089 C 
ATOM     25  C4  2GW d   1       9.293 -19.685  -5.468  0.00  0.00     0.090 C 
ATOM     26  H17 2GW d   1      10.161 -19.075  -7.323  0.00  0.00     0.090 H 
ATOM     27  C3  2GW d   1      10.413 -19.249  -4.543  0.00  0.00     0.092 C 
ATOM     28  H21 2GW d   1       9.493 -20.720  -5.782  0.00  0.00     0.091 H 
ATOM     29  C2  2GW d   1      10.219 -17.865  -4.288  0.00  0.00     0.110 C 
ATOM     30  H23 2GW d   1      11.379 -19.401  -5.047  0.00  0.00     0.091 H 
ATOM     31  H25 2GW d   1       9.207 -17.747  -3.874  0.00  0.00     0.094 H 
ATOM     32  H16 2GW d   1      10.262 -15.979  -5.315  0.00  0.00     0.134 H 
BRANCH  24  33
ATOM     33  C6  2GW d   1       8.026 -18.931  -7.640  0.00  0.00     0.043 C 
ATOM     34  H18 2GW d   1       8.179 -18.281  -8.514  0.00  0.00     0.078 H 
ATOM     35  H19 2GW d   1       7.154 -18.578  -7.069  0.00  0.00     0.078 H 
BRANCH  33  36
ATOM     36  O6  2GW d   1       7.758 -20.191  -8.089  0.00  0.00    -0.398 OA
ATOM     37  H20 2GW d   1       7.611 -20.766  -7.347  0.00  0.00     0.209 HD
ENDBRANCH  33  36
ENDBRANCH  24  33
BRANCH  25  38
ATOM     38  O4  2GW d   1       8.053 -19.682  -4.751  0.00  0.00    -0.390 OA
ATOM     39  H22 2GW d   1       7.364 -20.019  -5.311  0.00  0.00     0.210 HD
ENDBRANCH  25  38
BRANCH  27  40
ATOM     40  O3  2GW d   1      10.419 -20.006  -3.279  0.00  0.00    -0.390 OA
ATOM     41  H24 2GW d   1      11.134 -19.701  -2.732  0.00  0.00     0.210 HD
ENDBRANCH  27  40
BRANCH  29  42
ATOM     42  O2  2GW d   1      11.159 -17.292  -3.357  0.00  0.00    -0.388 OA
ATOM     43  H26 2GW d   1      12.040 -17.390  -3.698  0.00  0.00     0.210 HD
ENDBRANCH  29  42
ENDBRANCH  21  22
ENDBRANCH  18  21
ENDBRANCH  17  18
ENDBRANCH  14  17
ENDBRANCH  13  14
ENDBRANCH  10  13
ENDBRANCH   5  10
BRANCH   4  44
ATOM     44  O3' 2GW d   1      16.547 -20.017  -4.641  0.00  0.00    -0.390 OA
ATOM     45  H12 2GW d   1      16.082 -19.191  -4.697  0.00  0.00     0.210 HD
ENDBRANCH   4  44
BRANCH   1  46
ATOM     46  NBN 2GW d   1      16.550 -23.068  -7.858  0.00  0.00    -0.279 N 
ATOM     47  CAR 2GW d   1      15.864 -22.368  -8.858  0.00  0.00     0.002 A 
ATOM     48  CBB 2GW d   1      16.355 -22.481 -10.164  0.00  0.00     0.044 A 
ATOM     49  H6  2GW d   1      14.988 -21.763  -8.630  0.00  0.00     0.113 H 
ATOM     50  CBC 2GW d   1      17.523 -23.265 -10.379  0.00  0.00     0.195 A 
ATOM     51  OAA 2GW d   1      18.123 -23.450 -11.634  0.00  0.00    -0.171 OA
ATOM     52  NAU 2GW d   1      18.181 -23.883  -9.372  0.00  0.00    -0.286 N 
ATOM     53  CBD 2GW d   1      17.658 -23.759  -8.115  0.00  0.00     0.330 A 
ATOM     54  H7  2GW d   1      19.015 -24.409  -9.540  0.00  0.00     0.172 HD
ATOM     55  OAB 2GW d   1      18.190 -24.400  -7.209  0.00  0.00    -0.246 OA
BRANCH  48  56
ATOM     56  CBA 2GW d   1      15.627 -21.776 -11.358  0.00  0.00    -0.020 A 
ATOM     57  CAP 2GW d   1      15.357 -20.435 -11.314  0.00  0.00    -0.072 A 
ATOM     58  CAN 2GW d   1      14.738 -19.784 -12.385  0.00  0.00    -0.082 A 
ATOM     59  H1  2GW d   1      15.628 -19.867 -10.432  0.00  0.00     0.084 H 
ATOM     60  CAM 2GW d   1      14.357 -20.555 -13.487  0.00  0.00    -0.083 A 
ATOM     61  H2  2GW d   1      14.559 -18.715 -12.362  0.00  0.00     0.083 H 
ATOM     62  CAO 2GW d   1      14.605 -21.927 -13.515  0.00  0.00    -0.082 A 
ATOM     63  H3  2GW d   1      13.864 -20.082 -14.328  0.00  0.00     0.083 H 
ATOM     64  CAQ 2GW d   1      15.241 -22.559 -12.433  0.00  0.00    -0.072 A 
ATOM     65  H4  2GW d   1      14.305 -22.510 -14.378  0.00  0.00     0.083 H 
ATOM     66  H5  2GW d   1      15.424 -23.627 -12.440  0.00  0.00     0.084 H 
ENDBRANCH  48  56
ENDBRANCH   1  46
BRANCH   3  67
ATOM     67  O2' 2GW d   1      16.851 -22.661  -4.268  0.00  0.00    -0.388 OA
ATOM     68  H10 2GW d   1      17.225 -23.534  -4.277  0.00  0.00     0.210 HD
ENDBRANCH   3  67
TORSDOF 16
