REMARK  6 active torsions:
REMARK  status: ('A' for Active; 'I' for Inactive)
REMARK    1  A    between atoms: C1_1  and  O1_2 
REMARK    2  A    between atoms: C2_3  and  O2_4 
REMARK    3  A    between atoms: C4_6  and  C42_12 
REMARK    4  A    between atoms: C7_9  and  O7_10 
REMARK    5  A    between atoms: C42_12  and  C41_11 
REMARK    6  A    between atoms: C42_12  and  C43_13 
ROOT
ATOM      1  C1  JTH d   1      -5.370 -36.765   2.782  0.00  0.00     0.085 C 
ATOM      2  C2  JTH d   1      -5.221 -38.283   2.802  0.00  0.00     0.063 C 
ATOM      3  C3  JTH d   1      -6.509 -39.018   2.973  0.00  0.00    -0.035 C 
ATOM      4  C4  JTH d   1      -6.937 -39.063   4.439  0.00  0.00    -0.049 C 
ATOM      5  C5  JTH d   1      -7.794 -37.897   4.808  0.00  0.00    -0.059 C 
ATOM      6  C6  JTH d   1      -7.041 -36.614   4.709  0.00  0.00    -0.038 C 
ATOM      7  C7  JTH d   1      -6.695 -36.228   3.285  0.00  0.00     0.062 C 
ATOM      8  H   JTH d   1      -4.619 -36.388   3.476  0.00  0.00     0.090 H 
ATOM      9  H   JTH d   1      -4.611 -38.520   3.674  0.00  0.00     0.087 H 
ATOM     10  H   JTH d   1      -6.372 -40.041   2.621  0.00  0.00     0.037 H 
ATOM     11  H   JTH d   1      -7.281 -38.500   2.404  0.00  0.00     0.037 H 
ATOM     12  H   JTH d   1      -6.037 -39.004   5.051  0.00  0.00     0.040 H 
ATOM     13  H   JTH d   1      -8.126 -38.024   5.838  0.00  0.00     0.033 H 
ATOM     14  H   JTH d   1      -8.638 -37.857   4.119  0.00  0.00     0.033 H 
ATOM     15  H   JTH d   1      -6.104 -36.740   5.252  0.00  0.00     0.036 H 
ATOM     16  H   JTH d   1      -7.676 -35.828   5.118  0.00  0.00     0.036 H 
ATOM     17  H   JTH d   1      -7.467 -36.674   2.657  0.00  0.00     0.086 H 
ENDROOT
BRANCH   4  18
ATOM     18  C42 JTH d   1      -7.661 -40.382   4.733  0.00  0.00    -0.058 C 
ATOM     19  H   JTH d   1      -7.552 -40.975   3.825  0.00  0.00     0.039 H 
BRANCH  18  20
ATOM     20  C41 JTH d   1      -9.162 -40.225   4.919  0.00  0.00    -0.073 C 
ATOM     21  H   JTH d   1      -9.631 -41.209   4.924  0.00  0.00     0.028 H 
ATOM     22  H   JTH d   1      -9.359 -39.722   5.866  0.00  0.00     0.028 H 
ATOM     23  H   JTH d   1      -9.568 -39.631   4.100  0.00  0.00     0.028 H 
ENDBRANCH  18  20
BRANCH  18  24
ATOM     24  C43 JTH d   1      -6.997 -41.199   5.830  0.00  0.00    -0.073 C 
ATOM     25  H   JTH d   1      -7.159 -40.712   6.792  0.00  0.00     0.028 H 
ATOM     26  H   JTH d   1      -7.431 -42.199   5.850  0.00  0.00     0.028 H 
ATOM     27  H   JTH d   1      -5.927 -41.269   5.632  0.00  0.00     0.028 H 
ENDBRANCH  18  24
ENDBRANCH   4  18
BRANCH   2  28
ATOM     28  O2  JTH d   1      -4.607 -38.702   1.618  0.00  0.00    -0.393 OA
ATOM     29  H   JTH d   1      -5.148 -38.441   0.869  0.00  0.00     0.210 HD
ENDBRANCH   2  28
BRANCH   1  30
ATOM     30  O1  JTH d   1      -5.183 -36.322   1.479  0.00  0.00    -0.390 OA
ATOM     31  H   JTH d   1      -5.274 -35.367   1.451  0.00  0.00     0.210 HD
ENDBRANCH   1  30
BRANCH   7  32
ATOM     32  O7  JTH d   1      -6.657 -34.839   3.201  0.00  0.00    -0.393 OA
ATOM     33  H   JTH d   1      -5.991 -34.501   3.804  0.00  0.00     0.210 HD
ENDBRANCH   7  32
TORSDOF 6
