REMARK WARNING: 32 MAX_TORS EXCEEDED!!!
REMARK  44 active torsions:
REMARK  status: ('A' for Active; 'I' for Inactive)
REMARK    1  A    between atoms: N_1  and  CA_2 
REMARK    2  A    between atoms: CA_2  and  C_3 
REMARK    3  A    between atoms: CA_2  and  CB_5 
REMARK       I    between atoms: C_3  and  N_6 
REMARK    4  A    between atoms: CA_7  and  C_8 
REMARK       I    between atoms: C_8  and  N_13 
REMARK    5  A    between atoms: N_13  and  CA_14 
REMARK    6  A    between atoms: CA_14  and  C_15 
REMARK    7  A    between atoms: CA_14  and  CB_17 
REMARK       I    between atoms: C_15  and  N_20 
REMARK    8  A    between atoms: CB_17  and  OG1_18 
REMARK    9  A    between atoms: CB_17  and  CG2_19 
REMARK   10  A    between atoms: N_20  and  CA_21 
REMARK   11  A    between atoms: CA_21  and  C_22 
REMARK   12  A    between atoms: CA_21  and  CB_24 
REMARK       I    between atoms: C_22  and  N_28 
REMARK   13  A    between atoms: CB_24  and  CG_25 
REMARK   14  A    between atoms: CG_25  and  CD1_26 
REMARK   15  A    between atoms: CG_25  and  CD2_27 
REMARK   16  A    between atoms: CA_29  and  C_30 
REMARK       I    between atoms: C_30  and  N_35 
REMARK   17  A    between atoms: N_35  and  CA_36 
REMARK   18  A    between atoms: CA_36  and  C_37 
REMARK   19  A    between atoms: CA_36  and  CB_39 
REMARK       I    between atoms: C_37  and  N_44 
REMARK   20  A    between atoms: CB_39  and  CG_40 
REMARK   21  A    between atoms: CG_40  and  CD_41 
REMARK   22  A    between atoms: CD_41  and  CE_42 
REMARK   23  A    between atoms: CE_42  and  NZ_43 
REMARK   24  A    between atoms: N_44  and  CA_45 
REMARK   25  A    between atoms: CA_45  and  C_46 
REMARK   26  A    between atoms: CA_45  and  CB_48 
REMARK       I    between atoms: C_46  and  N_52 
REMARK   27  A    between atoms: CB_48  and  CG_49 
REMARK   28  A    between atoms: CG_49  and  CD1_50 
REMARK   29  A    between atoms: CG_49  and  CD2_51 
REMARK   30  A    between atoms: CA_53  and  C_54 
REMARK       I    between atoms: C_54  and  N_59 
REMARK   31  A    between atoms: N_59  and  CA_60 
REMARK   32  A    between atoms: CA_60  and  C_61 
REMARK   33  A    between atoms: CA_60  and  CB_63 
REMARK       I    between atoms: C_61  and  N_65 
REMARK   34  A    between atoms: CB_63  and  OG_64 
REMARK   35  A    between atoms: N_65  and  CA_66 
REMARK   36  A    between atoms: CA_66  and  C_67 
REMARK   37  A    between atoms: CA_66  and  CB_69 
REMARK       I    between atoms: C_67  and  N_73 
REMARK   38  A    between atoms: CB_69  and  CG_70 
REMARK   39  A    between atoms: CG_70  and  CD1_71 
REMARK   40  A    between atoms: CG_70  and  CD2_72 
REMARK   41  A    between atoms: N_73  and  CA_74 
REMARK   42  A    between atoms: CA_74  and  C_75 
REMARK   43  A    between atoms: CA_74  and  CB_77 
REMARK   44  A    between atoms: CB_77  and  OG_78 
ROOT
ATOM      1  CA  LYS d   1      -3.367   2.655   0.286  0.00  0.00     0.089 C 
ATOM      2  H41 LYS d   1      -3.671   3.602   0.757  0.00  0.00     0.087 H 
ENDROOT
BRANCH   1   3
ATOM      3  N   LYS d   1      -3.028   1.682   1.313  0.00  0.00    -0.346 N 
ATOM      4  C   PRO d   1      -3.826   1.481   2.353  0.00  0.00     0.241 C 
ATOM      5  O   PRO d   1      -4.821   2.167   2.581  0.00  0.00    -0.271 OA
ATOM      6  H40 LYS d   1      -2.181   1.157   1.234  0.00  0.00     0.163 HD
BRANCH   4   7
ATOM      7  CA  PRO d   1      -3.440   0.346   3.274  0.00  0.00     0.091 C 
ATOM      8  N   PRO d   1      -3.709   0.655   4.671  0.00  0.00    -0.337 N 
ATOM      9  C   LEU d   1      -3.125   1.676   5.317  0.00  0.00     0.243 C 
ATOM     10  CD  PRO d   1      -4.752  -0.221   5.230  0.00  0.00    -0.001 C 
ATOM     11  O   LEU d   1      -2.283   2.405   4.801  0.00  0.00    -0.271 OA
ATOM     12  CG  PRO d   1      -5.419  -0.765   4.006  0.00  0.00    -0.048 C 
ATOM     13  H38 PRO d   1      -5.461   0.351   5.847  0.00  0.00     0.064 H 
ATOM     14  H39 PRO d   1      -4.310  -1.028   5.832  0.00  0.00     0.064 H 
ATOM     15  CB  PRO d   1      -4.346  -0.858   2.993  0.00  0.00    -0.036 C 
ATOM     16  H36 PRO d   1      -5.847  -1.758   4.208  0.00  0.00     0.035 H 
ATOM     17  H37 PRO d   1      -6.214  -0.086   3.665  0.00  0.00     0.035 H 
ATOM     18  H34 PRO d   1      -3.787  -1.799   3.105  0.00  0.00     0.036 H 
ATOM     19  H35 PRO d   1      -4.765  -0.799   1.978  0.00  0.00     0.036 H 
ATOM     20  H33 PRO d   1      -2.379   0.094   3.127  0.00  0.00     0.087 H 
BRANCH   9  21
ATOM     21  CA  LEU d   1      -3.546   1.911   6.755  0.00  0.00     0.090 C 
ATOM     22  H23 LEU d   1      -3.889   0.960   7.188  0.00  0.00     0.087 H 
BRANCH  21  23
ATOM     23  N   LEU d   1      -2.398   2.383   7.499  0.00  0.00    -0.346 N 
ATOM     24  C   THR d   1      -1.688   1.562   8.255  0.00  0.00     0.243 C 
ATOM     25  O   THR d   1      -1.998   0.392   8.452  0.00  0.00    -0.271 OA
ATOM     26  H22 LEU d   1      -2.137   3.347   7.441  0.00  0.00     0.163 HD
BRANCH  24  27
ATOM     27  CA  THR d   1      -0.421   2.152   8.853  0.00  0.00     0.113 C 
ATOM     28  H16 THR d   1      -0.529   3.246   8.887  0.00  0.00     0.091 H 
BRANCH  27  29
ATOM     29  N   THR d   1      -0.186   1.690  10.224  0.00  0.00    -0.344 N 
ATOM     30  C   PRO d   1       0.111   2.543  11.203  0.00  0.00     0.241 C 
ATOM     31  O   PRO d   1       0.070   3.766  11.069  0.00  0.00    -0.271 OA
ATOM     32  H15 THR d   1      -0.250   0.713  10.429  0.00  0.00     0.163 HD
BRANCH  30  33
ATOM     33  CA  PRO d   1       0.537   1.944  12.543  0.00  0.00     0.091 C 
ATOM     34  N   PRO d   1       1.804   2.514  13.011  0.00  0.00    -0.337 N 
ATOM     35  C   LEU d   1       2.914   2.559  12.250  0.00  0.00     0.250 C 
ATOM     36  CD  PRO d   1       1.673   3.077  14.365  0.00  0.00    -0.001 C 
ATOM     37  O   LEU d   1       2.951   2.120  11.096  0.00  0.00    -0.271 OA
ATOM     38  CG  PRO d   1       0.384   2.507  14.844  0.00  0.00    -0.048 C 
ATOM     39  H13 PRO d   1       1.631   4.176  14.334  0.00  0.00     0.064 H 
ATOM     40  H14 PRO d   1       2.508   2.760  15.007  0.00  0.00     0.064 H 
ATOM     41  CB  PRO d   1      -0.447   2.349  13.637  0.00  0.00    -0.036 C 
ATOM     42  H11 PRO d   1       0.550   1.533  15.327  0.00  0.00     0.035 H 
ATOM     43  H12 PRO d   1      -0.099   3.192  15.556  0.00  0.00     0.035 H 
ATOM     44  H9  PRO d   1      -1.205   1.566  13.787  0.00  0.00     0.036 H 
ATOM     45  H10 PRO d   1      -0.944   3.296  13.381  0.00  0.00     0.036 H 
ATOM     46  H8  PRO d   1       0.606   0.850  12.453  0.00  0.00     0.087 H 
BRANCH  35  47
ATOM     47  CA  LEU d   1       4.171   3.177  12.879  0.00  0.00     0.172 C 
ATOM     48  H4  LEU d   1       3.891   3.603  13.854  0.00  0.00     0.098 H 
BRANCH  47  49
ATOM     49  N   LEU d   1       5.211   2.136  13.109  0.00  0.00    -0.067 N 
ATOM     50  H1  LEU d   1       6.027   2.561  13.522  0.00  0.00     0.275 HD
ATOM     51  H2  LEU d   1       5.462   1.712  12.230  0.00  0.00     0.275 HD
ATOM     52  H3  LEU d   1       4.849   1.431  13.731  0.00  0.00     0.275 HD
ENDBRANCH  47  49
BRANCH  47  53
ATOM     53  CB  LEU d   1       4.724   4.310  12.006  0.00  0.00    -0.042 C 
ATOM     54  H5  LEU d   1       3.942   5.067  11.848  0.00  0.00     0.030 H 
ATOM     55  H6  LEU d   1       5.041   3.903  11.034  0.00  0.00     0.030 H 
ATOM     56  H7  LEU d   1       5.586   4.773  12.509  0.00  0.00     0.030 H 
ENDBRANCH  47  53
ENDBRANCH  35  47
ENDBRANCH  30  33
ENDBRANCH  27  29
BRANCH  27  57
ATOM     57  CB  THR d   1       0.762   1.803   7.895  0.00  0.00     0.060 C 
ATOM     58  H17 THR d   1       0.640   0.767   7.546  0.00  0.00     0.086 H 
BRANCH  57  59
ATOM     59  OG1 THR d   1       2.012   1.922   8.584  0.00  0.00    -0.393 OA
ATOM     60  H18 THR d   1       2.024   1.324   9.322  0.00  0.00     0.210 HD
ENDBRANCH  57  59
BRANCH  57  61
ATOM     61  CG2 THR d   1       0.778   2.733   6.690  0.00  0.00    -0.050 C 
ATOM     62  H19 THR d   1       1.619   2.467   6.032  0.00  0.00     0.031 H 
ATOM     63  H20 THR d   1       0.894   3.772   7.031  0.00  0.00     0.031 H 
ATOM     64  H21 THR d   1      -0.167   2.632   6.136  0.00  0.00     0.031 H 
ENDBRANCH  57  61
ENDBRANCH  27  57
ENDBRANCH  24  27
ENDBRANCH  21  23
BRANCH  21  65
ATOM     65  CB  LEU d   1      -4.688   2.924   6.835  0.00  0.00    -0.035 C 
ATOM     66  H24 LEU d   1      -5.500   2.574   6.181  0.00  0.00     0.037 H 
ATOM     67  H25 LEU d   1      -4.312   3.890   6.467  0.00  0.00     0.037 H 
BRANCH  65  68
ATOM     68  CG  LEU d   1      -5.269   3.144   8.232  0.00  0.00    -0.059 C 
ATOM     69  H26 LEU d   1      -4.429   3.238   8.936  0.00  0.00     0.038 H 
BRANCH  68  70
ATOM     70  CD1 LEU d   1      -6.067   4.426   8.277  0.00  0.00    -0.073 C 
ATOM     71  H27 LEU d   1      -6.477   4.568   9.288  0.00  0.00     0.028 H 
ATOM     72  H28 LEU d   1      -6.892   4.370   7.552  0.00  0.00     0.028 H 
ATOM     73  H29 LEU d   1      -5.413   5.274   8.024  0.00  0.00     0.028 H 
ENDBRANCH  68  70
BRANCH  68  74
ATOM     74  CD2 LEU d   1      -6.125   1.971   8.680  0.00  0.00    -0.073 C 
ATOM     75  H30 LEU d   1      -5.530   1.047   8.641  0.00  0.00     0.028 H 
ATOM     76  H31 LEU d   1      -6.994   1.875   8.013  0.00  0.00     0.028 H 
ATOM     77  H32 LEU d   1      -6.471   2.142   9.710  0.00  0.00     0.028 H 
ENDBRANCH  68  74
ENDBRANCH  65  68
ENDBRANCH  21  65
ENDBRANCH   9  21
ENDBRANCH   4   7
ENDBRANCH   1   3
BRANCH   1  78
ATOM     78  C   LYS d   1      -4.542   2.073  -0.484  0.00  0.00     0.241 C 
ATOM     79  O   LYS d   1      -4.470   0.950  -0.974  0.00  0.00    -0.271 OA
ATOM     80  N   LEU d   1      -5.638   2.812  -0.540  0.00  0.00    -0.346 N 
ATOM     81  H53 LEU d   1      -5.649   3.705  -0.090  0.00  0.00     0.163 HD
BRANCH  80  82
ATOM     82  CA  LEU d   1      -6.829   2.353  -1.243  0.00  0.00     0.090 C 
ATOM     83  H54 LEU d   1      -6.832   1.253  -1.242  0.00  0.00     0.087 H 
BRANCH  82  84
ATOM     84  C   LEU d   1      -6.835   2.836  -2.705  0.00  0.00     0.243 C 
ATOM     85  O   LEU d   1      -6.205   3.856  -3.021  0.00  0.00    -0.271 OA
ATOM     86  N   PRO d   1      -7.560   2.115  -3.591  0.00  0.00    -0.337 N 
ATOM     87  CA  PRO d   1      -7.670   2.498  -5.001  0.00  0.00     0.091 C 
ATOM     88  CD  PRO d   1      -8.185   0.802  -3.345  0.00  0.00    -0.001 C 
ATOM     89  CB  PRO d   1      -8.720   1.531  -5.542  0.00  0.00    -0.036 C 
ATOM     90  H64 PRO d   1      -6.705   2.346  -5.507  0.00  0.00     0.087 H 
ATOM     91  CG  PRO d   1      -8.571   0.336  -4.711  0.00  0.00    -0.048 C 
ATOM     92  H65 PRO d   1      -8.527   1.297  -6.599  0.00  0.00     0.036 H 
ATOM     93  H66 PRO d   1      -9.730   1.954  -5.439  0.00  0.00     0.036 H 
ATOM     94  H67 PRO d   1      -7.787  -0.316  -5.124  0.00  0.00     0.035 H 
ATOM     95  H68 PRO d   1      -9.522  -0.215  -4.668  0.00  0.00     0.035 H 
ATOM     96  H69 PRO d   1      -9.070   0.903  -2.700  0.00  0.00     0.064 H 
ATOM     97  H70 PRO d   1      -7.470   0.107  -2.881  0.00  0.00     0.064 H 
BRANCH  87  98
ATOM     98  C   PRO d   1      -8.111   3.947  -5.220  0.00  0.00     0.241 C 
ATOM     99  O   PRO d   1      -9.039   4.430  -4.558  0.00  0.00    -0.271 OA
ATOM    100  N   SER d   1      -7.437   4.618  -6.144  0.00  0.00    -0.344 N 
ATOM    101  H71 SER d   1      -6.754   4.126  -6.684  0.00  0.00     0.163 HD
BRANCH 100 102
ATOM    102  CA  SER d   1      -7.640   6.029  -6.412  0.00  0.00     0.109 C 
ATOM    103  H72 SER d   1      -8.565   6.375  -5.928  0.00  0.00     0.090 H 
BRANCH 102 104
ATOM    104  C   SER d   1      -7.762   6.197  -7.923  0.00  0.00     0.243 C 
ATOM    105  O   SER d   1      -6.787   5.987  -8.649  0.00  0.00    -0.271 OA
ATOM    106  N   LEU d   1      -8.954   6.549  -8.407  0.00  0.00    -0.346 N 
ATOM    107  H76 LEU d   1      -9.692   6.776  -7.772  0.00  0.00     0.163 HD
BRANCH 106 108
ATOM    108  CA  LEU d   1      -9.206   6.611  -9.851  0.00  0.00     0.089 C 
ATOM    109  H77 LEU d   1      -8.424   6.034 -10.366  0.00  0.00     0.087 H 
BRANCH 108 110
ATOM    110  C   LEU d   1      -9.164   8.042 -10.349  0.00  0.00     0.241 C 
ATOM    111  O   LEU d   1      -9.690   8.946  -9.696  0.00  0.00    -0.271 OA
ATOM    112  N   SER d   1      -8.545   8.248 -11.510  0.00  0.00    -0.343 N 
ATOM    113  H87 SER d   1      -8.079   7.483 -11.954  0.00  0.00     0.163 HD
BRANCH 112 114
ATOM    114  CA  SER d   1      -8.527   9.561 -12.155  0.00  0.00     0.116 C 
ATOM    115  H88 SER d   1      -8.219  10.304 -11.405  0.00  0.00     0.093 H 
BRANCH 114 116
ATOM    116  C   SER d   1      -9.922   9.949 -12.664  0.00  0.00     0.198 C 
ATOM    117  O   SER d   1     -10.813   9.106 -12.802  0.00  0.00    -0.646 OA
ATOM    118  OXT SER d   1     -10.188  11.118 -12.958  0.00  0.00    -0.646 OA
ENDBRANCH 114 116
BRANCH 114 119
ATOM    119  CB  SER d   1      -7.509   9.588 -13.299  0.00  0.00     0.045 C 
ATOM    120  H89 SER d   1      -6.572   9.126 -12.956  0.00  0.00     0.077 H 
ATOM    121  H90 SER d   1      -7.319  10.633 -13.585  0.00  0.00     0.077 H 
BRANCH 119 122
ATOM    122  OG  SER d   1      -7.987   8.879 -14.430  0.00  0.00    -0.398 OA
ATOM    123  H91 SER d   1      -7.337   8.913 -15.122  0.00  0.00     0.209 HD
ENDBRANCH 119 122
ENDBRANCH 114 119
ENDBRANCH 112 114
ENDBRANCH 108 110
BRANCH 108 124
ATOM    124  CB  LEU d   1     -10.572   6.005 -10.187  0.00  0.00    -0.035 C 
ATOM    125  H78 LEU d   1     -10.811   6.333 -11.209  0.00  0.00     0.037 H 
ATOM    126  H79 LEU d   1     -11.289   6.451  -9.482  0.00  0.00     0.037 H 
BRANCH 124 127
ATOM    127  CG  LEU d   1     -10.821   4.488 -10.152  0.00  0.00    -0.059 C 
ATOM    128  H80 LEU d   1     -10.560   4.094 -11.145  0.00  0.00     0.038 H 
BRANCH 127 129
ATOM    129  CD1 LEU d   1      -9.992   3.707  -9.139  0.00  0.00    -0.073 C 
ATOM    130  H81 LEU d   1     -10.249   2.639  -9.200  0.00  0.00     0.028 H 
ATOM    131  H82 LEU d   1     -10.206   4.079  -8.126  0.00  0.00     0.028 H 
ATOM    132  H83 LEU d   1      -8.923   3.840  -9.360  0.00  0.00     0.028 H 
ENDBRANCH 127 129
BRANCH 127 133
ATOM    133  CD2 LEU d   1     -12.312   4.248  -9.923  0.00  0.00    -0.073 C 
ATOM    134  H84 LEU d   1     -12.893   4.819 -10.662  0.00  0.00     0.028 H 
ATOM    135  H85 LEU d   1     -12.585   4.577  -8.909  0.00  0.00     0.028 H 
ATOM    136  H86 LEU d   1     -12.532   3.176 -10.033  0.00  0.00     0.028 H 
ENDBRANCH 127 133
ENDBRANCH 124 127
ENDBRANCH 108 124
ENDBRANCH 106 108
ENDBRANCH 102 104
BRANCH 102 137
ATOM    137  CB  SER d   1      -6.452   6.822  -5.854  0.00  0.00     0.044 C 
ATOM    138  H73 SER d   1      -5.523   6.417  -6.280  0.00  0.00     0.077 H 
ATOM    139  H74 SER d   1      -6.433   6.710  -4.760  0.00  0.00     0.077 H 
BRANCH 137 140
ATOM    140  OG  SER d   1      -6.538   8.201  -6.172  0.00  0.00    -0.398 OA
ATOM    141  H75 SER d   1      -5.787   8.656  -5.810  0.00  0.00     0.209 HD
ENDBRANCH 137 140
ENDBRANCH 102 137
ENDBRANCH 100 102
ENDBRANCH  87  98
ENDBRANCH  82  84
BRANCH  82 142
ATOM    142  CB  LEU d   1      -8.081   2.845  -0.519  0.00  0.00    -0.035 C 
ATOM    143  H55 LEU d   1      -8.953   2.512  -1.100  0.00  0.00     0.037 H 
ATOM    144  H56 LEU d   1      -8.047   3.944  -0.506  0.00  0.00     0.037 H 
BRANCH 142 145
ATOM    145  CG  LEU d   1      -8.279   2.372   0.924  0.00  0.00    -0.059 C 
ATOM    146  H57 LEU d   1      -7.354   2.571   1.484  0.00  0.00     0.038 H 
BRANCH 145 147
ATOM    147  CD1 LEU d   1      -9.401   3.134   1.568  0.00  0.00    -0.073 C 
ATOM    148  H58 LEU d   1      -9.534   2.786   2.603  0.00  0.00     0.028 H 
ATOM    149  H59 LEU d   1     -10.330   2.967   1.003  0.00  0.00     0.028 H 
ATOM    150  H60 LEU d   1      -9.161   4.208   1.570  0.00  0.00     0.028 H 
ENDBRANCH 145 147
BRANCH 145 151
ATOM    151  CD2 LEU d   1      -8.558   0.882   0.977  0.00  0.00    -0.073 C 
ATOM    152  H61 LEU d   1      -7.729   0.337   0.502  0.00  0.00     0.028 H 
ATOM    153  H62 LEU d   1      -9.494   0.665   0.441  0.00  0.00     0.028 H 
ATOM    154  H63 LEU d   1      -8.653   0.564   2.026  0.00  0.00     0.028 H 
ENDBRANCH 145 151
ENDBRANCH 142 145
ENDBRANCH  82 142
ENDBRANCH  80  82
ENDBRANCH   1  78
BRANCH   1 155
ATOM    155  CB  LYS d   1      -2.158   2.925  -0.622  0.00  0.00    -0.038 C 
ATOM    156  H42 LYS d   1      -1.968   2.018  -1.215  0.00  0.00     0.036 H 
ATOM    157  H43 LYS d   1      -1.289   3.132   0.020  0.00  0.00     0.036 H 
BRANCH 155 158
ATOM    158  CG  LYS d   1      -2.322   4.094  -1.587  0.00  0.00    -0.061 C 
ATOM    159  H44 LYS d   1      -3.134   3.858  -2.291  0.00  0.00     0.033 H 
ATOM    160  H45 LYS d   1      -1.382   4.227  -2.142  0.00  0.00     0.033 H 
BRANCH 158 161
ATOM    161  CD  LYS d   1      -2.658   5.402  -0.873  0.00  0.00    -0.043 C 
ATOM    162  H46 LYS d   1      -1.804   5.702  -0.247  0.00  0.00     0.035 H 
ATOM    163  H47 LYS d   1      -3.543   5.250  -0.238  0.00  0.00     0.035 H 
BRANCH 161 164
ATOM    164  CE  LYS d   1      -2.951   6.509  -1.886  0.00  0.00     0.080 C 
ATOM    165  H48 LYS d   1      -3.413   6.058  -2.776  0.00  0.00     0.075 H 
ATOM    166  H49 LYS d   1      -2.002   6.988  -2.168  0.00  0.00     0.075 H 
BRANCH 164 167
ATOM    167  NZ  LYS d   1      -3.874   7.557  -1.346  0.00  0.00    -0.079 N 
ATOM    168  H50 LYS d   1      -4.033   8.260  -2.051  0.00  0.00     0.274 HD
ATOM    169  H51 LYS d   1      -3.458   7.984  -0.533  0.00  0.00     0.274 HD
ATOM    170  H52 LYS d   1      -4.752   7.132  -1.090  0.00  0.00     0.274 HD
ENDBRANCH 164 167
ENDBRANCH 161 164
ENDBRANCH 158 161
ENDBRANCH 155 158
ENDBRANCH   1 155
TORSDOF 44
