REMARK  12 active torsions:
REMARK  status: ('A' for Active; 'I' for Inactive)
REMARK    1  A    between atoms: P1_2  and  C16_5 
REMARK    2  A    between atoms: C16_5  and  C15_6 
REMARK    3  A    between atoms: C15_6  and  C14_7 
REMARK    4  A    between atoms: C14_7  and  N2_8 
REMARK    5  A    between atoms: C14_7  and  C13_9 
REMARK       I    between atoms: C13_9  and  N1_11 
REMARK    6  A    between atoms: N1_11  and  C5_12 
REMARK    7  A    between atoms: C1_17  and  C7_18 
REMARK    8  A    between atoms: C7_18  and  C8_19 
REMARK    9  A    between atoms: C8_19  and  C9_20 
REMARK   10  A    between atoms: C9_20  and  C10_21 
REMARK   11  A    between atoms: C10_21  and  C11_22 
REMARK   12  A    between atoms: C11_22  and  C12_23 
ROOT
ATOM      1  C5  ML5 d   1       4.858  17.299  -7.543  0.00  0.00     0.035 A 
ATOM      2  C4  ML5 d   1       4.961  16.286  -6.581  0.00  0.00    -0.057 A 
ATOM      3  C3  ML5 d   1       5.834  16.428  -5.501  0.00  0.00    -0.080 A 
ATOM      4  C2  ML5 d   1       6.569  17.606  -5.342  0.00  0.00    -0.077 A 
ATOM      5  C6  ML5 d   1       5.587  18.481  -7.371  0.00  0.00    -0.051 A 
ATOM      6  C1  ML5 d   1       6.458  18.630  -6.286  0.00  0.00    -0.056 A 
ATOM      7  H10 ML5 d   1       4.361  15.389  -6.676  0.00  0.00     0.086 H 
ATOM      8  H11 ML5 d   1       5.942  15.622  -4.784  0.00  0.00     0.083 H 
ATOM      9  H12 ML5 d   1       7.225  17.725  -4.487  0.00  0.00     0.084 H 
ATOM     10  H13 ML5 d   1       5.476  19.289  -8.085  0.00  0.00     0.087 H 
ENDROOT
BRANCH   1  11
ATOM     11  N1  ML5 d   1       3.996  17.198  -8.589  0.00  0.00    -0.325 N 
ATOM     12  C13 ML5 d   1       3.886  16.134  -9.393  0.00  0.00     0.252 C 
ATOM     13  O1  ML5 d   1       4.276  15.017  -9.107  0.00  0.00    -0.271 OA
ATOM     14  H9  ML5 d   1       3.398  17.979  -8.772  0.00  0.00     0.169 HD
BRANCH  12  15
ATOM     15  C14 ML5 d   1       3.182  16.358 -10.701  0.00  0.00     0.176 C 
ATOM     16  H5  ML5 d   1       2.763  17.375 -10.677  0.00  0.00     0.099 H 
BRANCH  15  17
ATOM     17  C15 ML5 d   1       4.171  16.309 -11.872  0.00  0.00    -0.018 C 
ATOM     18  H3  ML5 d   1       4.115  17.265 -12.413  0.00  0.00     0.037 H 
ATOM     19  H4  ML5 d   1       5.184  16.176 -11.465  0.00  0.00     0.037 H 
BRANCH  17  20
ATOM     20  C16 ML5 d   1       3.896  15.175 -12.864  0.00  0.00     0.041 C 
ATOM     21  H1  ML5 d   1       4.839  14.650 -13.075  0.00  0.00     0.053 H 
ATOM     22  H2  ML5 d   1       3.179  14.473 -12.413  0.00  0.00     0.053 H 
BRANCH  20  23
ATOM     23  P1  ML5 d   1       3.207  15.798 -14.426  0.00  0.00     0.259 P 
ATOM     24  O4  ML5 d   1       3.019  17.282 -14.222  0.00  0.00    -0.640 OA
ATOM     25  O2  ML5 d   1       1.909  15.040 -14.614  0.00  0.00    -0.640 OA
ATOM     26  O3  ML5 d   1       4.263  15.465 -15.454  0.00  0.00    -0.640 OA
ENDBRANCH  20  23
ENDBRANCH  17  20
ENDBRANCH  15  17
BRANCH  15  27
ATOM     27  N2  ML5 d   1       2.035  15.419 -10.871  0.00  0.00    -0.066 N 
ATOM     28  H6  ML5 d   1       1.420  15.493 -10.076  0.00  0.00     0.275 HD
ATOM     29  H7  ML5 d   1       2.381  14.475 -10.941  0.00  0.00     0.275 HD
ATOM     30  H8  ML5 d   1       1.529  15.655 -11.710  0.00  0.00     0.275 HD
ENDBRANCH  15  27
ENDBRANCH  12  15
ENDBRANCH   1  11
BRANCH   6  31
ATOM     31  C7  ML5 d   1       7.240  19.917  -6.118  0.00  0.00    -0.041 C 
ATOM     32  H14 ML5 d   1       6.830  20.477  -5.265  0.00  0.00     0.040 H 
ATOM     33  H15 ML5 d   1       7.142  20.519  -7.034  0.00  0.00     0.040 H 
BRANCH  31  34
ATOM     34  C8  ML5 d   1       8.718  19.634  -5.864  0.00  0.00    -0.061 C 
ATOM     35  H16 ML5 d   1       9.171  19.232  -6.782  0.00  0.00     0.033 H 
ATOM     36  H17 ML5 d   1       8.809  18.893  -5.056  0.00  0.00     0.033 H 
BRANCH  34  37
ATOM     37  C9  ML5 d   1       9.456  20.907  -5.460  0.00  0.00    -0.065 C 
ATOM     38  H18 ML5 d   1       9.307  21.084  -4.385  0.00  0.00     0.033 H 
ATOM     39  H19 ML5 d   1       9.050  21.755  -6.031  0.00  0.00     0.033 H 
BRANCH  37  40
ATOM     40  C10 ML5 d   1      10.948  20.785  -5.743  0.00  0.00    -0.065 C 
ATOM     41  H20 ML5 d   1      11.089  20.385  -6.758  0.00  0.00     0.033 H 
ATOM     42  H21 ML5 d   1      11.397  20.097  -5.012  0.00  0.00     0.033 H 
BRANCH  40  43
ATOM     43  C11 ML5 d   1      11.639  22.139  -5.641  0.00  0.00    -0.069 C 
ATOM     44  H22 ML5 d   1      11.538  22.514  -4.612  0.00  0.00     0.032 H 
ATOM     45  H23 ML5 d   1      11.154  22.840  -6.336  0.00  0.00     0.032 H 
BRANCH  43  46
ATOM     46  C12 ML5 d   1      13.109  22.044  -5.986  0.00  0.00    -0.077 C 
ATOM     47  H24 ML5 d   1      13.571  23.039  -5.901  0.00  0.00     0.027 H 
ATOM     48  H25 ML5 d   1      13.221  21.675  -7.016  0.00  0.00     0.027 H 
ATOM     49  H26 ML5 d   1      13.604  21.349  -5.292  0.00  0.00     0.027 H 
ENDBRANCH  43  46
ENDBRANCH  40  43
ENDBRANCH  37  40
ENDBRANCH  34  37
ENDBRANCH  31  34
ENDBRANCH   6  31
TORSDOF 12
