REMARK WARNING: 32 MAX_TORS EXCEEDED!!!
REMARK  49 active torsions:
REMARK  status: ('A' for Active; 'I' for Inactive)
REMARK    1  A    between atoms: N_1  and  CA_2 
REMARK    2  A    between atoms: CA_2  and  C_3 
REMARK    3  A    between atoms: CA_2  and  CB_5 
REMARK       I    between atoms: C_3  and  N_9 
REMARK    4  A    between atoms: CB_5  and  CG_6 
REMARK    5  A    between atoms: CG_6  and  CD1_7 
REMARK    6  A    between atoms: CG_6  and  CD2_8 
REMARK    7  A    between atoms: N_9  and  CA_10 
REMARK    8  A    between atoms: CA_10  and  C_11 
REMARK    9  A    between atoms: CA_10  and  CB_13 
REMARK       I    between atoms: C_11  and  N_17 
REMARK   10  A    between atoms: CB_13  and  CG_14 
REMARK   11  A    between atoms: CG_14  and  CD1_15 
REMARK   12  A    between atoms: CG_14  and  CD2_16 
REMARK   13  A    between atoms: CA_18  and  C_19 
REMARK       I    between atoms: C_19  and  N_24 
REMARK   14  A    between atoms: N_24  and  CA_25 
REMARK   15  A    between atoms: CA_25  and  C_26 
REMARK   16  A    between atoms: CA_25  and  CB_28 
REMARK       I    between atoms: C_26  and  N_31 
REMARK   17  A    between atoms: CB_28  and  OG1_29 
REMARK   18  A    between atoms: CB_28  and  CG2_30 
REMARK   19  A    between atoms: N_31  and  CA_32 
REMARK   20  A    between atoms: CA_32  and  C_33 
REMARK   21  A    between atoms: CA_32  and  CB_35 
REMARK       I    between atoms: C_33  and  N_39 
REMARK   22  A    between atoms: CB_35  and  CG_36 
REMARK   23  A    between atoms: CG_36  and  CD1_37 
REMARK   24  A    between atoms: CG_36  and  CD2_38 
REMARK   25  A    between atoms: CA_40  and  C_41 
REMARK       I    between atoms: C_41  and  N_46 
REMARK   26  A    between atoms: N_46  and  CA_47 
REMARK   27  A    between atoms: CA_47  and  C_48 
REMARK   28  A    between atoms: CA_47  and  CB_50 
REMARK       I    between atoms: C_48  and  N_55 
REMARK   29  A    between atoms: CB_50  and  CG_51 
REMARK   30  A    between atoms: CG_51  and  CD_52 
REMARK   31  A    between atoms: CD_52  and  CE_53 
REMARK   32  A    between atoms: CE_53  and  NZ_54 
REMARK   33  A    between atoms: N_55  and  CA_56 
REMARK   34  A    between atoms: CA_56  and  C_57 
REMARK   35  A    between atoms: CA_56  and  CB_59 
REMARK       I    between atoms: C_57  and  N_63 
REMARK   36  A    between atoms: CB_59  and  CG_60 
REMARK   37  A    between atoms: CG_60  and  CD1_61 
REMARK   38  A    between atoms: CG_60  and  CD2_62 
REMARK   39  A    between atoms: CA_64  and  C_65 
REMARK       I    between atoms: C_65  and  N_70 
REMARK   40  A    between atoms: N_70  and  CA_71 
REMARK   41  A    between atoms: CA_71  and  C_72 
REMARK   42  A    between atoms: CA_71  and  CB_74 
REMARK       I    between atoms: C_72  and  N_76 
REMARK   43  A    between atoms: CB_74  and  OG_75 
REMARK   44  A    between atoms: N_76  and  CA_77 
REMARK   45  A    between atoms: CA_77  and  C_78 
REMARK   46  A    between atoms: CA_77  and  CB_80 
REMARK   47  A    between atoms: CB_80  and  CG_81 
REMARK   48  A    between atoms: CG_81  and  CD1_82 
REMARK   49  A    between atoms: CG_81  and  CD2_83 
ROOT
ATOM      1  C   LEU d   1      -8.509  -2.311  -9.866  0.00  0.00     0.243 C 
ATOM      2  O   LEU d   1      -8.315  -3.523  -9.692  0.00  0.00    -0.271 OA
ATOM      3  N   PRO d   1      -8.030  -1.377  -9.022  0.00  0.00    -0.337 N 
ATOM      4  CA  PRO d   1      -7.342  -1.849  -7.823  0.00  0.00     0.091 C 
ATOM      5  CB  PRO d   1      -7.012  -0.555  -7.068  0.00  0.00    -0.036 C 
ATOM      6  CG  PRO d   1      -6.917   0.480  -8.131  0.00  0.00    -0.048 C 
ATOM      7  CD  PRO d   1      -8.007   0.092  -9.120  0.00  0.00    -0.001 C 
ATOM      8  H50 PRO d   1      -6.429  -2.407  -8.077  0.00  0.00     0.087 H 
ATOM      9  H51 PRO d   1      -6.057  -0.650  -6.531  0.00  0.00     0.036 H 
ATOM     10  H52 PRO d   1      -7.811  -0.307  -6.354  0.00  0.00     0.036 H 
ATOM     11  H53 PRO d   1      -5.928   0.458  -8.611  0.00  0.00     0.035 H 
ATOM     12  H54 PRO d   1      -7.102   1.483  -7.718  0.00  0.00     0.035 H 
ATOM     13  H55 PRO d   1      -8.976   0.523  -8.830  0.00  0.00     0.064 H 
ATOM     14  H56 PRO d   1      -7.751   0.417 -10.139  0.00  0.00     0.064 H 
ENDROOT
BRANCH   4  15
ATOM     15  C   PRO d   1      -8.277  -2.725  -7.002  0.00  0.00     0.241 C 
ATOM     16  O   PRO d   1      -9.468  -2.429  -6.870  0.00  0.00    -0.271 OA
ATOM     17  N   LYS d   1      -7.740  -3.818  -6.478  0.00  0.00    -0.346 N 
ATOM     18  H57 LYS d   1      -6.774  -4.015  -6.643  0.00  0.00     0.163 HD
BRANCH  17  19
ATOM     19  CA  LYS d   1      -8.525  -4.737  -5.669  0.00  0.00     0.089 C 
ATOM     20  H58 LYS d   1      -9.345  -4.181  -5.191  0.00  0.00     0.087 H 
BRANCH  19  21
ATOM     21  C   LYS d   1      -7.629  -5.327  -4.595  0.00  0.00     0.241 C 
ATOM     22  O   LYS d   1      -6.545  -5.827  -4.887  0.00  0.00    -0.271 OA
ATOM     23  N   LEU d   1      -8.065  -5.239  -3.348  0.00  0.00    -0.346 N 
ATOM     24  H70 LEU d   1      -8.864  -4.678  -3.133  0.00  0.00     0.163 HD
BRANCH  23  25
ATOM     25  CA  LEU d   1      -7.372  -5.966  -2.288  0.00  0.00     0.090 C 
ATOM     26  H71 LEU d   1      -6.290  -5.922  -2.480  0.00  0.00     0.087 H 
BRANCH  25  27
ATOM     27  C   LEU d   1      -7.816  -7.426  -2.325  0.00  0.00     0.243 C 
ATOM     28  O   LEU d   1      -9.001  -7.708  -2.539  0.00  0.00    -0.271 OA
ATOM     29  N   PRO d   1      -6.866  -8.355  -2.107  0.00  0.00    -0.337 N 
ATOM     30  CA  PRO d   1      -7.173  -9.787  -2.118  0.00  0.00     0.091 C 
ATOM     31  CD  PRO d   1      -5.428  -8.091  -1.883  0.00  0.00    -0.001 C 
ATOM     32  CB  PRO d   1      -5.790 -10.442  -2.149  0.00  0.00    -0.036 C 
ATOM     33  H81 PRO d   1      -7.770 -10.058  -3.001  0.00  0.00     0.087 H 
ATOM     34  CG  PRO d   1      -4.884  -9.430  -1.442  0.00  0.00    -0.048 C 
ATOM     35  H82 PRO d   1      -5.458 -10.606  -3.185  0.00  0.00     0.036 H 
ATOM     36  H83 PRO d   1      -5.800 -11.401  -1.610  0.00  0.00     0.036 H 
ATOM     37  H84 PRO d   1      -3.838  -9.552  -1.759  0.00  0.00     0.035 H 
ATOM     38  H85 PRO d   1      -4.951  -9.540  -0.350  0.00  0.00     0.035 H 
ATOM     39  H86 PRO d   1      -5.286  -7.332  -1.099  0.00  0.00     0.064 H 
ATOM     40  H87 PRO d   1      -4.941  -7.756  -2.811  0.00  0.00     0.064 H 
BRANCH  30  41
ATOM     41  C   PRO d   1      -7.894 -10.210  -0.856  0.00  0.00     0.241 C 
ATOM     42  O   PRO d   1      -7.750  -9.561   0.181  0.00  0.00    -0.271 OA
ATOM     43  N   SER d   1      -8.645 -11.301  -0.934  0.00  0.00    -0.344 N 
ATOM     44  H88 SER d   1      -8.797 -11.731  -1.824  0.00  0.00     0.163 HD
BRANCH  43  45
ATOM     45  CA  SER d   1      -9.254 -11.885   0.258  0.00  0.00     0.109 C 
ATOM     46  H89 SER d   1      -9.813 -11.100   0.789  0.00  0.00     0.090 H 
BRANCH  45  47
ATOM     47  C   SER d   1      -8.171 -12.425   1.164  0.00  0.00     0.243 C 
ATOM     48  O   SER d   1      -7.111 -12.849   0.692  0.00  0.00    -0.271 OA
ATOM     49  N   LEU d   1      -8.452 -12.424   2.466  0.00  0.00    -0.345 N 
ATOM     50  H93 LEU d   1      -9.348 -12.103   2.771  0.00  0.00     0.163 HD
BRANCH  49  51
ATOM     51  CA  LEU d   1      -7.481 -12.881   3.460  0.00  0.00     0.096 C 
ATOM     52  H94 LEU d   1      -6.521 -13.034   2.946  0.00  0.00     0.089 H 
BRANCH  51  53
ATOM     53  C   LEU d   1      -7.884 -14.202   4.092  0.00  0.00     0.196 C 
ATOM     54  O   LEU d   1      -9.019 -14.669   3.955  0.00  0.00    -0.646 OA
ATOM     55  OXT LEU d   1      -7.067 -14.826   4.760  0.00  0.00    -0.646 OA
ENDBRANCH  51  53
BRANCH  51  56
ATOM     56  CB  LEU d   1      -7.278 -11.812   4.542  0.00  0.00    -0.034 C 
ATOM     57  H95 LEU d   1      -6.648 -12.247   5.332  0.00  0.00     0.037 H 
ATOM     58  H96 LEU d   1      -8.265 -11.560   4.957  0.00  0.00     0.037 H 
BRANCH  56  59
ATOM     59  CG  LEU d   1      -6.617 -10.511   4.076  0.00  0.00    -0.059 C 
ATOM     60  H97 LEU d   1      -7.164 -10.140   3.197  0.00  0.00     0.038 H 
BRANCH  59  61
ATOM     61  CD1 LEU d   1      -6.705  -9.477   5.170  0.00  0.00    -0.073 C 
ATOM     62  H98 LEU d   1      -6.230  -8.544   4.832  0.00  0.00     0.028 H 
ATOM     63  H99 LEU d   1      -6.188  -9.848   6.067  0.00  0.00     0.028 H 
ATOM     64 0H10 LEU d   1      -7.761  -9.284   5.409  0.00  0.00     0.028 H 
ENDBRANCH  59  61
BRANCH  59  65
ATOM     65  CD2 LEU d   1      -5.178 -10.730   3.679  0.00  0.00    -0.073 C 
ATOM     66 1H10 LEU d   1      -5.129 -11.486   2.881  0.00  0.00     0.028 H 
ATOM     67 2H10 LEU d   1      -4.606 -11.080   4.551  0.00  0.00     0.028 H 
ATOM     68 3H10 LEU d   1      -4.750  -9.784   3.315  0.00  0.00     0.028 H 
ENDBRANCH  59  65
ENDBRANCH  56  59
ENDBRANCH  51  56
ENDBRANCH  49  51
ENDBRANCH  45  47
BRANCH  45  69
ATOM     69  CB  SER d   1     -10.215 -13.019  -0.096  0.00  0.00     0.044 C 
ATOM     70  H90 SER d   1     -10.433 -13.605   0.809  0.00  0.00     0.077 H 
ATOM     71  H91 SER d   1      -9.747 -13.669  -0.850  0.00  0.00     0.077 H 
BRANCH  69  72
ATOM     72  OG  SER d   1     -11.422 -12.499  -0.615  0.00  0.00    -0.398 OA
ATOM     73  H92 SER d   1     -12.008 -13.215  -0.830  0.00  0.00     0.209 HD
ENDBRANCH  69  72
ENDBRANCH  45  69
ENDBRANCH  43  45
ENDBRANCH  30  41
ENDBRANCH  25  27
BRANCH  25  74
ATOM     74  CB  LEU d   1      -7.639  -5.342  -0.922  0.00  0.00    -0.035 C 
ATOM     75  H72 LEU d   1      -7.296  -6.051  -0.154  0.00  0.00     0.037 H 
ATOM     76  H73 LEU d   1      -8.725  -5.194  -0.825  0.00  0.00     0.037 H 
BRANCH  74  77
ATOM     77  CG  LEU d   1      -6.957  -3.999  -0.658  0.00  0.00    -0.059 C 
ATOM     78  H74 LEU d   1      -7.180  -3.324  -1.498  0.00  0.00     0.038 H 
BRANCH  77  79
ATOM     79  CD1 LEU d   1      -7.525  -3.384   0.614  0.00  0.00    -0.073 C 
ATOM     80  H75 LEU d   1      -7.035  -2.418   0.805  0.00  0.00     0.028 H 
ATOM     81  H76 LEU d   1      -7.343  -4.061   1.462  0.00  0.00     0.028 H 
ATOM     82  H77 LEU d   1      -8.607  -3.229   0.495  0.00  0.00     0.028 H 
ENDBRANCH  77  79
BRANCH  77  83
ATOM     83  CD2 LEU d   1      -5.449  -4.162  -0.575  0.00  0.00    -0.073 C 
ATOM     84  H78 LEU d   1      -5.076  -4.608  -1.509  0.00  0.00     0.028 H 
ATOM     85  H79 LEU d   1      -5.197  -4.819   0.271  0.00  0.00     0.028 H 
ATOM     86  H80 LEU d   1      -4.981  -3.178  -0.427  0.00  0.00     0.028 H 
ENDBRANCH  77  83
ENDBRANCH  74  77
ENDBRANCH  25  74
ENDBRANCH  23  25
ENDBRANCH  19  21
BRANCH  19  87
ATOM     87  CB  LYS d   1      -9.128  -5.863  -6.526  0.00  0.00    -0.038 C 
ATOM     88  H59 LYS d   1      -8.322  -6.559  -6.800  0.00  0.00     0.036 H 
ATOM     89  H60 LYS d   1      -9.552  -5.416  -7.437  0.00  0.00     0.036 H 
BRANCH  87  90
ATOM     90  CG  LYS d   1     -10.230  -6.655  -5.819  0.00  0.00    -0.061 C 
ATOM     91  H61 LYS d   1     -11.011  -5.954  -5.489  0.00  0.00     0.033 H 
ATOM     92  H62 LYS d   1      -9.795  -7.158  -4.943  0.00  0.00     0.033 H 
BRANCH  90  93
ATOM     93  CD  LYS d   1     -10.871  -7.712  -6.721  0.00  0.00    -0.043 C 
ATOM     94  H63 LYS d   1     -10.178  -8.558  -6.837  0.00  0.00     0.035 H 
ATOM     95  H64 LYS d   1     -11.078  -7.270  -7.707  0.00  0.00     0.035 H 
BRANCH  93  96
ATOM     96  CE  LYS d   1     -12.181  -8.213  -6.107  0.00  0.00     0.080 C 
ATOM     97  H65 LYS d   1     -12.735  -7.348  -5.715  0.00  0.00     0.075 H 
ATOM     98  H66 LYS d   1     -11.939  -8.898  -5.281  0.00  0.00     0.075 H 
BRANCH  96  99
ATOM     99  NZ  LYS d   1     -13.062  -8.939  -7.085  0.00  0.00    -0.079 N 
ATOM    100  H67 LYS d   1     -13.903  -9.241  -6.619  0.00  0.00     0.274 HD
ATOM    101  H68 LYS d   1     -12.572  -9.742  -7.447  0.00  0.00     0.274 HD
ATOM    102  H69 LYS d   1     -13.302  -8.321  -7.844  0.00  0.00     0.274 HD
ENDBRANCH  96  99
ENDBRANCH  93  96
ENDBRANCH  90  93
ENDBRANCH  87  90
ENDBRANCH  19  87
ENDBRANCH  17  19
ENDBRANCH   4  15
BRANCH   1 103
ATOM    103  CA  LEU d   1      -9.310  -1.823 -11.085  0.00  0.00     0.090 C 
ATOM    104  H40 LEU d   1      -9.165  -0.739 -11.198  0.00  0.00     0.087 H 
BRANCH 103 105
ATOM    105  N   LEU d   1      -8.862  -2.501 -12.309  0.00  0.00    -0.346 N 
ATOM    106  C   THR d   1      -7.585  -2.571 -12.684  0.00  0.00     0.243 C 
ATOM    107  O   THR d   1      -6.674  -1.963 -12.120  0.00  0.00    -0.271 OA
ATOM    108  H39 LEU d   1      -9.551  -2.933 -12.891  0.00  0.00     0.163 HD
BRANCH 106 109
ATOM    109  CA  THR d   1      -7.289  -3.459 -13.897  0.00  0.00     0.113 C 
ATOM    110  H33 THR d   1      -8.112  -3.369 -14.621  0.00  0.00     0.091 H 
BRANCH 109 111
ATOM    111  N   THR d   1      -6.050  -3.045 -14.539  0.00  0.00    -0.344 N 
ATOM    112  C   PRO d   1      -5.974  -1.987 -15.336  0.00  0.00     0.241 C 
ATOM    113  O   PRO d   1      -6.937  -1.274 -15.632  0.00  0.00    -0.271 OA
ATOM    114  H32 THR d   1      -5.222  -3.580 -14.373  0.00  0.00     0.163 HD
BRANCH 112 115
ATOM    115  CA  PRO d   1      -4.589  -1.690 -15.891  0.00  0.00     0.091 C 
ATOM    116  N   PRO d   1      -4.637  -1.388 -17.315  0.00  0.00    -0.337 N 
ATOM    117  C   LEU d   1      -5.192  -2.281 -18.163  0.00  0.00     0.243 C 
ATOM    118  CD  PRO d   1      -4.114  -0.042 -17.605  0.00  0.00    -0.001 C 
ATOM    119  O   LEU d   1      -5.684  -3.345 -17.782  0.00  0.00    -0.271 OA
ATOM    120  CG  PRO d   1      -4.252   0.650 -16.296  0.00  0.00    -0.048 C 
ATOM    121  H30 PRO d   1      -4.711   0.457 -18.383  0.00  0.00     0.064 H 
ATOM    122  H31 PRO d   1      -3.062  -0.085 -17.922  0.00  0.00     0.064 H 
ATOM    123  CB  PRO d   1      -4.039  -0.401 -15.269  0.00  0.00    -0.036 C 
ATOM    124  H28 PRO d   1      -3.495   1.442 -16.198  0.00  0.00     0.035 H 
ATOM    125  H29 PRO d   1      -5.256   1.087 -16.196  0.00  0.00     0.035 H 
ATOM    126  H26 PRO d   1      -2.968  -0.508 -15.044  0.00  0.00     0.036 H 
ATOM    127  H27 PRO d   1      -4.585  -0.155 -14.346  0.00  0.00     0.036 H 
ATOM    128  H25 PRO d   1      -3.922  -2.542 -15.694  0.00  0.00     0.087 H 
BRANCH 117 129
ATOM    129  CA  LEU d   1      -5.207  -1.924 -19.644  0.00  0.00     0.090 C 
ATOM    130  H15 LEU d   1      -4.306  -1.341 -19.888  0.00  0.00     0.087 H 
BRANCH 129 131
ATOM    131  N   LEU d   1      -5.197  -3.167 -20.430  0.00  0.00    -0.346 N 
ATOM    132  C   LEU d   1      -4.081  -3.875 -20.624  0.00  0.00     0.249 C 
ATOM    133  O   LEU d   1      -2.961  -3.458 -20.309  0.00  0.00    -0.271 OA
ATOM    134  H14 LEU d   1      -6.053  -3.493 -20.832  0.00  0.00     0.163 HD
BRANCH 132 135
ATOM    135  CA  LEU d   1      -4.226  -5.258 -21.283  0.00  0.00     0.176 C 
ATOM    136  H4  LEU d   1      -3.809  -5.987 -20.573  0.00  0.00     0.099 H 
BRANCH 135 137
ATOM    137  N   LEU d   1      -5.640  -5.687 -21.547  0.00  0.00    -0.066 N 
ATOM    138  H1  LEU d   1      -5.640  -6.599 -21.977  0.00  0.00     0.275 HD
ATOM    139  H2  LEU d   1      -6.082  -5.024 -22.164  0.00  0.00     0.275 HD
ATOM    140  H3  LEU d   1      -6.147  -5.726 -20.677  0.00  0.00     0.275 HD
ENDBRANCH 135 137
BRANCH 135 141
ATOM    141  CB  LEU d   1      -3.380  -5.331 -22.558  0.00  0.00    -0.028 C 
ATOM    142  H5  LEU d   1      -2.365  -4.999 -22.296  0.00  0.00     0.037 H 
ATOM    143  H6  LEU d   1      -3.820  -4.630 -23.283  0.00  0.00     0.037 H 
BRANCH 141 144
ATOM    144  CG  LEU d   1      -3.249  -6.687 -23.258  0.00  0.00    -0.059 C 
ATOM    145  H7  LEU d   1      -4.243  -6.965 -23.639  0.00  0.00     0.038 H 
BRANCH 144 146
ATOM    146  CD1 LEU d   1      -2.299  -6.580 -24.447  0.00  0.00    -0.073 C 
ATOM    147  H8  LEU d   1      -2.215  -7.560 -24.939  0.00  0.00     0.028 H 
ATOM    148  H9  LEU d   1      -1.307  -6.260 -24.096  0.00  0.00     0.028 H 
ATOM    149  H10 LEU d   1      -2.690  -5.843 -25.163  0.00  0.00     0.028 H 
ENDBRANCH 144 146
BRANCH 144 150
ATOM    150  CD2 LEU d   1      -2.792  -7.789 -22.310  0.00  0.00    -0.073 C 
ATOM    151  H11 LEU d   1      -3.487  -7.853 -21.460  0.00  0.00     0.028 H 
ATOM    152  H12 LEU d   1      -1.781  -7.560 -21.941  0.00  0.00     0.028 H 
ATOM    153  H13 LEU d   1      -2.778  -8.750 -22.845  0.00  0.00     0.028 H 
ENDBRANCH 144 150
ENDBRANCH 141 144
ENDBRANCH 135 141
ENDBRANCH 132 135
ENDBRANCH 129 131
BRANCH 129 154
ATOM    154  CB  LEU d   1      -6.447  -1.068 -19.947  0.00  0.00    -0.035 C 
ATOM    155  H16 LEU d   1      -6.489  -0.294 -19.167  0.00  0.00     0.037 H 
ATOM    156  H17 LEU d   1      -7.317  -1.734 -19.850  0.00  0.00     0.037 H 
BRANCH 154 157
ATOM    157  CG  LEU d   1      -6.603  -0.342 -21.289  0.00  0.00    -0.059 C 
ATOM    158  H18 LEU d   1      -6.482  -1.078 -22.097  0.00  0.00     0.038 H 
BRANCH 157 159
ATOM    159  CD1 LEU d   1      -8.011   0.256 -21.377  0.00  0.00    -0.073 C 
ATOM    160  H19 LEU d   1      -8.128   0.778 -22.338  0.00  0.00     0.028 H 
ATOM    161  H20 LEU d   1      -8.159   0.969 -20.552  0.00  0.00     0.028 H 
ATOM    162  H21 LEU d   1      -8.757  -0.549 -21.304  0.00  0.00     0.028 H 
ENDBRANCH 157 159
BRANCH 157 163
ATOM    163  CD2 LEU d   1      -5.541   0.756 -21.478  0.00  0.00    -0.073 C 
ATOM    164  H22 LEU d   1      -4.537   0.311 -21.412  0.00  0.00     0.028 H 
ATOM    165  H23 LEU d   1      -5.657   1.517 -20.692  0.00  0.00     0.028 H 
ATOM    166  H24 LEU d   1      -5.670   1.225 -22.465  0.00  0.00     0.028 H 
ENDBRANCH 157 163
ENDBRANCH 154 157
ENDBRANCH 129 154
ENDBRANCH 117 129
ENDBRANCH 112 115
ENDBRANCH 109 111
BRANCH 109 167
ATOM    167  CB  THR d   1      -7.188  -4.919 -13.424  0.00  0.00     0.060 C 
ATOM    168  H34 THR d   1      -8.049  -5.155 -12.781  0.00  0.00     0.086 H 
BRANCH 167 169
ATOM    169  OG1 THR d   1      -5.970  -5.073 -12.678  0.00  0.00    -0.393 OA
ATOM    170  H35 THR d   1      -5.894  -5.972 -12.379  0.00  0.00     0.210 HD
ENDBRANCH 167 169
BRANCH 167 171
ATOM    171  CG2 THR d   1      -7.172  -5.876 -14.618  0.00  0.00    -0.050 C 
ATOM    172  H36 THR d   1      -7.099  -6.912 -14.256  0.00  0.00     0.031 H 
ATOM    173  H37 THR d   1      -6.306  -5.650 -15.258  0.00  0.00     0.031 H 
ATOM    174  H38 THR d   1      -8.099  -5.754 -15.198  0.00  0.00     0.031 H 
ENDBRANCH 167 171
ENDBRANCH 109 167
ENDBRANCH 106 109
ENDBRANCH 103 105
BRANCH 103 175
ATOM    175  CB  LEU d   1     -10.804  -2.119 -10.876  0.00  0.00    -0.035 C 
ATOM    176  H41 LEU d   1     -10.873  -3.203 -10.699  0.00  0.00     0.037 H 
ATOM    177  H42 LEU d   1     -11.295  -1.871 -11.828  0.00  0.00     0.037 H 
BRANCH 175 178
ATOM    178  CG  LEU d   1     -11.653  -1.463  -9.785  0.00  0.00    -0.059 C 
ATOM    179  H43 LEU d   1     -11.149  -1.614  -8.819  0.00  0.00     0.038 H 
BRANCH 178 180
ATOM    180  CD1 LEU d   1     -11.808   0.053 -10.005  0.00  0.00    -0.073 C 
ATOM    181  H44 LEU d   1     -12.424   0.479  -9.199  0.00  0.00     0.028 H 
ATOM    182  H45 LEU d   1     -12.296   0.235 -10.974  0.00  0.00     0.028 H 
ATOM    183  H46 LEU d   1     -10.816   0.528  -9.999  0.00  0.00     0.028 H 
ENDBRANCH 178 180
BRANCH 178 184
ATOM    184  CD2 LEU d   1     -13.018  -2.153  -9.733  0.00  0.00    -0.073 C 
ATOM    185  H47 LEU d   1     -12.877  -3.232  -9.575  0.00  0.00     0.028 H 
ATOM    186  H48 LEU d   1     -13.549  -1.987 -10.682  0.00  0.00     0.028 H 
ATOM    187  H49 LEU d   1     -13.609  -1.735  -8.904  0.00  0.00     0.028 H 
ENDBRANCH 178 184
ENDBRANCH 175 178
ENDBRANCH 103 175
ENDBRANCH   1 103
TORSDOF 49
