REMARK WARNING: 32 MAX_TORS EXCEEDED!!!
REMARK  62 active torsions:
REMARK  status: ('A' for Active; 'I' for Inactive)
REMARK    1  A    between atoms: N_1  and  CA_2 
REMARK    2  A    between atoms: CA_2  and  C_3 
REMARK    3  A    between atoms: CA_2  and  CB_5 
REMARK       I    between atoms: C_3  and  N_8 
REMARK    4  A    between atoms: CB_5  and  OG1_6 
REMARK    5  A    between atoms: CB_5  and  CG2_7 
REMARK    6  A    between atoms: N_8  and  CA_9 
REMARK    7  A    between atoms: CA_9  and  C_10 
REMARK    8  A    between atoms: CA_9  and  CB_12 
REMARK       I    between atoms: C_10  and  N_16 
REMARK    9  A    between atoms: CB_12  and  CG_13 
REMARK   10  A    between atoms: CG_13  and  CD1_14 
REMARK   11  A    between atoms: CG_13  and  CD2_15 
REMARK   12  A    between atoms: N_16  and  CA_17 
REMARK   13  A    between atoms: CA_17  and  C_18 
REMARK   14  A    between atoms: CA_17  and  CB_20 
REMARK       I    between atoms: C_18  and  N_23 
REMARK   15  A    between atoms: CB_20  and  CG1_21 
REMARK   16  A    between atoms: CB_20  and  CG2_22 
REMARK   17  A    between atoms: N_23  and  CA_24 
REMARK   18  A    between atoms: CA_24  and  C_25 
REMARK   19  A    between atoms: CA_24  and  CB_27 
REMARK       I    between atoms: C_25  and  N_29 
REMARK   20  A    between atoms: CB_27  and  OG_28 
REMARK   21  A    between atoms: N_29  and  CA_30 
REMARK   22  A    between atoms: CA_30  and  C_31 
REMARK   23  A    between atoms: CA_30  and  CB_33 
REMARK       I    between atoms: C_31  and  N_37 
REMARK   24  A    between atoms: CB_33  and  CG_34 
REMARK   25  A    between atoms: CG_34  and  SD_35 
REMARK   26  A    between atoms: SD_35  and  CE_36 
REMARK   27  A    between atoms: CA_38  and  C_39 
REMARK       I    between atoms: C_39  and  N_44 
REMARK   28  A    between atoms: CA_45  and  C_46 
REMARK       I    between atoms: C_46  and  N_51 
REMARK   29  A    between atoms: N_51  and  CA_52 
REMARK   30  A    between atoms: CA_52  and  C_53 
REMARK   31  A    between atoms: CA_52  and  CB_55 
REMARK       I    between atoms: C_53  and  N_59 
REMARK   32  A    between atoms: CB_55  and  CG_56 
REMARK   33  A    between atoms: CG_56  and  CD1_57 
REMARK   34  A    between atoms: CG_56  and  CD2_58 
REMARK   35  A    between atoms: CA_60  and  C_61 
REMARK       I    between atoms: C_61  and  N_66 
REMARK   36  A    between atoms: N_66  and  CA_67 
REMARK   37  A    between atoms: CA_67  and  C_68 
REMARK       I    between atoms: C_68  and  N_70 
REMARK   38  A    between atoms: N_70  and  CA_71 
REMARK   39  A    between atoms: CA_71  and  C_72 
REMARK   40  A    between atoms: CA_71  and  CB_74 
REMARK       I    between atoms: C_72  and  N_78 
REMARK   41  A    between atoms: CB_74  and  CG_75 
REMARK   42  A    between atoms: CG_75  and  CD1_76 
REMARK   43  A    between atoms: CG_75  and  CD2_77 
REMARK   44  A    between atoms: N_78  and  CA_79 
REMARK   45  A    between atoms: CA_79  and  C_80 
REMARK   46  A    between atoms: CA_79  and  CB_82 
REMARK       I    between atoms: C_80  and  N_86 
REMARK   47  A    between atoms: CB_82  and  CG_83 
REMARK   48  A    between atoms: N_86  and  CA_87 
REMARK   49  A    between atoms: CA_87  and  C_88 
REMARK   50  A    between atoms: CA_87  and  CB_90 
REMARK       I    between atoms: C_88  and  N_94 
REMARK   51  A    between atoms: CB_90  and  CG_91 
REMARK   52  A    between atoms: CG_91  and  CD1_92 
REMARK   53  A    between atoms: CG_91  and  CD2_93 
REMARK   54  A    between atoms: N_94  and  CA_95 
REMARK   55  A    between atoms: CA_95  and  C_96 
REMARK   56  A    between atoms: CA_95  and  CB_98 
REMARK       I    between atoms: C_96  and  N_99 
REMARK   57  A    between atoms: N_99  and  CA_100 
REMARK   58  A    between atoms: CA_100  and  C_101 
REMARK       I    between atoms: C_101  and  N_103 
REMARK   59  A    between atoms: N_103  and  CA_104 
REMARK   60  A    between atoms: CA_104  and  C_105 
REMARK   61  A    between atoms: CA_104  and  CB_107 
REMARK   62  A    between atoms: CB_107  and  OG_108 
ROOT
ATOM      1  CA  LEU d   1      -3.508 -13.975   4.119  0.00  0.00     0.090 C 
ATOM      2  H59 LEU d   1      -4.477 -13.486   4.298  0.00  0.00     0.087 H 
ENDROOT
BRANCH   1   3
ATOM      3  N   LEU d   1      -3.340 -14.252   2.684  0.00  0.00    -0.346 N 
ATOM      4  C   PRO d   1      -3.698 -13.346   1.780  0.00  0.00     0.241 C 
ATOM      5  O   PRO d   1      -4.432 -12.387   2.039  0.00  0.00    -0.271 OA
ATOM      6  H58 LEU d   1      -2.955 -15.126   2.388  0.00  0.00     0.163 HD
BRANCH   4   7
ATOM      7  CA  PRO d   1      -3.139 -13.537   0.369  0.00  0.00     0.091 C 
ATOM      8  N   PRO d   1      -3.990 -12.925  -0.637  0.00  0.00    -0.337 N 
ATOM      9  C   PRO d   1      -5.137 -13.509  -1.029  0.00  0.00     0.243 C 
ATOM     10  CD  PRO d   1      -3.427 -11.660  -1.139  0.00  0.00    -0.001 C 
ATOM     11  O   PRO d   1      -5.489 -14.621  -0.635  0.00  0.00    -0.271 OA
ATOM     12  CG  PRO d   1      -2.244 -11.426  -0.211  0.00  0.00    -0.048 C 
ATOM     13  H56 PRO d   1      -4.159 -10.842  -1.062  0.00  0.00     0.064 H 
ATOM     14  H57 PRO d   1      -3.097 -11.760  -2.184  0.00  0.00     0.064 H 
ATOM     15  CB  PRO d   1      -1.826 -12.752   0.231  0.00  0.00    -0.036 C 
ATOM     16  H54 PRO d   1      -1.426 -10.925  -0.750  0.00  0.00     0.035 H 
ATOM     17  H55 PRO d   1      -2.547 -10.812   0.650  0.00  0.00     0.035 H 
ATOM     18  H52 PRO d   1      -1.168 -13.222  -0.515  0.00  0.00     0.036 H 
ATOM     19  H53 PRO d   1      -1.303 -12.694   1.197  0.00  0.00     0.036 H 
ATOM     20  H51 PRO d   1      -2.994 -14.608   0.167  0.00  0.00     0.087 H 
BRANCH   9  21
ATOM     21  CA  PRO d   1      -6.025 -12.728  -2.000  0.00  0.00     0.092 C 
ATOM     22  N   PRO d   1      -6.837 -13.639  -2.809  0.00  0.00    -0.337 N 
ATOM     23  C   MET d   1      -6.200 -14.429  -3.695  0.00  0.00     0.243 C 
ATOM     24  CD  PRO d   1      -8.283 -13.465  -2.571  0.00  0.00    -0.001 C 
ATOM     25  O   MET d   1      -4.977 -14.409  -3.842  0.00  0.00    -0.271 OA
ATOM     26  CG  PRO d   1      -8.340 -12.173  -1.844  0.00  0.00    -0.048 C 
ATOM     27  H49 PRO d   1      -8.685 -14.284  -1.957  0.00  0.00     0.064 H 
ATOM     28  H50 PRO d   1      -8.838 -13.411  -3.519  0.00  0.00     0.064 H 
ATOM     29  CB  PRO d   1      -7.060 -11.922  -1.201  0.00  0.00    -0.036 C 
ATOM     30  H47 PRO d   1      -8.559 -11.362  -2.554  0.00  0.00     0.035 H 
ATOM     31  H48 PRO d   1      -9.131 -12.216  -1.081  0.00  0.00     0.035 H 
ATOM     32  H45 PRO d   1      -6.819 -10.849  -1.234  0.00  0.00     0.036 H 
ATOM     33  H46 PRO d   1      -7.084 -12.260  -0.155  0.00  0.00     0.036 H 
ATOM     34  H44 PRO d   1      -5.408 -12.075  -2.635  0.00  0.00     0.087 H 
BRANCH  23  35
ATOM     35  CA  MET d   1      -7.045 -15.394  -4.524  0.00  0.00     0.090 C 
ATOM     36  H36 MET d   1      -8.111 -15.188  -4.346  0.00  0.00     0.087 H 
BRANCH  35  37
ATOM     37  N   MET d   1      -6.755 -15.194  -5.952  0.00  0.00    -0.346 N 
ATOM     38  C   SER d   1      -6.948 -14.011  -6.519  0.00  0.00     0.243 C 
ATOM     39  O   SER d   1      -7.367 -13.045  -5.895  0.00  0.00    -0.271 OA
ATOM     40  H35 MET d   1      -6.410 -15.956  -6.500  0.00  0.00     0.163 HD
BRANCH  38  41
ATOM     41  CA  SER d   1      -6.575 -13.891  -7.997  0.00  0.00     0.109 C 
ATOM     42  H31 SER d   1      -6.310 -14.890  -8.374  0.00  0.00     0.090 H 
BRANCH  41  43
ATOM     43  N   SER d   1      -7.694 -13.374  -8.772  0.00  0.00    -0.344 N 
ATOM     44  C   VAL d   1      -8.462 -14.171  -9.512  0.00  0.00     0.241 C 
ATOM     45  O   VAL d   1      -8.378 -15.400  -9.510  0.00  0.00    -0.271 OA
ATOM     46  H30 SER d   1      -7.891 -12.394  -8.748  0.00  0.00     0.163 HD
BRANCH  44  47
ATOM     47  CA  VAL d   1      -9.478 -13.455 -10.403  0.00  0.00     0.092 C 
ATOM     48  H22 VAL d   1      -8.985 -12.548 -10.782  0.00  0.00     0.088 H 
BRANCH  47  49
ATOM     49  N   VAL d   1      -9.846 -14.252 -11.588  0.00  0.00    -0.346 N 
ATOM     50  C   LEU d   1      -9.131 -14.263 -12.717  0.00  0.00     0.241 C 
ATOM     51  O   LEU d   1      -8.041 -13.690 -12.851  0.00  0.00    -0.271 OA
ATOM     52  H21 VAL d   1     -10.673 -14.813 -11.544  0.00  0.00     0.163 HD
BRANCH  50  53
ATOM     53  CA  LEU d   1      -9.733 -15.041 -13.882  0.00  0.00     0.089 C 
ATOM     54  H11 LEU d   1     -10.646 -15.555 -13.546  0.00  0.00     0.087 H 
BRANCH  53  55
ATOM     55  N   LEU d   1     -10.072 -14.073 -14.929  0.00  0.00    -0.346 N 
ATOM     56  C   THR d   1     -11.287 -13.986 -15.464  0.00  0.00     0.251 C 
ATOM     57  O   THR d   1     -12.197 -14.777 -15.210  0.00  0.00    -0.271 OA
ATOM     58  H10 LEU d   1      -9.360 -13.451 -15.255  0.00  0.00     0.163 HD
BRANCH  56  59
ATOM     59  CA  THR d   1     -11.505 -12.840 -16.452  0.00  0.00     0.199 C 
ATOM     60  H4  THR d   1     -10.609 -12.202 -16.447  0.00  0.00     0.103 H 
BRANCH  59  61
ATOM     61  N   THR d   1     -11.693 -13.363 -17.839  0.00  0.00    -0.064 N 
ATOM     62  H1  THR d   1     -10.891 -13.914 -18.102  0.00  0.00     0.275 HD
ATOM     63  H2  THR d   1     -11.794 -12.591 -18.479  0.00  0.00     0.275 HD
ATOM     64  H3  THR d   1     -12.521 -13.937 -17.872  0.00  0.00     0.275 HD
ENDBRANCH  59  61
BRANCH  59  65
ATOM     65  CB  THR d   1     -12.718 -11.981 -15.999  0.00  0.00     0.068 C 
ATOM     66  H5  THR d   1     -13.623 -12.604 -16.039  0.00  0.00     0.086 H 
BRANCH  65  67
ATOM     67  OG1 THR d   1     -12.881 -10.865 -16.886  0.00  0.00    -0.393 OA
ATOM     68  H6  THR d   1     -13.624 -10.344 -16.604  0.00  0.00     0.210 HD
ENDBRANCH  65  67
BRANCH  65  69
ATOM     69  CG2 THR d   1     -12.536 -11.472 -14.565  0.00  0.00    -0.050 C 
ATOM     70  H7  THR d   1     -13.410 -10.869 -14.276  0.00  0.00     0.031 H 
ATOM     71  H8  THR d   1     -11.629 -10.853 -14.508  0.00  0.00     0.031 H 
ATOM     72  H9  THR d   1     -12.439 -12.328 -13.881  0.00  0.00     0.031 H 
ENDBRANCH  65  69
ENDBRANCH  59  65
ENDBRANCH  56  59
ENDBRANCH  53  55
BRANCH  53  73
ATOM     73  CB  LEU d   1      -8.745 -16.086 -14.420  0.00  0.00    -0.035 C 
ATOM     74  H12 LEU d   1      -7.781 -15.570 -14.545  0.00  0.00     0.037 H 
ATOM     75  H13 LEU d   1      -9.124 -16.398 -15.404  0.00  0.00     0.037 H 
BRANCH  73  76
ATOM     76  CG  LEU d   1      -8.453 -17.372 -13.638  0.00  0.00    -0.059 C 
ATOM     77  H14 LEU d   1      -9.401 -17.719 -13.201  0.00  0.00     0.038 H 
BRANCH  76  78
ATOM     78  CD1 LEU d   1      -7.922 -18.476 -14.552  0.00  0.00    -0.073 C 
ATOM     79  H15 LEU d   1      -7.724 -19.380 -13.958  0.00  0.00     0.028 H 
ATOM     80  H16 LEU d   1      -6.990 -18.140 -15.029  0.00  0.00     0.028 H 
ATOM     81  H17 LEU d   1      -8.670 -18.702 -15.326  0.00  0.00     0.028 H 
ENDBRANCH  76  78
BRANCH  76  82
ATOM     82  CD2 LEU d   1      -7.474 -17.129 -12.501  0.00  0.00    -0.073 C 
ATOM     83  H18 LEU d   1      -7.862 -16.334 -11.847  0.00  0.00     0.028 H 
ATOM     84  H19 LEU d   1      -6.501 -16.823 -12.914  0.00  0.00     0.028 H 
ATOM     85  H20 LEU d   1      -7.351 -18.054 -11.919  0.00  0.00     0.028 H 
ENDBRANCH  76  82
ENDBRANCH  73  76
ENDBRANCH  53  73
ENDBRANCH  50  53
ENDBRANCH  47  49
BRANCH  47  86
ATOM     86  CB  VAL d   1     -10.714 -12.976  -9.568  0.00  0.00    -0.033 C 
ATOM     87  H23 VAL d   1     -10.335 -12.418  -8.699  0.00  0.00     0.042 H 
BRANCH  86  88
ATOM     88  CG1 VAL d   1     -11.585 -12.026 -10.400  0.00  0.00    -0.071 C 
ATOM     89  H24 VAL d   1     -12.447 -11.699  -9.800  0.00  0.00     0.028 H 
ATOM     90  H25 VAL d   1     -11.941 -12.549 -11.300  0.00  0.00     0.028 H 
ATOM     91  H26 VAL d   1     -10.991 -11.149 -10.696  0.00  0.00     0.028 H 
ENDBRANCH  86  88
BRANCH  86  92
ATOM     92  CG2 VAL d   1     -11.542 -14.137  -9.045  0.00  0.00    -0.071 C 
ATOM     93  H27 VAL d   1     -10.902 -14.806  -8.452  0.00  0.00     0.028 H 
ATOM     94  H28 VAL d   1     -11.969 -14.694  -9.892  0.00  0.00     0.028 H 
ATOM     95  H29 VAL d   1     -12.355 -13.752  -8.412  0.00  0.00     0.028 H 
ENDBRANCH  86  92
ENDBRANCH  47  86
ENDBRANCH  44  47
ENDBRANCH  41  43
BRANCH  41  96
ATOM     96  CB  SER d   1      -5.371 -12.951  -8.179  0.00  0.00     0.044 C 
ATOM     97  H32 SER d   1      -5.603 -11.980  -7.717  0.00  0.00     0.077 H 
ATOM     98  H33 SER d   1      -5.186 -12.811  -9.254  0.00  0.00     0.077 H 
BRANCH  96  99
ATOM     99  OG  SER d   1      -4.202 -13.482  -7.575  0.00  0.00    -0.398 OA
ATOM    100  H34 SER d   1      -4.354 -13.601  -6.645  0.00  0.00     0.209 HD
ENDBRANCH  96  99
ENDBRANCH  41  96
ENDBRANCH  38  41
ENDBRANCH  35  37
BRANCH  35 101
ATOM    101  CB  MET d   1      -6.739 -16.835  -4.090  0.00  0.00    -0.030 C 
ATOM    102  H37 MET d   1      -5.673 -17.033  -4.278  0.00  0.00     0.037 H 
ATOM    103  H38 MET d   1      -7.351 -17.516  -4.699  0.00  0.00     0.037 H 
BRANCH 101 104
ATOM    104  CG  MET d   1      -7.029 -17.123  -2.605  0.00  0.00    -0.021 C 
ATOM    105  H39 MET d   1      -6.524 -16.361  -1.994  0.00  0.00     0.049 H 
ATOM    106  H40 MET d   1      -6.630 -18.117  -2.355  0.00  0.00     0.049 H 
BRANCH 104 107
ATOM    107  SD  MET d   1      -8.782 -17.096  -2.221  0.00  0.00    -0.173 SA
BRANCH 107 108
ATOM    108  CE  MET d   1      -9.196 -18.756  -2.717  0.00  0.00    -0.035 C 
ATOM    109  H41 MET d   1     -10.269 -18.932  -2.550  0.00  0.00     0.041 H 
ATOM    110  H42 MET d   1      -8.610 -19.473  -2.123  0.00  0.00     0.041 H 
ATOM    111  H43 MET d   1      -8.965 -18.888  -3.784  0.00  0.00     0.041 H 
ENDBRANCH 107 108
ENDBRANCH 104 107
ENDBRANCH 101 104
ENDBRANCH  35 101
ENDBRANCH  23  35
ENDBRANCH   9  21
ENDBRANCH   4   7
ENDBRANCH   1   3
BRANCH   1 112
ATOM    112  C   LEU d   1      -2.375 -13.043   4.511  0.00  0.00     0.243 C 
ATOM    113  O   LEU d   1      -1.215 -13.337   4.207  0.00  0.00    -0.271 OA
ATOM    114  N   PRO d   1      -2.695 -11.913   5.167  0.00  0.00    -0.337 N 
ATOM    115  CA  PRO d   1      -1.677 -10.902   5.455  0.00  0.00     0.091 C 
ATOM    116  CD  PRO d   1      -4.018 -11.499   5.681  0.00  0.00    -0.001 C 
ATOM    117  CB  PRO d   1      -2.508  -9.712   5.947  0.00  0.00    -0.036 C 
ATOM    118  H69 PRO d   1      -1.130 -10.644   4.536  0.00  0.00     0.087 H 
ATOM    119  CG  PRO d   1      -3.670 -10.347   6.635  0.00  0.00    -0.048 C 
ATOM    120  H70 PRO d   1      -2.844  -9.093   5.102  0.00  0.00     0.036 H 
ATOM    121  H71 PRO d   1      -1.929  -9.093   6.648  0.00  0.00     0.036 H 
ATOM    122  H72 PRO d   1      -4.509  -9.643   6.734  0.00  0.00     0.035 H 
ATOM    123  H73 PRO d   1      -3.388 -10.723   7.630  0.00  0.00     0.035 H 
ATOM    124  H74 PRO d   1      -4.509 -12.323   6.219  0.00  0.00     0.064 H 
ATOM    125  H75 PRO d   1      -4.669 -11.154   4.865  0.00  0.00     0.064 H 
BRANCH 115 126
ATOM    126  C   PRO d   1      -0.667 -11.325   6.522  0.00  0.00     0.241 C 
ATOM    127  O   PRO d   1      -0.986 -12.120   7.413  0.00  0.00    -0.271 OA
ATOM    128  N   GLY d   1       0.545 -10.770   6.431  0.00  0.00    -0.351 N 
ATOM    129  H76 GLY d   1       0.771 -10.230   5.620  0.00  0.00     0.163 HD
BRANCH 128 130
ATOM    130  CA  GLY d   1       1.552 -10.928   7.481  0.00  0.00     0.069 C 
ATOM    131  H77 GLY d   1       2.490 -10.456   7.152  0.00  0.00     0.078 H 
ATOM    132  H78 GLY d   1       1.723 -12.001   7.655  0.00  0.00     0.078 H 
BRANCH 130 133
ATOM    133  C   GLY d   1       1.101 -10.281   8.781  0.00  0.00     0.236 C 
ATOM    134  O   GLY d   1       0.547  -9.173   8.783  0.00  0.00    -0.272 OA
ATOM    135  N   LEU d   1       1.355 -10.973   9.889  0.00  0.00    -0.346 N 
ATOM    136  H79 LEU d   1       1.856 -11.836   9.821  0.00  0.00     0.163 HD
BRANCH 135 137
ATOM    137  CA  LEU d   1       0.918 -10.501  11.207  0.00  0.00     0.089 C 
ATOM    138  H80 LEU d   1       0.166  -9.716  11.043  0.00  0.00     0.087 H 
BRANCH 137 139
ATOM    139  C   LEU d   1       2.049  -9.878  11.991  0.00  0.00     0.241 C 
ATOM    140  O   LEU d   1       2.238 -10.109  13.192  0.00  0.00    -0.271 OA
ATOM    141  N   ASP d   1       2.807  -9.073  11.280  0.00  0.00    -0.346 N 
ATOM    142  H90 ASP d   1       2.773  -9.116  10.281  0.00  0.00     0.163 HD
BRANCH 141 143
ATOM    143  CA  ASP d   1       3.686  -8.130  11.924  0.00  0.00     0.098 C 
ATOM    144  H91 ASP d   1       3.447  -8.105  12.997  0.00  0.00     0.088 H 
BRANCH 143 145
ATOM    145  C   ASP d   1       3.390  -6.751  11.342  0.00  0.00     0.241 C 
ATOM    146  O   ASP d   1       2.349  -6.545  10.672  0.00  0.00    -0.271 OA
ATOM    147  N   LEU d   1       4.294  -5.815  11.598  0.00  0.00    -0.346 N 
ATOM    148  H94 LEU d   1       5.162  -6.077  12.020  0.00  0.00     0.163 HD
BRANCH 147 149
ATOM    149  CA  LEU d   1       4.052  -4.419  11.280  0.00  0.00     0.089 C 
ATOM    150  H95 LEU d   1       2.963  -4.264  11.261  0.00  0.00     0.087 H 
BRANCH 149 151
ATOM    151  C   LEU d   1       4.593  -4.028   9.909  0.00  0.00     0.241 C 
ATOM    152  O   LEU d   1       4.411  -2.888   9.478  0.00  0.00    -0.271 OA
ATOM    153  N   LYS d   1       5.244  -4.971   9.225  0.00  0.00    -0.346 N 
ATOM    154 5H10 LYS d   1       5.325  -5.887   9.617  0.00  0.00     0.163 HD
BRANCH 153 155
ATOM    155  CA  LYS d   1       5.845  -4.700   7.912  0.00  0.00     0.086 C 
ATOM    156 6H10 LYS d   1       6.658  -3.975   8.067  0.00  0.00     0.086 H 
BRANCH 155 157
ATOM    157  C   LYS d   1       4.849  -4.069   6.929  0.00  0.00     0.240 C 
ATOM    158  O   LYS d   1       3.776  -4.620   6.672  0.00  0.00    -0.271 OA
ATOM    159  N   GLY d   1       5.200  -2.896   6.405  0.00  0.00    -0.351 N 
ATOM    160 0H11 GLY d   1       6.064  -2.477   6.683  0.00  0.00     0.163 HD
BRANCH 159 161
ATOM    161  CA  GLY d   1       4.352  -2.206   5.432  0.00  0.00     0.069 C 
ATOM    162 1H11 GLY d   1       3.932  -2.964   4.754  0.00  0.00     0.078 H 
ATOM    163 2H11 GLY d   1       4.989  -1.516   4.860  0.00  0.00     0.078 H 
BRANCH 161 164
ATOM    164  C   GLY d   1       3.194  -1.403   6.006  0.00  0.00     0.236 C 
ATOM    165  O   GLY d   1       2.495  -0.718   5.257  0.00  0.00    -0.272 OA
ATOM    166  N   SER d   1       2.995  -1.486   7.326  0.00  0.00    -0.343 N 
ATOM    167 3H11 SER d   1       3.597  -2.084   7.856  0.00  0.00     0.163 HD
BRANCH 166 168
ATOM    168  CA  SER d   1       1.938  -0.747   8.049  0.00  0.00     0.116 C 
ATOM    169 4H11 SER d   1       1.883  -1.179   9.059  0.00  0.00     0.093 H 
BRANCH 168 170
ATOM    170  C   SER d   1       0.538  -0.889   7.427  0.00  0.00     0.198 C 
ATOM    171  O   SER d   1      -0.065  -1.964   7.434  0.00  0.00    -0.646 OA
ATOM    172  OXT SER d   1      -0.031   0.068   6.899  0.00  0.00    -0.646 OA
ENDBRANCH 168 170
BRANCH 168 173
ATOM    173  CB  SER d   1       2.313   0.735   8.202  0.00  0.00     0.045 C 
ATOM    174 5H11 SER d   1       1.493   1.262   8.712  0.00  0.00     0.077 H 
ATOM    175 6H11 SER d   1       2.466   1.172   7.204  0.00  0.00     0.077 H 
BRANCH 173 176
ATOM    176  OG  SER d   1       3.502   0.885   8.960  0.00  0.00    -0.398 OA
ATOM    177 7H11 SER d   1       4.215   0.434   8.522  0.00  0.00     0.209 HD
ENDBRANCH 173 176
ENDBRANCH 168 173
ENDBRANCH 166 168
ENDBRANCH 161 164
ENDBRANCH 159 161
ENDBRANCH 155 157
BRANCH 155 178
ATOM    178  CB  LYS d   1       6.462  -5.972   7.314  0.00  0.00    -0.049 C 
ATOM    179 7H10 LYS d   1       6.903  -5.739   6.334  0.00  0.00     0.030 H 
ATOM    180 8H10 LYS d   1       5.680  -6.736   7.192  0.00  0.00     0.030 H 
ATOM    181 9H10 LYS d   1       7.244  -6.352   7.987  0.00  0.00     0.030 H 
ENDBRANCH 155 178
ENDBRANCH 153 155
ENDBRANCH 149 151
BRANCH 149 182
ATOM    182  CB  LEU d   1       4.638  -3.527  12.385  0.00  0.00    -0.035 C 
ATOM    183  H96 LEU d   1       4.253  -2.508  12.231  0.00  0.00     0.037 H 
ATOM    184  H97 LEU d   1       5.732  -3.527  12.270  0.00  0.00     0.037 H 
BRANCH 182 185
ATOM    185  CG  LEU d   1       4.320  -3.933  13.836  0.00  0.00    -0.059 C 
ATOM    186  H98 LEU d   1       4.769  -4.924  13.997  0.00  0.00     0.038 H 
BRANCH 185 187
ATOM    187  CD1 LEU d   1       4.963  -2.973  14.842  0.00  0.00    -0.073 C 
ATOM    188  H99 LEU d   1       4.715  -3.293  15.865  0.00  0.00     0.028 H 
ATOM    189 0H10 LEU d   1       4.581  -1.955  14.674  0.00  0.00     0.028 H 
ATOM    190 1H10 LEU d   1       6.055  -2.981  14.710  0.00  0.00     0.028 H 
ENDBRANCH 185 187
BRANCH 185 191
ATOM    191  CD2 LEU d   1       2.804  -4.076  14.097  0.00  0.00    -0.073 C 
ATOM    192 2H10 LEU d   1       2.369  -4.769  13.362  0.00  0.00     0.028 H 
ATOM    193 3H10 LEU d   1       2.321  -3.092  14.003  0.00  0.00     0.028 H 
ATOM    194 4H10 LEU d   1       2.642  -4.469  15.112  0.00  0.00     0.028 H 
ENDBRANCH 185 191
ENDBRANCH 182 185
ENDBRANCH 149 182
ENDBRANCH 147 149
ENDBRANCH 143 145
BRANCH 143 195
ATOM    195  CB  ASP d   1       5.155  -8.558  11.793  0.00  0.00     0.043 C 
ATOM    196  H92 ASP d   1       5.307  -9.474  12.383  0.00  0.00     0.052 H 
ATOM    197  H93 ASP d   1       5.791  -7.754  12.192  0.00  0.00     0.052 H 
BRANCH 195 198
ATOM    198  CG  ASP d   1       5.567  -8.833  10.359  0.00  0.00     0.175 C 
ATOM    199  OD1 ASP d   1       5.189  -8.039   9.471  0.00  0.00    -0.648 OA
ATOM    200  OD2 ASP d   1       6.281  -9.832  10.124  0.00  0.00    -0.648 OA
ENDBRANCH 195 198
ENDBRANCH 143 195
ENDBRANCH 141 143
ENDBRANCH 137 139
BRANCH 137 201
ATOM    201  CB  LEU d   1       0.244 -11.624  11.980  0.00  0.00    -0.035 C 
ATOM    202  H81 LEU d   1      -0.070 -11.240  12.962  0.00  0.00     0.037 H 
ATOM    203  H82 LEU d   1       0.967 -12.442  12.120  0.00  0.00     0.037 H 
BRANCH 201 204
ATOM    204  CG  LEU d   1      -0.978 -12.168  11.253  0.00  0.00    -0.059 C 
ATOM    205  H83 LEU d   1      -0.655 -12.542  10.271  0.00  0.00     0.038 H 
BRANCH 204 206
ATOM    206  CD1 LEU d   1      -1.521 -13.277  12.014  0.00  0.00    -0.073 C 
ATOM    207  H84 LEU d   1      -2.405 -13.678  11.497  0.00  0.00     0.028 H 
ATOM    208  H85 LEU d   1      -1.809 -12.928  13.016  0.00  0.00     0.028 H 
ATOM    209  H86 LEU d   1      -0.760 -14.066  12.105  0.00  0.00     0.028 H 
ENDBRANCH 204 206
BRANCH 204 210
ATOM    210  CD2 LEU d   1      -2.051 -11.094  11.017  0.00  0.00    -0.073 C 
ATOM    211  H87 LEU d   1      -1.618 -10.264  10.439  0.00  0.00     0.028 H 
ATOM    212  H88 LEU d   1      -2.412 -10.717  11.985  0.00  0.00     0.028 H 
ATOM    213  H89 LEU d   1      -2.891 -11.531  10.457  0.00  0.00     0.028 H 
ENDBRANCH 204 210
ENDBRANCH 201 204
ENDBRANCH 137 201
ENDBRANCH 135 137
ENDBRANCH 130 133
ENDBRANCH 128 130
ENDBRANCH 115 126
ENDBRANCH   1 112
BRANCH   1 214
ATOM    214  CB  LEU d   1      -3.444 -15.272   4.925  0.00  0.00    -0.035 C 
ATOM    215  H60 LEU d   1      -3.448 -15.011   5.994  0.00  0.00     0.037 H 
ATOM    216  H61 LEU d   1      -2.503 -15.784   4.676  0.00  0.00     0.037 H 
BRANCH 214 217
ATOM    217  CG  LEU d   1      -4.594 -16.243   4.669  0.00  0.00    -0.059 C 
ATOM    218  H62 LEU d   1      -4.683 -16.405   3.585  0.00  0.00     0.038 H 
BRANCH 217 219
ATOM    219  CD1 LEU d   1      -4.335 -17.573   5.337  0.00  0.00    -0.073 C 
ATOM    220  H63 LEU d   1      -5.176 -18.253   5.138  0.00  0.00     0.028 H 
ATOM    221  H64 LEU d   1      -4.232 -17.425   6.422  0.00  0.00     0.028 H 
ATOM    222  H65 LEU d   1      -3.408 -18.010   4.937  0.00  0.00     0.028 H 
ENDBRANCH 217 219
BRANCH 217 223
ATOM    223  CD2 LEU d   1      -5.899 -15.647   5.187  0.00  0.00    -0.073 C 
ATOM    224  H66 LEU d   1      -6.080 -14.679   4.696  0.00  0.00     0.028 H 
ATOM    225  H67 LEU d   1      -5.828 -15.499   6.275  0.00  0.00     0.028 H 
ATOM    226  H68 LEU d   1      -6.729 -16.333   4.964  0.00  0.00     0.028 H 
ENDBRANCH 217 223
ENDBRANCH 214 217
ENDBRANCH   1 214
TORSDOF 62
