REMARK WARNING: 32 MAX_TORS EXCEEDED!!!
REMARK  47 active torsions:
REMARK  status: ('A' for Active; 'I' for Inactive)
REMARK    1  A    between atoms: CA_2  and  N_1 
REMARK    2  A    between atoms: C_3  and  CA_2 
REMARK    3  A    between atoms: CA_2  and  CB_5 
REMARK       I    between atoms: N_7  and  C_3 
REMARK    4  A    between atoms: CB_5  and  CG_6 
REMARK    5  A    between atoms: CA_8  and  N_7 
REMARK    6  A    between atoms: C_9  and  CA_8 
REMARK    7  A    between atoms: CA_8  and  CB_11 
REMARK       I    between atoms: N_14  and  C_9 
REMARK    8  A    between atoms: CB_11  and  OG1_12 
REMARK    9  A    between atoms: CB_11  and  CG2_13 
REMARK   10  A    between atoms: CA_15  and  N_14 
REMARK   11  A    between atoms: C_16  and  CA_15 
REMARK   12  A    between atoms: CA_15  and  CB_18 
REMARK       I    between atoms: NAC_30  and  C_16 
REMARK   13  A    between atoms: CB_18  and  CG_19 
REMARK   14  A    between atoms: CAF_27  and  CAA_28 
REMARK   15  A    between atoms: CAF_27  and  NAC_30 
REMARK   16  A    between atoms: CA_38  and  CB_41 
REMARK   17  A    between atoms: CB_41  and  CG_42 
REMARK       I    between atoms: CG_42  and  ND2_44 
REMARK   18  A    between atoms: CA_46  and  CB_49 
REMARK   19  A    between atoms: CB_49  and  CG_50 
REMARK   20  A    between atoms: CG_50  and  CD1_51 
REMARK   21  A    between atoms: CG_50  and  CD2_52 
REMARK   22  A    between atoms: CA_54  and  CB_57 
REMARK   23  A    between atoms: CB_57  and  CG_58 
REMARK   24  A    between atoms: CA_68  and  CB_71 
REMARK   25  A    between atoms: CB_71  and  CG_72 
REMARK   26  A    between atoms: CG_72  and  CD_73 
REMARK   27  A    between atoms: CD_73  and  NE_74 
REMARK       I    between atoms: NE_74  and  CZ_75 
REMARK       I    between atoms: CZ_75  and  NH1_76 
REMARK   28  A    between atoms: CZ_75  and  NH2_77 
REMARK   29  A    between atoms: CA_79  and  CB_82 
REMARK   30  A    between atoms: CB_82  and  CG_83 
REMARK   31  A    between atoms: CG_83  and  CD1_84 
REMARK   32  A    between atoms: CG_83  and  CD2_85 
REMARK   33  A    between atoms: CA_87  and  CB_90 
REMARK   34  A    between atoms: CB_90  and  CG_91 
REMARK   35  A    between atoms: CG_91  and  CD1_92 
REMARK   36  A    between atoms: CG_91  and  CD2_93 
REMARK   37  A    between atoms: CA_97  and  C_94 
REMARK       I    between atoms: C_94  and  N_103 
REMARK   38  A    between atoms: CA_97  and  CB1_102 
REMARK   39  A    between atoms: N_103  and  CA_104 
REMARK   40  A    between atoms: CA_104  and  C_105 
REMARK   41  A    between atoms: CA_104  and  CB_107 
REMARK       I    between atoms: C_105  and  N_112 
REMARK   42  A    between atoms: CB_107  and  CG_108 
REMARK   43  A    between atoms: CG_108  and  CD_109 
REMARK       I    between atoms: CD_109  and  NE2_111 
REMARK   44  A    between atoms: N_112  and  CA_113 
REMARK   45  A    between atoms: CA_113  and  C_114 
REMARK   46  A    between atoms: CA_113  and  CB_116 
REMARK   47  A    between atoms: CB_116  and  CG_117 
REMARK       I    between atoms: CG_117  and  ND2_119 
ROOT
ATOM      1  OAD 0EH d   1       8.874   3.921  -1.695  0.00  0.00    -0.271 OA
ATOM      2  CAE 0EH d   1       9.774   4.730  -1.428  0.00  0.00     0.246 C 
ATOM      3  CAF 0EH d   1       9.566   5.802  -0.308  0.00  0.00     0.110 C 
ATOM      4  CAB 0EH d   1       8.097   5.840   0.136  0.00  0.00    -0.033 C 
ATOM      5  CAO 0EH d   1       7.034   6.523  -0.629  0.00  0.00    -0.062 C 
ATOM      6  CAP 0EH d   1       5.736   5.974   0.017  0.00  0.00    -0.065 C 
ATOM      7  CAQ 0EH d   1       4.520   6.814  -0.379  0.00  0.00    -0.062 C 
ATOM      8  CAR 0EH d   1       3.864   6.247  -1.630  0.00  0.00    -0.050 C 
ATOM      9  CAS 0EH d   1       3.150   4.938  -1.287  0.00  0.00    -0.107 C 
ATOM     10  CAT 0EH d   1       3.442   3.975  -2.232  0.00  0.00    -0.107 C 
ATOM     11  H29 0EH d   1       8.096   6.304   1.133  0.00  0.00     0.037 H 
ATOM     12  H30 0EH d   1       7.780   4.790   0.220  0.00  0.00     0.037 H 
ATOM     13  H32 0EH d   1       7.085   6.263  -1.697  0.00  0.00     0.033 H 
ATOM     14  H33 0EH d   1       7.102   7.615  -0.514  0.00  0.00     0.033 H 
ATOM     15  H34 0EH d   1       5.844   5.994   1.111  0.00  0.00     0.033 H 
ATOM     16  H35 0EH d   1       5.580   4.938  -0.317  0.00  0.00     0.033 H 
ATOM     17  H36 0EH d   1       4.843   7.847  -0.576  0.00  0.00     0.033 H 
ATOM     18  H37 0EH d   1       3.792   6.808   0.446  0.00  0.00     0.033 H 
ATOM     19  H38 0EH d   1       4.634   6.055  -2.392  0.00  0.00     0.038 H 
ATOM     20  H39 0EH d   1       3.134   6.971  -2.021  0.00  0.00     0.038 H 
ATOM     21  H40 0EH d   1       2.505   4.788  -0.423  0.00  0.00     0.076 H 
ATOM     22  H41 0EH d   1       4.393   3.990  -2.762  0.00  0.00     0.076 H 
ATOM     23  N   ASN d   1      10.952   4.484  -1.902  0.00  0.00    -0.345 N 
ATOM     24  CA  ASN d   1      11.223   3.504  -2.986  0.00  0.00     0.097 C 
ATOM     25  C   ASN d   1      11.071   2.065  -2.552  0.00  0.00     0.241 C 
ATOM     26  O   ASN d   1      10.563   1.254  -3.331  0.00  0.00    -0.271 OA
ATOM     27  H42 ASN d   1      11.727   4.984  -1.516  0.00  0.00     0.163 HD
ATOM     28  H43 ASN d   1      10.468   3.677  -3.767  0.00  0.00     0.088 H 
ATOM     29  N   LEU d   1      11.472   1.744  -1.319  0.00  0.00    -0.346 N 
ATOM     30  CA  LEU d   1      11.298   0.384  -0.805  0.00  0.00     0.089 C 
ATOM     31  C   LEU d   1       9.807   0.035  -0.706  0.00  0.00     0.241 C 
ATOM     32  O   LEU d   1       9.394  -1.068  -1.071  0.00  0.00    -0.271 OA
ATOM     33  N   LEU d   1       8.375  -0.508  -4.190  0.00  0.00    -0.346 N 
ATOM     34  CA  LEU d   1       8.689  -1.877  -4.621  0.00  0.00     0.089 C 
ATOM     35  C   LEU d   1       7.727  -2.901  -4.009  0.00  0.00     0.241 C 
ATOM     36  O   LEU d   1       7.290  -3.836  -4.690  0.00  0.00    -0.271 OA
ATOM     37  N   LEU d   1       7.384  -2.712  -2.735  0.00  0.00    -0.346 N 
ATOM     38  CA  LEU d   1       6.324  -3.495  -2.096  0.00  0.00     0.089 C 
ATOM     39  C   LEU d   1       5.001  -3.315  -2.869  0.00  0.00     0.241 C 
ATOM     40  O   LEU d   1       4.393  -4.318  -3.283  0.00  0.00    -0.271 OA
ATOM     41  H48 LEU d   1      11.896   2.441  -0.740  0.00  0.00     0.163 HD
ATOM     42  H49 LEU d   1      11.766  -0.309  -1.519  0.00  0.00     0.087 H 
ATOM     43  H82 LEU d   1       9.077   0.038  -3.733  0.00  0.00     0.163 HD
ATOM     44  H83 LEU d   1       8.576  -1.917  -5.714  0.00  0.00     0.087 H 
ATOM     45  H93 LEU d   1       7.864  -2.016  -2.200  0.00  0.00     0.163 HD
ATOM     46  H94 LEU d   1       6.608  -4.558  -2.119  0.00  0.00     0.087 H 
ATOM     47  N   TRP d   1       8.999   0.974  -0.214  0.00  0.00    -0.346 N 
ATOM     48  CA  TRP d   1       7.568   0.722  -0.099  0.00  0.00     0.093 C 
ATOM     49  C   TRP d   1       6.918   0.670  -1.484  0.00  0.00     0.241 C 
ATOM     50  O   TRP d   1       6.009  -0.119  -1.704  0.00  0.00    -0.271 OA
ATOM     51  H59 TRP d   1       9.376   1.853   0.077  0.00  0.00     0.163 HD
ATOM     52  H60 TRP d   1       7.439  -0.264   0.372  0.00  0.00     0.088 H 
ATOM     53  N   ARG d   1       7.378   1.499  -2.417  0.00  0.00    -0.346 N 
ATOM     54  CA  ARG d   1       6.885   1.394  -3.802  0.00  0.00     0.089 C 
ATOM     55  C   ARG d   1       7.168   0.017  -4.399  0.00  0.00     0.241 C 
ATOM     56  O   ARG d   1       6.293  -0.570  -5.032  0.00  0.00    -0.271 OA
ATOM     57  H69 ARG d   1       8.058   2.193  -2.179  0.00  0.00     0.163 HD
ATOM     58  H70 ARG d   1       5.794   1.530  -3.775  0.00  0.00     0.087 H 
ATOM     59  N   MK8 d   1       4.367  -2.204  -3.058  0.00  0.00    -0.342 N 
ATOM     60  CA  MK8 d   1       3.055  -1.898  -3.716  0.00  0.00     0.110 C 
ATOM     61  CB  MK8 d   1       2.903  -0.391  -3.896  0.00  0.00    -0.033 C 
ATOM     62  CD  MK8 d   1       2.766   2.038  -3.459  0.00  0.00    -0.062 C 
ATOM     63  CE  MK8 d   1       2.507   2.991  -2.494  0.00  0.00    -0.050 C 
ATOM     64  CG  MK8 d   1       2.685   0.619  -2.870  0.00  0.00    -0.062 C 
ATOM     65 4H10 MK8 d   1       4.840  -1.399  -2.699  0.00  0.00     0.163 HD
ATOM     66 5H10 MK8 d   1       2.051  -0.278  -4.583  0.00  0.00     0.037 H 
ATOM     67 6H10 MK8 d   1       3.827  -0.077  -4.403  0.00  0.00     0.037 H 
ATOM     68 7H10 MK8 d   1       3.775   2.202  -3.864  0.00  0.00     0.033 H 
ATOM     69 8H10 MK8 d   1       2.026   2.135  -4.267  0.00  0.00     0.033 H 
ATOM     70 9H10 MK8 d   1       1.581   3.503  -2.793  0.00  0.00     0.038 H 
ATOM     71 0H11 MK8 d   1       2.340   2.451  -1.550  0.00  0.00     0.038 H 
ATOM     72 1H11 MK8 d   1       3.453   0.510  -2.090  0.00  0.00     0.033 H 
ATOM     73 2H11 MK8 d   1       1.689   0.471  -2.427  0.00  0.00     0.033 H 
ENDROOT
BRANCH   3  74
ATOM     74  CAA 0EH d   1       9.968   7.204  -0.826  0.00  0.00    -0.044 C 
ATOM     75  H26 0EH d   1       9.817   7.947  -0.029  0.00  0.00     0.031 H 
ATOM     76  H27 0EH d   1       9.346   7.466  -1.694  0.00  0.00     0.031 H 
ATOM     77  H28 0EH d   1      11.027   7.195  -1.123  0.00  0.00     0.031 H 
ENDBRANCH   3  74
BRANCH   3  78
ATOM     78  NAC 0EH d   1      10.400   5.443   0.868  0.00  0.00    -0.342 N 
ATOM     79  C   PHE d   1      10.670   4.310   1.429  0.00  0.00     0.241 C 
ATOM     80  O   PHE d   1      10.038   3.301   1.073  0.00  0.00    -0.271 OA
ATOM     81  H31 0EH d   1      10.835   6.227   1.310  0.00  0.00     0.163 HD
BRANCH  79  82
ATOM     82  CA  PHE d   1      11.723   4.180   2.540  0.00  0.00     0.093 C 
ATOM     83  H18 PHE d   1      11.967   3.114   2.657  0.00  0.00     0.088 H 
BRANCH  82  84
ATOM     84  N   PHE d   1      12.961   4.868   2.159  0.00  0.00    -0.346 N 
ATOM     85  C   THR d   1      13.517   4.649   0.959  0.00  0.00     0.243 C 
ATOM     86  O   THR d   1      13.117   3.764   0.204  0.00  0.00    -0.271 OA
ATOM     87  H17 PHE d   1      13.393   5.504   2.798  0.00  0.00     0.163 HD
BRANCH  85  88
ATOM     88  CA  THR d   1      14.696   5.543   0.527  0.00  0.00     0.113 C 
ATOM     89  H11 THR d   1      15.195   5.939   1.424  0.00  0.00     0.091 H 
BRANCH  88  90
ATOM     90  N   THR d   1      15.624   4.721  -0.236  0.00  0.00    -0.344 N 
ATOM     91  C   GLN d   1      16.574   3.990   0.315  0.00  0.00     0.249 C 
ATOM     92  O   GLN d   1      16.751   3.927   1.528  0.00  0.00    -0.271 OA
ATOM     93  H10 THR d   1      15.537   4.710  -1.232  0.00  0.00     0.163 HD
BRANCH  91  94
ATOM     94  CA  GLN d   1      17.468   3.231  -0.682  0.00  0.00     0.175 C 
ATOM     95  H4  GLN d   1      17.558   3.855  -1.583  0.00  0.00     0.099 H 
BRANCH  94  96
ATOM     96  N   GLN d   1      18.851   2.994  -0.165  0.00  0.00    -0.067 N 
ATOM     97  H1  GLN d   1      19.388   2.496  -0.858  0.00  0.00     0.275 HD
ATOM     98  H2  GLN d   1      18.805   2.448   0.681  0.00  0.00     0.275 HD
ATOM     99  H3  GLN d   1      19.293   3.879   0.030  0.00  0.00     0.275 HD
ENDBRANCH  94  96
BRANCH  94 100
ATOM    100  CB  GLN d   1      16.811   1.913  -1.089  0.00  0.00    -0.034 C 
ATOM    101  H5  GLN d   1      15.722   2.018  -0.972  0.00  0.00     0.036 H 
ATOM    102  H6  GLN d   1      17.178   1.121  -0.419  0.00  0.00     0.036 H 
BRANCH 100 103
ATOM    103  CG  GLN d   1      17.102   1.498  -2.528  0.00  0.00    -0.074 C 
ATOM    104  H7  GLN d   1      16.597   0.545  -2.744  0.00  0.00     0.027 H 
ATOM    105  H8  GLN d   1      18.187   1.377  -2.662  0.00  0.00     0.027 H 
ATOM    106  H9  GLN d   1      16.732   2.273  -3.215  0.00  0.00     0.027 H 
ENDBRANCH 100 103
ENDBRANCH  94 100
ENDBRANCH  91  94
ENDBRANCH  88  90
BRANCH  88 107
ATOM    107  CB  THR d   1      14.243   6.743  -0.377  0.00  0.00     0.060 C 
ATOM    108  H12 THR d   1      14.359   6.447  -1.430  0.00  0.00     0.086 H 
BRANCH 107 109
ATOM    109  OG1 THR d   1      15.076   7.890  -0.117  0.00  0.00    -0.393 OA
ATOM    110  H13 THR d   1      14.798   8.613  -0.667  0.00  0.00     0.210 HD
ENDBRANCH 107 109
BRANCH 107 111
ATOM    111  CG2 THR d   1      12.839   7.108  -0.146  0.00  0.00    -0.050 C 
ATOM    112  H14 THR d   1      12.567   7.950  -0.799  0.00  0.00     0.031 H 
ATOM    113  H15 THR d   1      12.705   7.401   0.906  0.00  0.00     0.031 H 
ATOM    114  H16 THR d   1      12.194   6.246  -0.372  0.00  0.00     0.031 H 
ENDBRANCH 107 111
ENDBRANCH  88 107
ENDBRANCH  85  88
ENDBRANCH  82  84
BRANCH  82 115
ATOM    115  CB  PHE d   1      11.123   4.662   3.868  0.00  0.00    -0.014 C 
ATOM    116  H19 PHE d   1      11.045   5.759   3.841  0.00  0.00     0.043 H 
ATOM    117  H20 PHE d   1      11.794   4.362   4.686  0.00  0.00     0.043 H 
BRANCH 115 118
ATOM    118  CG  PHE d   1       9.750   4.086   4.134  0.00  0.00    -0.056 A 
ATOM    119  CD1 PHE d   1       9.607   2.817   4.684  0.00  0.00    -0.077 A 
ATOM    120  CE1 PHE d   1       8.348   2.264   4.885  0.00  0.00    -0.082 A 
ATOM    121  H21 PHE d   1      10.490   2.251   4.960  0.00  0.00     0.084 H 
ATOM    122  CZ  PHE d   1       7.205   2.975   4.507  0.00  0.00    -0.083 A 
ATOM    123  H23 PHE d   1       8.252   1.282   5.335  0.00  0.00     0.083 H 
ATOM    124  CE2 PHE d   1       7.341   4.241   3.947  0.00  0.00    -0.082 A 
ATOM    125  H25 PHE d   1       6.221   2.543   4.649  0.00  0.00     0.083 H 
ATOM    126  CD2 PHE d   1       8.606   4.781   3.754  0.00  0.00    -0.077 A 
ATOM    127  H24 PHE d   1       6.461   4.806   3.662  0.00  0.00     0.083 H 
ATOM    128  H22 PHE d   1       8.704   5.760   3.300  0.00  0.00     0.084 H 
ENDBRANCH 115 118
ENDBRANCH  82 115
ENDBRANCH  79  82
ENDBRANCH   3  78
BRANCH  24 129
ATOM    129  CB  ASN d   1      12.587   3.763  -3.614  0.00  0.00     0.036 C 
ATOM    130  H44 ASN d   1      12.878   2.883  -4.207  0.00  0.00     0.051 H 
ATOM    131  H45 ASN d   1      13.322   3.924  -2.812  0.00  0.00     0.051 H 
BRANCH 129 132
ATOM    132  CG  ASN d   1      12.574   4.979  -4.517  0.00  0.00     0.217 C 
ATOM    133  OD1 ASN d   1      11.545   5.303  -5.143  0.00  0.00    -0.274 OA
ATOM    134  ND2 ASN d   1      13.706   5.668  -4.588  0.00  0.00    -0.370 N 
ATOM    135  H46 ASN d   1      13.761   6.481  -5.167  0.00  0.00     0.159 HD
ATOM    136  H47 ASN d   1      14.504   5.374  -4.062  0.00  0.00     0.159 HD
ENDBRANCH 129 132
ENDBRANCH  24 129
BRANCH  30 137
ATOM    137  CB  LEU d   1      11.988   0.194   0.559  0.00  0.00    -0.035 C 
ATOM    138  H50 LEU d   1      11.684  -0.787   0.953  0.00  0.00     0.037 H 
ATOM    139  H51 LEU d   1      11.626   0.987   1.230  0.00  0.00     0.037 H 
BRANCH 137 140
ATOM    140  CG  LEU d   1      13.524   0.243   0.565  0.00  0.00    -0.059 C 
ATOM    141  H52 LEU d   1      13.833   1.119  -0.025  0.00  0.00     0.038 H 
BRANCH 140 142
ATOM    142  CD1 LEU d   1      14.063   0.415   1.976  0.00  0.00    -0.073 C 
ATOM    143  H53 LEU d   1      15.162   0.446   1.947  0.00  0.00     0.028 H 
ATOM    144  H54 LEU d   1      13.737  -0.431   2.599  0.00  0.00     0.028 H 
ATOM    145  H55 LEU d   1      13.680   1.354   2.403  0.00  0.00     0.028 H 
ENDBRANCH 140 142
BRANCH 140 146
ATOM    146  CD2 LEU d   1      14.130  -1.000  -0.089  0.00  0.00    -0.073 C 
ATOM    147  H56 LEU d   1      13.730  -1.110  -1.108  0.00  0.00     0.028 H 
ATOM    148  H57 LEU d   1      13.871  -1.889   0.504  0.00  0.00     0.028 H 
ATOM    149  H58 LEU d   1      15.224  -0.894  -0.134  0.00  0.00     0.028 H 
ENDBRANCH 140 146
ENDBRANCH 137 140
ENDBRANCH  30 137
BRANCH  48 150
ATOM    150  CB  TRP d   1       6.874   1.754   0.790  0.00  0.00    -0.012 C 
ATOM    151  H61 TRP d   1       6.789   2.699   0.233  0.00  0.00     0.044 H 
ATOM    152  H62 TRP d   1       7.487   1.913   1.689  0.00  0.00     0.044 H 
BRANCH 150 153
ATOM    153  CG  TRP d   1       5.500   1.321   1.215  0.00  0.00    -0.028 A 
ATOM    154  CD1 TRP d   1       4.308   1.637   0.611  0.00  0.00    -0.015 A 
ATOM    155  NE1 TRP d   1       3.266   1.054   1.295  0.00  0.00    -0.365 N 
ATOM    156  H63 TRP d   1       4.203   2.257  -0.278  0.00  0.00     0.112 H 
ATOM    157  CE2 TRP d   1       3.769   0.343   2.355  0.00  0.00     0.042 A 
ATOM    158  H64 TRP d   1       2.269   1.138   1.050  0.00  0.00     0.165 HD
ATOM    159  CD2 TRP d   1       5.172   0.492   2.337  0.00  0.00    -0.002 A 
ATOM    160  CZ2 TRP d   1       3.113  -0.403   3.322  0.00  0.00    -0.056 A 
ATOM    161  CE3 TRP d   1       5.928  -0.144   3.323  0.00  0.00    -0.070 A 
ATOM    162  CZ3 TRP d   1       5.265  -0.889   4.293  0.00  0.00    -0.082 A 
ATOM    163  H65 TRP d   1       7.009  -0.059   3.333  0.00  0.00     0.084 H 
ATOM    164  CH2 TRP d   1       3.875  -1.012   4.281  0.00  0.00    -0.081 A 
ATOM    165  H67 TRP d   1       5.837  -1.382   5.071  0.00  0.00     0.083 H 
ATOM    166  H68 TRP d   1       3.388  -1.603   5.048  0.00  0.00     0.083 H 
ATOM    167  H66 TRP d   1       2.033  -0.500   3.318  0.00  0.00     0.086 H 
ENDBRANCH 150 153
ENDBRANCH  48 150
BRANCH  54 168
ATOM    168  CB  ARG d   1       7.470   2.488  -4.698  0.00  0.00    -0.036 C 
ATOM    169  H71 ARG d   1       7.283   2.219  -5.748  0.00  0.00     0.036 H 
ATOM    170  H72 ARG d   1       8.554   2.543  -4.521  0.00  0.00     0.036 H 
BRANCH 168 171
ATOM    171  CG  ARG d   1       6.873   3.840  -4.437  0.00  0.00    -0.048 C 
ATOM    172  H73 ARG d   1       7.111   4.141  -3.406  0.00  0.00     0.035 H 
ATOM    173  H74 ARG d   1       5.782   3.776  -4.558  0.00  0.00     0.035 H 
BRANCH 171 174
ATOM    174  CD  ARG d   1       7.416   4.900  -5.399  0.00  0.00     0.009 C 
ATOM    175  H75 ARG d   1       7.047   4.697  -6.415  0.00  0.00     0.064 H 
ATOM    176  H76 ARG d   1       8.516   4.870  -5.396  0.00  0.00     0.064 H 
BRANCH 174 177
ATOM    177  NE  ARG d   1       6.963   6.221  -4.970  0.00  0.00    -0.227 N 
ATOM    178  CZ  ARG d   1       7.746   7.250  -4.660  0.00  0.00     0.665 C 
ATOM    179  NH1 ARG d   1       9.076   7.172  -4.736  0.00  0.00    -0.235 N 
ATOM    180  H78 ARG d   1       9.655   7.987  -4.489  0.00  0.00     0.174 HD
ATOM    181  H79 ARG d   1       9.524   6.296  -5.042  0.00  0.00     0.174 HD
ATOM    182  H77 ARG d   1       5.946   6.369  -4.902  0.00  0.00     0.177 HD
BRANCH 178 183
ATOM    183  NH2 ARG d   1       7.183   8.378  -4.264  0.00  0.00    -0.235 N 
ATOM    184  H80 ARG d   1       6.157   8.448  -4.202  0.00  0.00     0.174 HD
ATOM    185  H81 ARG d   1       7.770   9.188  -4.017  0.00  0.00     0.174 HD
ENDBRANCH 178 183
ENDBRANCH 174 177
ENDBRANCH 171 174
ENDBRANCH 168 171
ENDBRANCH  54 168
BRANCH  60 186
ATOM    186  C   MK8 d   1       2.974  -2.533  -5.144  0.00  0.00     0.246 C 
ATOM    187  O   MK8 d   1       1.884  -2.592  -5.712  0.00  0.00    -0.271 OA
ATOM    188  N   GLN d   1       3.925  -2.285  -6.091  0.00  0.00    -0.346 N 
ATOM    189 6H11 GLN d   1       4.416  -1.450  -5.845  0.00  0.00     0.163 HD
BRANCH 188 190
ATOM    190  CA  GLN d   1       4.493  -2.822  -7.369  0.00  0.00     0.090 C 
ATOM    191 7H11 GLN d   1       3.688  -2.863  -8.117  0.00  0.00     0.087 H 
BRANCH 190 192
ATOM    192  C   GLN d   1       5.040  -4.224  -7.153  0.00  0.00     0.241 C 
ATOM    193  O   GLN d   1       6.248  -4.468  -7.280  0.00  0.00    -0.271 OA
ATOM    194  N   ASN d   1       4.136  -5.132  -6.813  0.00  0.00    -0.344 N 
ATOM    195 4H12 ASN d   1       3.191  -4.836  -6.674  0.00  0.00     0.163 HD
BRANCH 194 196
ATOM    196  CA  ASN d   1       4.458  -6.546  -6.632  0.00  0.00     0.104 C 
ATOM    197 5H12 ASN d   1       5.075  -6.647  -5.727  0.00  0.00     0.090 H 
BRANCH 196 198
ATOM    198  C   ASN d   1       5.241  -7.126  -7.810  0.00  0.00     0.197 C 
ATOM    199  O   ASN d   1       6.473  -7.049  -7.846  0.00  0.00    -0.646 OA
ATOM    200  OXT ASN d   1       4.654  -7.681  -8.744  0.00  0.00    -0.646 OA
ENDBRANCH 196 198
BRANCH 196 201
ATOM    201  CB  ASN d   1       3.162  -7.327  -6.435  0.00  0.00     0.037 C 
ATOM    202 6H12 ASN d   1       3.410  -8.363  -6.161  0.00  0.00     0.051 H 
ATOM    203 7H12 ASN d   1       2.599  -7.323  -7.380  0.00  0.00     0.051 H 
BRANCH 201 204
ATOM    204  CG  ASN d   1       2.296  -6.729  -5.348  0.00  0.00     0.217 C 
ATOM    205  OD1 ASN d   1       2.687  -6.687  -4.183  0.00  0.00    -0.274 OA
ATOM    206  ND2 ASN d   1       1.123  -6.239  -5.728  0.00  0.00    -0.370 N 
ATOM    207 8H12 ASN d   1       0.509  -5.831  -5.052  0.00  0.00     0.159 HD
ATOM    208 9H12 ASN d   1       0.853  -6.277  -6.690  0.00  0.00     0.159 HD
ENDBRANCH 201 204
ENDBRANCH 196 201
ENDBRANCH 194 196
ENDBRANCH 190 192
BRANCH 190 209
ATOM    209  CB  GLN d   1       5.612  -1.935  -7.902  0.00  0.00    -0.030 C 
ATOM    210 8H11 GLN d   1       6.034  -2.417  -8.796  0.00  0.00     0.037 H 
ATOM    211 9H11 GLN d   1       6.388  -1.860  -7.126  0.00  0.00     0.037 H 
BRANCH 209 212
ATOM    212  CG  GLN d   1       5.186  -0.529  -8.281  0.00  0.00     0.011 C 
ATOM    213 0H12 GLN d   1       4.661  -0.074  -7.428  0.00  0.00     0.047 H 
ATOM    214 1H12 GLN d   1       4.506  -0.584  -9.144  0.00  0.00     0.047 H 
BRANCH 212 215
ATOM    215  CD  GLN d   1       6.374   0.342  -8.647  0.00  0.00     0.215 C 
ATOM    216  OE1 GLN d   1       7.516  -0.133  -8.694  0.00  0.00    -0.274 OA
ATOM    217  NE2 GLN d   1       6.114   1.627  -8.906  0.00  0.00    -0.370 N 
ATOM    218 2H12 GLN d   1       6.858   2.248  -9.153  0.00  0.00     0.159 HD
ATOM    219 3H12 GLN d   1       5.175   1.968  -8.853  0.00  0.00     0.159 HD
ENDBRANCH 212 215
ENDBRANCH 209 212
ENDBRANCH 190 209
ENDBRANCH 188 190
ENDBRANCH  60 186
BRANCH  60 220
ATOM    220  CB1 MK8 d   1       1.932  -2.432  -2.812  0.00  0.00    -0.044 C 
ATOM    221 3H11 MK8 d   1       0.957  -2.219  -3.274  0.00  0.00     0.031 H 
ATOM    222 4H11 MK8 d   1       1.987  -1.940  -1.829  0.00  0.00     0.031 H 
ATOM    223 5H11 MK8 d   1       2.048  -3.518  -2.686  0.00  0.00     0.031 H 
ENDBRANCH  60 220
BRANCH  34 224
ATOM    224  CB  LEU d   1      10.136  -2.251  -4.280  0.00  0.00    -0.035 C 
ATOM    225  H84 LEU d   1      10.230  -3.343  -4.378  0.00  0.00     0.037 H 
ATOM    226  H85 LEU d   1      10.318  -1.960  -3.235  0.00  0.00     0.037 H 
BRANCH 224 227
ATOM    227  CG  LEU d   1      11.230  -1.615  -5.133  0.00  0.00    -0.059 C 
ATOM    228  H86 LEU d   1      11.081  -0.525  -5.135  0.00  0.00     0.038 H 
BRANCH 227 229
ATOM    229  CD1 LEU d   1      12.602  -1.910  -4.524  0.00  0.00    -0.073 C 
ATOM    230  H87 LEU d   1      13.385  -1.449  -5.144  0.00  0.00     0.028 H 
ATOM    231  H88 LEU d   1      12.759  -2.998  -4.484  0.00  0.00     0.028 H 
ATOM    232  H89 LEU d   1      12.648  -1.495  -3.506  0.00  0.00     0.028 H 
ENDBRANCH 227 229
BRANCH 227 233
ATOM    233  CD2 LEU d   1      11.138  -2.117  -6.593  0.00  0.00    -0.073 C 
ATOM    234  H90 LEU d   1      10.141  -1.888  -6.997  0.00  0.00     0.028 H 
ATOM    235  H91 LEU d   1      11.303  -3.204  -6.618  0.00  0.00     0.028 H 
ATOM    236  H92 LEU d   1      11.904  -1.615  -7.202  0.00  0.00     0.028 H 
ENDBRANCH 227 233
ENDBRANCH 224 227
ENDBRANCH  34 224
BRANCH  38 237
ATOM    237  CB  LEU d   1       6.135  -3.065  -0.628  0.00  0.00    -0.035 C 
ATOM    238  H95 LEU d   1       5.508  -2.161  -0.641  0.00  0.00     0.037 H 
ATOM    239  H96 LEU d   1       7.133  -2.813  -0.241  0.00  0.00     0.037 H 
BRANCH 237 240
ATOM    240  CG  LEU d   1       5.498  -4.029   0.387  0.00  0.00    -0.059 C 
ATOM    241  H97 LEU d   1       6.318  -4.589   0.860  0.00  0.00     0.038 H 
BRANCH 240 242
ATOM    242  CD1 LEU d   1       4.757  -3.256   1.497  0.00  0.00    -0.073 C 
ATOM    243  H98 LEU d   1       4.313  -3.969   2.207  0.00  0.00     0.028 H 
ATOM    244  H99 LEU d   1       3.962  -2.642   1.048  0.00  0.00     0.028 H 
ATOM    245 0H10 LEU d   1       5.468  -2.605   2.028  0.00  0.00     0.028 H 
ENDBRANCH 240 242
BRANCH 240 246
ATOM    246  CD2 LEU d   1       4.577  -5.039  -0.251  0.00  0.00    -0.073 C 
ATOM    247 1H10 LEU d   1       5.118  -5.582  -1.040  0.00  0.00     0.028 H 
ATOM    248 2H10 LEU d   1       3.712  -4.520  -0.690  0.00  0.00     0.028 H 
ATOM    249 3H10 LEU d   1       4.229  -5.751   0.512  0.00  0.00     0.028 H 
ENDBRANCH 240 246
ENDBRANCH 237 240
ENDBRANCH  38 237
TORSDOF 47
