REMARK  12 active torsions:
REMARK  status: ('A' for Active; 'I' for Inactive)
REMARK    1  A    between atoms: C1'_14  and  N9_10 
REMARK    2  A    between atoms: O5'_36  and  P_11 
REMARK    3  A    between atoms: O15_34  and  PB_12 
REMARK    4  A    between atoms: O2'_20  and  C10_13 
REMARK    5  A    between atoms: C12_17  and  O12_18 
REMARK    6  A    between atoms: C2'_19  and  O2'_20 
REMARK    7  A    between atoms: C13_23  and  O13_24 
REMARK    8  A    between atoms: C3'_25  and  O3'_26 
REMARK    9  A    between atoms: C14_29  and  C15_33 
REMARK   10  A    between atoms: C5'_35  and  C4'_31 
REMARK   11  A    between atoms: C15_33  and  O15_34 
REMARK   12  A    between atoms: C5'_35  and  O5'_36 
ROOT
ATOM      1  C1' V3L d   1      24.458  55.279  82.613  0.00  0.00     0.140 C 
ATOM      2  C2' V3L d   1      23.976  55.101  84.057  0.00  0.00     0.111 C 
ATOM      3  C3' V3L d   1      22.966  53.952  83.949  0.00  0.00     0.091 C 
ATOM      4  C4' V3L d   1      22.498  53.993  82.498  0.00  0.00     0.089 C 
ATOM      5  O4' V3L d   1      23.393  54.860  81.791  0.00  0.00    -0.353 OA
ATOM      6  H6  V3L d   1      25.352  54.670  82.414  0.00  0.00     0.122 H 
ATOM      7  H9  V3L d   1      23.468  56.007  84.420  0.00  0.00     0.094 H 
ATOM      8  H12 V3L d   1      22.122  54.136  84.630  0.00  0.00     0.091 H 
ATOM      9  H15 V3L d   1      22.542  52.976  82.082  0.00  0.00     0.090 H 
ENDROOT
BRANCH   2  10
ATOM     10  O2' V3L d   1      25.115  54.848  84.894  0.00  0.00    -0.346 OA
BRANCH  10  11
ATOM     11  C10 V3L d   1      25.041  55.306  86.244  0.00  0.00     0.159 C 
ATOM     12  C12 V3L d   1      26.416  55.222  86.903  0.00  0.00     0.110 C 
ATOM     13  C13 V3L d   1      26.520  53.755  87.309  0.00  0.00     0.092 C 
ATOM     14  H7  V3L d   1      26.458  55.869  87.792  0.00  0.00     0.094 H 
ATOM     15  C14 V3L d   1      25.070  53.316  87.455  0.00  0.00     0.090 C 
ATOM     16  H10 V3L d   1      27.059  53.658  88.263  0.00  0.00     0.091 H 
ATOM     17  O14 V3L d   1      24.240  54.389  86.987  0.00  0.00    -0.348 OA
ATOM     18  H14 V3L d   1      24.904  52.426  86.829  0.00  0.00     0.090 H 
ATOM     19  H5  V3L d   1      24.637  56.328  86.285  0.00  0.00     0.133 H 
BRANCH  12  20
ATOM     20  O12 V3L d   1      27.449  55.609  86.008  0.00  0.00    -0.388 OA
ATOM     21  H8  V3L d   1      27.443  55.034  85.251  0.00  0.00     0.210 HD
ENDBRANCH  12  20
BRANCH  13  22
ATOM     22  O13 V3L d   1      27.172  52.954  86.316  0.00  0.00    -0.390 OA
ATOM     23  H11 V3L d   1      26.682  52.998  85.503  0.00  0.00     0.210 HD
ENDBRANCH  13  22
BRANCH  15  24
ATOM     24  C15 V3L d   1      24.700  52.968  88.894  0.00  0.00     0.059 C 
ATOM     25  H16 V3L d   1      25.223  52.045  89.184  0.00  0.00     0.079 H 
ATOM     26  H17 V3L d   1      23.613  52.809  88.956  0.00  0.00     0.079 H 
BRANCH  24  27
ATOM     27  O15 V3L d   1      25.068  54.012  89.794  0.00  0.00    -0.280 OA
BRANCH  27  28
ATOM     28  PB  V3L d   1      24.488  54.108  91.278  0.00  0.00     0.422 P 
ATOM     29  O1B V3L d   1      25.321  55.169  91.928  0.00  0.00    -0.617 OA
ATOM     30  O2B V3L d   1      23.039  54.513  91.163  0.00  0.00    -0.617 OA
ATOM     31  O3B V3L d   1      24.673  52.708  91.802  0.00  0.00    -0.617 OA
ENDBRANCH  27  28
ENDBRANCH  24  27
ENDBRANCH  15  24
ENDBRANCH  10  11
ENDBRANCH   2  10
BRANCH   1  32
ATOM     32  N9  V3L d   1      24.775  56.712  82.436  0.00  0.00    -0.294 N 
ATOM     33  C4  V3L d   1      25.997  57.224  82.403  0.00  0.00     0.167 A 
ATOM     34  N3  V3L d   1      27.257  56.733  82.413  0.00  0.00    -0.222 NA
ATOM     35  C5  V3L d   1      25.787  58.667  82.310  0.00  0.00     0.149 A 
ATOM     36  C2  V3L d   1      28.319  57.552  82.335  0.00  0.00     0.091 A 
ATOM     37  N1  V3L d   1      28.211  58.899  82.245  0.00  0.00    -0.222 NA
ATOM     38  H1  V3L d   1      29.310  57.114  82.345  0.00  0.00     0.146 H 
ATOM     39  C6  V3L d   1      26.994  59.507  82.257  0.00  0.00     0.155 A 
ATOM     40  N6  V3L d   1      26.832  60.832  82.183  0.00  0.00    -0.382 N 
ATOM     41  H2  V3L d   1      25.885  61.237  82.197  0.00  0.00     0.157 HD
ATOM     42  H3  V3L d   1      27.654  61.448  82.112  0.00  0.00     0.157 HD
ATOM     43  N7  V3L d   1      24.461  58.886  82.321  0.00  0.00    -0.236 NA
ATOM     44  C8  V3L d   1      23.867  57.699  82.423  0.00  0.00     0.071 A 
ATOM     45  H4  V3L d   1      22.790  57.550  82.487  0.00  0.00     0.144 H 
ENDBRANCH   1  32
BRANCH   3  46
ATOM     46  O3' V3L d   1      23.518  52.668  84.245  0.00  0.00    -0.390 OA
ATOM     47  H13 V3L d   1      24.224  52.481  83.638  0.00  0.00     0.210 HD
ENDBRANCH   3  46
BRANCH   4  48
ATOM     48  C5' V3L d   1      21.097  54.542  82.301  0.00  0.00     0.059 C 
ATOM     49  H18 V3L d   1      20.374  53.858  82.769  0.00  0.00     0.079 H 
ATOM     50  H19 V3L d   1      20.888  54.615  81.224  0.00  0.00     0.079 H 
BRANCH  48  51
ATOM     51  O5' V3L d   1      20.963  55.849  82.897  0.00  0.00    -0.280 OA
BRANCH  51  52
ATOM     52  P   V3L d   1      19.716  56.794  82.543  0.00  0.00     0.422 P 
ATOM     53  OP3 V3L d   1      18.517  56.028  83.082  0.00  0.00    -0.617 OA
ATOM     54  OP1 V3L d   1      19.750  56.971  81.034  0.00  0.00    -0.617 OA
ATOM     55  OP2 V3L d   1      20.039  58.031  83.341  0.00  0.00    -0.617 OA
ENDBRANCH  51  52
ENDBRANCH  48  51
ENDBRANCH   4  48
TORSDOF 12
