REMARK  13 active torsions:
REMARK  status: ('A' for Active; 'I' for Inactive)
REMARK    1  A    between atoms: C1_2  and  C4_3 
REMARK       I    between atoms: C1_2  and  N1_8 
REMARK    2  A    between atoms: N1_8  and  C8_9 
REMARK    3  A    between atoms: N1_8  and  C2_19 
REMARK    4  A    between atoms: C11_12  and  C14_13 
REMARK    5  A    between atoms: C14_13  and  C15_14 
REMARK    6  A    between atoms: C14_13  and  C16_15 
REMARK    7  A    between atoms: C14_13  and  C17_16 
REMARK    8  A    between atoms: C2_19  and  C3_20 
REMARK    9  A    between atoms: C2_19  and  C18_27 
REMARK       I    between atoms: C3_20  and  N2_21 
REMARK   10  A    between atoms: N2_21  and  C23_22 
REMARK   11  A    between atoms: C23_22  and  C24_23 
REMARK   12  A    between atoms: C23_22  and  C25_24 
REMARK   13  A    between atoms: C23_22  and  C26_25 
ROOT
ATOM      1  O1  0EN d   1      21.826 -28.701   0.255  0.00  0.00    -0.265 OA
ATOM      2  C1  0EN d   1      22.625 -28.791  -0.672  0.00  0.00     0.283 C 
ATOM      3  N1  0EN d   1      23.007 -27.703  -1.398  0.00  0.00    -0.294 N 
ENDROOT
BRANCH   3   4
ATOM      4  C8  0EN d   1      23.960 -27.861  -2.439  0.00  0.00     0.038 A 
ATOM      5  C9  0EN d   1      23.567 -28.249  -3.725  0.00  0.00    -0.056 A 
ATOM      6  C10 0EN d   1      24.520 -28.405  -4.734  0.00  0.00    -0.074 A 
ATOM      7  H4  0EN d   1      22.520 -28.429  -3.939  0.00  0.00     0.086 H 
ATOM      8  C11 0EN d   1      25.880 -28.172  -4.485  0.00  0.00    -0.051 A 
ATOM      9  H5  0EN d   1      24.203 -28.711  -5.725  0.00  0.00     0.084 H 
ATOM     10  C12 0EN d   1      26.270 -27.780  -3.194  0.00  0.00    -0.074 A 
ATOM     11  C13 0EN d   1      25.322 -27.630  -2.178  0.00  0.00    -0.056 A 
ATOM     12  H15 0EN d   1      27.317 -27.592  -2.983  0.00  0.00     0.084 H 
ATOM     13  H16 0EN d   1      25.638 -27.334  -1.184  0.00  0.00     0.086 H 
BRANCH   8  14
ATOM     14  C14 0EN d   1      26.906 -28.343  -5.598  0.00  0.00    -0.024 C 
BRANCH  14  15
ATOM     15  C15 0EN d   1      27.804 -27.113  -5.666  0.00  0.00    -0.066 C 
ATOM     16  H6  0EN d   1      28.542 -27.242  -6.471  0.00  0.00     0.028 H 
ATOM     17  H7  0EN d   1      28.326 -26.987  -4.706  0.00  0.00     0.028 H 
ATOM     18  H8  0EN d   1      27.191 -26.223  -5.870  0.00  0.00     0.028 H 
ENDBRANCH  14  15
BRANCH  14  19
ATOM     19  C16 0EN d   1      26.225 -28.512  -6.955  0.00  0.00    -0.066 C 
ATOM     20  H9  0EN d   1      25.570 -29.396  -6.929  0.00  0.00     0.028 H 
ATOM     21  H10 0EN d   1      26.989 -28.645  -7.735  0.00  0.00     0.028 H 
ATOM     22  H11 0EN d   1      25.625 -27.618  -7.178  0.00  0.00     0.028 H 
ENDBRANCH  14  19
BRANCH  14  23
ATOM     23  C17 0EN d   1      27.766 -29.584  -5.344  0.00  0.00    -0.066 C 
ATOM     24  H12 0EN d   1      28.269 -29.488  -4.371  0.00  0.00     0.028 H 
ATOM     25  H13 0EN d   1      28.520 -29.676  -6.139  0.00  0.00     0.028 H 
ATOM     26  H14 0EN d   1      27.126 -30.479  -5.340  0.00  0.00     0.028 H 
ENDBRANCH  14  23
ENDBRANCH   8  14
ENDBRANCH   3   4
BRANCH   3  27
ATOM     27  C2  0EN d   1      22.540 -26.324  -1.095  0.00  0.00     0.124 C 
ATOM     28  H17 0EN d   1      22.961 -26.097  -0.104  0.00  0.00     0.096 H 
BRANCH  27  29
ATOM     29  C3  0EN d   1      23.105 -25.300  -2.058  0.00  0.00     0.246 C 
ATOM     30  N2  0EN d   1      24.053 -24.511  -1.522  0.00  0.00    -0.351 N 
ATOM     31  H18 0EN d   1      24.262 -24.686  -0.560  0.00  0.00     0.163 HD
ATOM     32  O2  0EN d   1      22.701 -25.260  -3.225  0.00  0.00    -0.271 OA
BRANCH  30  33
ATOM     33  C23 0EN d   1      24.825 -23.429  -2.148  0.00  0.00     0.022 C 
BRANCH  33  34
ATOM     34  C24 0EN d   1      24.786 -23.442  -3.672  0.00  0.00    -0.054 C 
ATOM     35  H19 0EN d   1      25.385 -22.605  -4.061  0.00  0.00     0.030 H 
ATOM     36  H20 0EN d   1      23.745 -23.338  -4.013  0.00  0.00     0.030 H 
ATOM     37  H21 0EN d   1      25.200 -24.392  -4.041  0.00  0.00     0.030 H 
ENDBRANCH  33  34
BRANCH  33  38
ATOM     38  C25 0EN d   1      26.295 -23.512  -1.745  0.00  0.00    -0.054 C 
ATOM     39  H22 0EN d   1      26.853 -22.694  -2.224  0.00  0.00     0.030 H 
ATOM     40  H23 0EN d   1      26.710 -24.478  -2.069  0.00  0.00     0.030 H 
ATOM     41  H24 0EN d   1      26.381 -23.424  -0.652  0.00  0.00     0.030 H 
ENDBRANCH  33  38
BRANCH  33  42
ATOM     42  C26 0EN d   1      24.286 -22.104  -1.622  0.00  0.00    -0.054 C 
ATOM     43  H25 0EN d   1      24.848 -21.274  -2.075  0.00  0.00     0.030 H 
ATOM     44  H26 0EN d   1      24.400 -22.070  -0.528  0.00  0.00     0.030 H 
ATOM     45  H27 0EN d   1      23.221 -22.012  -1.883  0.00  0.00     0.030 H 
ENDBRANCH  33  42
ENDBRANCH  30  33
ENDBRANCH  27  29
BRANCH  27  46
ATOM     46  C18 0EN d   1      21.068 -26.074  -0.973  0.00  0.00    -0.008 A 
ATOM     47  C19 0EN d   1      20.599 -25.321   0.106  0.00  0.00    -0.072 A 
ATOM     48  C20 0EN d   1      19.227 -25.052   0.229  0.00  0.00    -0.065 A 
ATOM     49  H28 0EN d   1      21.294 -24.945   0.848  0.00  0.00     0.084 H 
ATOM     50  C21 0EN d   1      18.380 -25.553  -0.753  0.00  0.00     0.002 A 
ATOM     51  H29 0EN d   1      18.841 -24.474   1.061  0.00  0.00     0.085 H 
ATOM     52  N3  0EN d   1      18.848 -26.246  -1.787  0.00  0.00    -0.272 NA
ATOM     53  H30 0EN d   1      17.314 -25.375  -0.674  0.00  0.00     0.114 H 
ATOM     54  C22 0EN d   1      20.156 -26.529  -1.926  0.00  0.00     0.010 A 
ATOM     55  H31 0EN d   1      20.500 -27.108  -2.775  0.00  0.00     0.115 H 
ENDBRANCH  27  46
ENDBRANCH   3  27
BRANCH   2  56
ATOM     56  C4  0EN d   1      23.141 -30.182  -0.954  0.00  0.00     0.143 A 
ATOM     57  C5  0EN d   1      24.144 -30.726  -1.745  0.00  0.00    -0.043 A 
ATOM     58  C6  0EN d   1      24.109 -32.095  -1.555  0.00  0.00    -0.059 A 
ATOM     59  H1  0EN d   1      24.828 -30.179  -2.392  0.00  0.00     0.088 H 
ATOM     60  C7  0EN d   1      23.099 -32.375  -0.653  0.00  0.00     0.020 A 
ATOM     61  H2  0EN d   1      24.762 -32.825  -2.032  0.00  0.00     0.086 H 
ATOM     62  O3  0EN d   1      22.502 -31.187  -0.274  0.00  0.00    -0.317 OA
ATOM     63  H3  0EN d   1      22.820 -33.367  -0.300  0.00  0.00     0.123 H 
ENDBRANCH   2  56
TORSDOF 13
