REMARK  7 active torsions:
REMARK  status: ('A' for Active; 'I' for Inactive)
REMARK    1  A    between atoms: C12_3  and  O19_4 
REMARK    2  A    between atoms: C13_6  and  O21_7 
REMARK    3  A    between atoms: C15_10  and  O22_11 
REMARK    4  A    between atoms: C14_12  and  O23_13 
REMARK    5  A    between atoms: C7_15  and  C6_16 
REMARK    6  A    between atoms: C4_18  and  O17_19 
REMARK    7  A    between atoms: C3_20  and  O18_21 
ROOT
ATOM      1  O20 MYU d   1      33.982  45.174   5.698  0.00  0.00    -0.284 OA
ATOM      2  C11 MYU d   1      33.046  44.710   5.041  0.00  0.00     0.223 A 
ATOM      3  C12 MYU d   1      31.947  45.523   4.774  0.00  0.00     0.152 A 
ATOM      4  C10 MYU d   1      33.038  43.388   4.538  0.00  0.00     0.087 A 
ATOM      5  C13 MYU d   1      34.074  42.448   4.765  0.00  0.00     0.118 A 
ATOM      6  C9  MYU d   1      31.933  42.935   3.783  0.00  0.00     0.096 A 
ATOM      7  C16 MYU d   1      31.868  41.628   3.268  0.00  0.00    -0.014 A 
ATOM      8  C15 MYU d   1      32.902  40.723   3.493  0.00  0.00     0.104 A 
ATOM      9  C14 MYU d   1      34.006  41.136   4.242  0.00  0.00     0.133 A 
ATOM     10  O8  MYU d   1      30.880  43.795   3.540  0.00  0.00    -0.306 OA
ATOM     11  C7  MYU d   1      30.846  45.097   3.993  0.00  0.00     0.123 A 
ATOM     12  H   MYU d   1      30.999  41.320   2.687  0.00  0.00     0.092 H 
ENDROOT
BRANCH  11  13
ATOM     13  C6  MYU d   1      29.629  45.782   3.775  0.00  0.00     0.004 A 
ATOM     14  C5  MYU d   1      29.357  46.935   4.511  0.00  0.00    -0.035 A 
ATOM     15  C4  MYU d   1      28.151  47.592   4.346  0.00  0.00     0.099 A 
ATOM     16  H   MYU d   1      30.095  47.318   5.216  0.00  0.00     0.089 H 
ATOM     17  C3  MYU d   1      27.192  47.104   3.465  0.00  0.00     0.098 A 
ATOM     18  C2  MYU d   1      27.416  45.934   2.726  0.00  0.00    -0.047 A 
ATOM     19  C1  MYU d   1      28.636  45.277   2.906  0.00  0.00    -0.068 A 
ATOM     20  H   MYU d   1      26.665  45.550   2.035  0.00  0.00     0.087 H 
ATOM     21  H   MYU d   1      28.826  44.352   2.362  0.00  0.00     0.085 H 
BRANCH  15  22
ATOM     22  O17 MYU d   1      27.848  48.727   5.025  0.00  0.00    -0.358 OA
ATOM     23  H   MYU d   1      26.971  49.026   4.772  0.00  0.00     0.217 HD
ENDBRANCH  15  22
BRANCH  17  24
ATOM     24  O18 MYU d   1      26.051  47.850   3.392  0.00  0.00    -0.358 OA
ATOM     25  H   MYU d   1      25.446  47.446   2.766  0.00  0.00     0.217 HD
ENDBRANCH  17  24
ENDBRANCH  11  13
BRANCH   3  26
ATOM     26  O19 MYU d   1      31.989  46.791   5.291  0.00  0.00    -0.355 OA
ATOM     27  H   MYU d   1      32.752  47.254   4.938  0.00  0.00     0.218 HD
ENDBRANCH   3  26
BRANCH   5  28
ATOM     28  O21 MYU d   1      35.176  42.807   5.502  0.00  0.00    -0.357 OA
ATOM     29  H   MYU d   1      35.777  42.061   5.561  0.00  0.00     0.217 HD
ENDBRANCH   5  28
BRANCH   8  30
ATOM     30  O22 MYU d   1      32.895  39.442   3.018  0.00  0.00    -0.358 OA
ATOM     31  H   MYU d   1      33.701  38.997   3.289  0.00  0.00     0.217 HD
ENDBRANCH   8  30
BRANCH   9  32
ATOM     32  O23 MYU d   1      35.030  40.239   4.461  0.00  0.00    -0.356 OA
ATOM     33  H   MYU d   1      35.715  40.659   4.987  0.00  0.00     0.218 HD
ENDBRANCH   9  32
TORSDOF 7
