REMARK WARNING: 32 MAX_TORS EXCEEDED!!!
REMARK  34 active torsions:
REMARK  status: ('A' for Active; 'I' for Inactive)
REMARK    1  A    between atoms: N_1  and  CA_2 
REMARK    2  A    between atoms: CA_2  and  C_3 
REMARK    3  A    between atoms: CA_2  and  CB_5 
REMARK       I    between atoms: C_3  and  N_6 
REMARK    4  A    between atoms: N_6  and  CA_7 
REMARK    5  A    between atoms: CA_7  and  C_8 
REMARK    6  A    between atoms: CA_7  and  CB_10 
REMARK       I    between atoms: C_8  and  N_17 
REMARK    7  A    between atoms: CB_10  and  CG_11 
REMARK    8  A    between atoms: CG_11  and  CD_12 
REMARK    9  A    between atoms: CD_12  and  NE_13 
REMARK       I    between atoms: NE_13  and  CZ_14 
REMARK       I    between atoms: CZ_14  and  NH1_15 
REMARK   10  A    between atoms: N_17  and  CA_18 
REMARK   11  A    between atoms: CA_18  and  C_19 
REMARK   12  A    between atoms: CA_18  and  CB_21 
REMARK       I    between atoms: C_19  and  N_24 
REMARK   13  A    between atoms: CB_21  and  OG1_22 
REMARK   14  A    between atoms: CB_21  and  CG2_23 
REMARK   15  A    between atoms: N_24  and  CA_25 
REMARK   16  A    between atoms: CA_25  and  C_26 
REMARK   17  A    between atoms: CA_25  and  CB_28 
REMARK       I    between atoms: C_26  and  N_33 
REMARK   18  A    between atoms: CB_28  and  CG_29 
REMARK   19  A    between atoms: CG_29  and  CD_30 
REMARK   20  A    between atoms: CD_30  and  CE_31 
REMARK   21  A    between atoms: CE_31  and  NZ_32 
REMARK   22  A    between atoms: N_33  and  CA_34 
REMARK   23  A    between atoms: CA_34  and  C_35 
REMARK   24  A    between atoms: CA_34  and  CB_37 
REMARK       I    between atoms: C_35  and  N_42 
REMARK   25  A    between atoms: CB_37  and  CG_38 
REMARK   26  A    between atoms: CG_38  and  CD_39 
REMARK       I    between atoms: CD_39  and  NE2_41 
REMARK   27  A    between atoms: N_42  and  CA_43 
REMARK   28  A    between atoms: CA_43  and  C_44 
REMARK   29  A    between atoms: CA_43  and  CB_46 
REMARK       I    between atoms: C_44  and  N_49 
REMARK   30  A    between atoms: CB_46  and  OG1_47 
REMARK   31  A    between atoms: CB_46  and  CG2_48 
REMARK   32  A    between atoms: N_49  and  CA_50 
REMARK   33  A    between atoms: CA_50  and  C_51 
REMARK   34  A    between atoms: CA_50  and  CB_53 
ROOT
ATOM      1  CA  LYS d   1      13.967  13.180  17.144  0.00  0.00     0.089 C 
ATOM      2  H29 LYS d   1      14.520  14.055  16.772  0.00  0.00     0.087 H 
ENDROOT
BRANCH   1   3
ATOM      3  N   LYS d   1      14.521  11.991  16.499  0.00  0.00    -0.346 N 
ATOM      4  C   THR d   1      15.764  11.578  16.751  0.00  0.00     0.243 C 
ATOM      5  O   THR d   1      16.546  12.184  17.494  0.00  0.00    -0.271 OA
ATOM      6  H28 LYS d   1      13.956  11.476  15.855  0.00  0.00     0.163 HD
BRANCH   4   7
ATOM      7  CA  THR d   1      16.178  10.276  16.100  0.00  0.00     0.113 C 
ATOM      8  H22 THR d   1      15.810  10.268  15.063  0.00  0.00     0.091 H 
BRANCH   7   9
ATOM      9  N   THR d   1      17.639  10.164  16.052  0.00  0.00    -0.344 N 
ATOM     10  C   ARG d   1      18.281   9.800  14.946  0.00  0.00     0.241 C 
ATOM     11  O   ARG d   1      17.714   9.392  13.941  0.00  0.00    -0.271 OA
ATOM     12  H21 THR d   1      18.169  10.367  16.876  0.00  0.00     0.163 HD
BRANCH  10  13
ATOM     13  CA  ARG d   1      19.789   9.887  14.989  0.00  0.00     0.089 C 
ATOM     14  H9  ARG d   1      20.128   9.844  16.035  0.00  0.00     0.087 H 
BRANCH  13  15
ATOM     15  N   ARG d   1      20.357   8.766  14.256  0.00  0.00    -0.346 N 
ATOM     16  C   ALA d   1      21.027   7.783  14.839  0.00  0.00     0.248 C 
ATOM     17  O   ALA d   1      21.236   7.727  16.056  0.00  0.00    -0.271 OA
ATOM     18  H8  ARG d   1      20.236   8.736  13.264  0.00  0.00     0.163 HD
BRANCH  16  19
ATOM     19  CA  ALA d   1      21.560   6.710  13.898  0.00  0.00     0.172 C 
ATOM     20  H4  ALA d   1      21.980   7.214  13.015  0.00  0.00     0.098 H 
BRANCH  19  21
ATOM     21  N   ALA d   1      22.657   5.927  14.543  0.00  0.00    -0.067 N 
ATOM     22  H1  ALA d   1      22.991   5.225  13.901  0.00  0.00     0.275 HD
ATOM     23  H2  ALA d   1      22.306   5.481  15.376  0.00  0.00     0.275 HD
ATOM     24  H3  ALA d   1      23.413   6.547  14.787  0.00  0.00     0.275 HD
ENDBRANCH  19  21
BRANCH  19  25
ATOM     25  CB  ALA d   1      20.431   5.787  13.419  0.00  0.00    -0.042 C 
ATOM     26  H5  ALA d   1      19.639   6.389  12.950  0.00  0.00     0.030 H 
ATOM     27  H6  ALA d   1      20.015   5.240  14.278  0.00  0.00     0.030 H 
ATOM     28  H7  ALA d   1      20.829   5.070  12.686  0.00  0.00     0.030 H 
ENDBRANCH  19  25
ENDBRANCH  16  19
ENDBRANCH  13  15
BRANCH  13  29
ATOM     29  CB  ARG d   1      20.236  11.216  14.370  0.00  0.00    -0.036 C 
ATOM     30  H10 ARG d   1      19.719  12.032  14.897  0.00  0.00     0.036 H 
ATOM     31  H11 ARG d   1      19.941  11.219  13.310  0.00  0.00     0.036 H 
BRANCH  29  32
ATOM     32  CG  ARG d   1      21.751  11.476  14.448  0.00  0.00    -0.048 C 
ATOM     33  H12 ARG d   1      22.286  10.634  13.985  0.00  0.00     0.035 H 
ATOM     34  H13 ARG d   1      22.048  11.563  15.503  0.00  0.00     0.035 H 
BRANCH  32  35
ATOM     35  CD  ARG d   1      22.115  12.760  13.719  0.00  0.00     0.009 C 
ATOM     36  H14 ARG d   1      23.194  12.943  13.825  0.00  0.00     0.064 H 
ATOM     37  H15 ARG d   1      21.556  13.598  14.161  0.00  0.00     0.064 H 
BRANCH  35  38
ATOM     38  NE  ARG d   1      21.783  12.656  12.300  0.00  0.00    -0.227 N 
ATOM     39  CZ  ARG d   1      20.989  13.494  11.621  0.00  0.00     0.665 C 
ATOM     40  NH1 ARG d   1      20.455  14.564  12.195  0.00  0.00    -0.235 N 
ATOM     41  NH2 ARG d   1      20.740  13.259  10.344  0.00  0.00    -0.235 N 
ATOM     42  H17 ARG d   1      19.848  15.192  11.649  0.00  0.00     0.174 HD
ATOM     43  H18 ARG d   1      20.648  14.767  13.186  0.00  0.00     0.174 HD
ATOM     44  H19 ARG d   1      21.147  12.432   9.883  0.00  0.00     0.174 HD
ATOM     45  H20 ARG d   1      20.139  13.902   9.810  0.00  0.00     0.174 HD
ATOM     46  H16 ARG d   1      22.195  11.870  11.777  0.00  0.00     0.177 HD
ENDBRANCH  35  38
ENDBRANCH  32  35
ENDBRANCH  29  32
ENDBRANCH  13  29
ENDBRANCH  10  13
ENDBRANCH   7   9
BRANCH   7  47
ATOM     47  CB  THR d   1      15.490   9.116  16.862  0.00  0.00     0.060 C 
ATOM     48  H23 THR d   1      14.425   9.123  16.586  0.00  0.00     0.086 H 
BRANCH  47  49
ATOM     49  OG1 THR d   1      15.578   9.318  18.280  0.00  0.00    -0.393 OA
ATOM     50  H24 THR d   1      16.492   9.356  18.537  0.00  0.00     0.210 HD
ENDBRANCH  47  49
BRANCH  47  51
ATOM     51  CG2 THR d   1      16.050   7.767  16.478  0.00  0.00    -0.050 C 
ATOM     52  H25 THR d   1      15.531   6.980  17.044  0.00  0.00     0.031 H 
ATOM     53  H26 THR d   1      17.125   7.737  16.710  0.00  0.00     0.031 H 
ATOM     54  H27 THR d   1      15.902   7.602  15.401  0.00  0.00     0.031 H 
ENDBRANCH  47  51
ENDBRANCH   7  47
ENDBRANCH   4   7
ENDBRANCH   1   3
BRANCH   1  55
ATOM     55  C   LYS d   1      14.106  13.142  18.668  0.00  0.00     0.241 C 
ATOM     56  O   LYS d   1      14.486  14.145  19.284  0.00  0.00    -0.271 OA
ATOM     57  N   GLN d   1      13.789  11.999  19.280  0.00  0.00    -0.346 N 
ATOM     58  H41 GLN d   1      13.611  11.181  18.734  0.00  0.00     0.163 HD
BRANCH  57  59
ATOM     59  CA  GLN d   1      13.698  11.926  20.743  0.00  0.00     0.090 C 
ATOM     60  H42 GLN d   1      13.339  12.903  21.100  0.00  0.00     0.087 H 
BRANCH  59  61
ATOM     61  C   GLN d   1      15.049  11.666  21.392  0.00  0.00     0.241 C 
ATOM     62  O   GLN d   1      15.165  11.728  22.621  0.00  0.00    -0.271 OA
ATOM     63  N   THR d   1      16.073  11.372  20.602  0.00  0.00    -0.344 N 
ATOM     64  H49 THR d   1      15.922  11.211  19.627  0.00  0.00     0.163 HD
BRANCH  63  65
ATOM     65  CA  THR d   1      17.426  11.283  21.160  0.00  0.00     0.113 C 
ATOM     66  H50 THR d   1      17.320  11.257  22.255  0.00  0.00     0.091 H 
BRANCH  65  67
ATOM     67  C   THR d   1      18.270  12.505  20.809  0.00  0.00     0.243 C 
ATOM     68  O   THR d   1      19.386  12.653  21.321  0.00  0.00    -0.271 OA
ATOM     69  N   ALA d   1      17.731  13.388  19.967  0.00  0.00    -0.345 N 
ATOM     70  H56 ALA d   1      16.826  13.196  19.588  0.00  0.00     0.163 HD
BRANCH  69  71
ATOM     71  CA  ALA d   1      18.410  14.631  19.571  0.00  0.00     0.093 C 
ATOM     72  H57 ALA d   1      19.493  14.470  19.676  0.00  0.00     0.089 H 
BRANCH  71  73
ATOM     73  C   ALA d   1      18.025  15.816  20.465  0.00  0.00     0.196 C 
ATOM     74  O   ALA d   1      16.961  15.814  21.103  0.00  0.00    -0.646 OA
ATOM     75  OXT ALA d   1      18.769  16.803  20.570  0.00  0.00    -0.646 OA
ENDBRANCH  71  73
BRANCH  71  76
ATOM     76  CB  ALA d   1      18.117  14.952  18.108  0.00  0.00    -0.048 C 
ATOM     77  H58 ALA d   1      18.631  15.883  17.827  0.00  0.00     0.030 H 
ATOM     78  H59 ALA d   1      17.033  15.076  17.970  0.00  0.00     0.030 H 
ATOM     79  H60 ALA d   1      18.476  14.129  17.473  0.00  0.00     0.030 H 
ENDBRANCH  71  76
ENDBRANCH  69  71
ENDBRANCH  65  67
BRANCH  65  80
ATOM     80  CB  THR d   1      18.163   9.997  20.739  0.00  0.00     0.060 C 
ATOM     81  H51 THR d   1      19.224  10.092  21.014  0.00  0.00     0.086 H 
BRANCH  80  82
ATOM     82  OG1 THR d   1      18.061   9.828  19.321  0.00  0.00    -0.393 OA
ATOM     83  H52 THR d   1      18.516   9.035  19.064  0.00  0.00     0.210 HD
ENDBRANCH  80  82
BRANCH  80  84
ATOM     84  CG2 THR d   1      17.581   8.772  21.444  0.00  0.00    -0.050 C 
ATOM     85  H53 THR d   1      18.126   7.872  21.124  0.00  0.00     0.031 H 
ATOM     86  H54 THR d   1      16.517   8.669  21.182  0.00  0.00     0.031 H 
ATOM     87  H55 THR d   1      17.681   8.894  22.533  0.00  0.00     0.031 H 
ENDBRANCH  80  84
ENDBRANCH  65  80
ENDBRANCH  63  65
ENDBRANCH  59  61
BRANCH  59  88
ATOM     88  CB  GLN d   1      12.685  10.864  21.184  0.00  0.00    -0.030 C 
ATOM     89  H43 GLN d   1      12.719  10.794  22.281  0.00  0.00     0.037 H 
ATOM     90  H44 GLN d   1      12.987   9.901  20.746  0.00  0.00     0.037 H 
BRANCH  88  91
ATOM     91  CG  GLN d   1      11.241  11.140  20.772  0.00  0.00     0.011 C 
ATOM     92  H45 GLN d   1      10.634  10.261  21.034  0.00  0.00     0.047 H 
ATOM     93  H46 GLN d   1      11.217  11.292  19.683  0.00  0.00     0.047 H 
BRANCH  91  94
ATOM     94  CD  GLN d   1      10.625  12.354  21.433  0.00  0.00     0.215 C 
ATOM     95  OE1 GLN d   1      11.076  12.797  22.485  0.00  0.00    -0.274 OA
ATOM     96  NE2 GLN d   1       9.571  12.893  20.818  0.00  0.00    -0.370 N 
ATOM     97  H47 GLN d   1       9.122  13.697  21.208  0.00  0.00     0.159 HD
ATOM     98  H48 GLN d   1       9.230  12.493  19.967  0.00  0.00     0.159 HD
ENDBRANCH  91  94
ENDBRANCH  88  91
ENDBRANCH  59  88
ENDBRANCH  57  59
ENDBRANCH   1  55
BRANCH   1  99
ATOM     99  CB  LYS d   1      12.494  13.345  16.780  0.00  0.00    -0.038 C 
ATOM    100  H30 LYS d   1      11.946  12.460  17.134  0.00  0.00     0.036 H 
ATOM    101  H31 LYS d   1      12.411  13.415  15.685  0.00  0.00     0.036 H 
BRANCH  99 102
ATOM    102  CG  LYS d   1      11.866  14.567  17.384  0.00  0.00    -0.061 C 
ATOM    103  H32 LYS d   1      12.385  15.461  17.007  0.00  0.00     0.033 H 
ATOM    104  H33 LYS d   1      11.967  14.519  18.478  0.00  0.00     0.033 H 
BRANCH 102 105
ATOM    105  CD  LYS d   1      10.409  14.660  17.030  0.00  0.00    -0.043 C 
ATOM    106  H34 LYS d   1       9.875  13.790  17.440  0.00  0.00     0.035 H 
ATOM    107  H35 LYS d   1      10.297  14.676  15.936  0.00  0.00     0.035 H 
BRANCH 105 108
ATOM    108  CE  LYS d   1       9.832  15.930  17.616  0.00  0.00     0.080 C 
ATOM    109  H36 LYS d   1      10.460  16.782  17.316  0.00  0.00     0.075 H 
ATOM    110  H37 LYS d   1       9.825  15.848  18.713  0.00  0.00     0.075 H 
BRANCH 108 111
ATOM    111  NZ  LYS d   1       8.443  16.158  17.137  0.00  0.00    -0.079 N 
ATOM    112  H38 LYS d   1       8.083  17.008  17.541  0.00  0.00     0.274 HD
ATOM    113  H39 LYS d   1       7.861  15.383  17.413  0.00  0.00     0.274 HD
ATOM    114  H40 LYS d   1       8.443  16.238  16.132  0.00  0.00     0.274 HD
ENDBRANCH 108 111
ENDBRANCH 105 108
ENDBRANCH 102 105
ENDBRANCH  99 102
ENDBRANCH   1  99
TORSDOF 34
