REMARK  7 active torsions:
REMARK  status: ('A' for Active; 'I' for Inactive)
REMARK    1  A    between atoms: N4_1  and  C4_3 
REMARK    2  A    between atoms: C3_8  and  C31_2 
REMARK    3  A    between atoms: C3_8  and  C1B_9 
REMARK    4  A    between atoms: C4B_12  and  O4_15 
REMARK    5  A    between atoms: N1_16  and  C1A_17 
REMARK    6  A    between atoms: C4A_20  and  C41_23 
REMARK    7  A    between atoms: C5A_21  and  C51_25 
ROOT
ATOM      1  N4  PK0 d   1      28.880  -0.125   3.415  0.00  0.00    -0.315 N 
ATOM      2  O2  PK0 d   1      29.727   2.655   5.394  0.00  0.00    -0.269 OA
ATOM      3  C2  PK0 d   1      29.262   1.841   4.685  0.00  0.00     0.265 C 
ATOM      4  O5  PK0 d   1      26.934   0.694   2.381  0.00  0.00    -0.246 OA
ATOM      5  C5  PK0 d   1      27.892   0.850   3.094  0.00  0.00     0.333 C 
ATOM      6  C3  PK0 d   1      29.709   0.464   4.436  0.00  0.00     0.142 C 
ATOM      7  N1  PK0 d   1      28.303   2.043   3.742  0.00  0.00    -0.231 N 
ENDROOT
BRANCH   7   8
ATOM      8  C1A PK0 d   1      27.405   3.125   3.713  0.00  0.00     0.048 A 
ATOM      9  C2A PK0 d   1      27.918   4.426   3.580  0.00  0.00    -0.056 A 
ATOM     10  C3A PK0 d   1      27.108   5.546   3.558  0.00  0.00    -0.069 A 
ATOM     11  H12 PK0 d   1      28.990   4.557   3.491  0.00  0.00     0.087 H 
ATOM     12  C4A PK0 d   1      25.724   5.374   3.649  0.00  0.00    -0.004 A 
ATOM     13  H13 PK0 d   1      27.538   6.537   3.472  0.00  0.00     0.085 H 
ATOM     14  C5A PK0 d   1      25.193   4.112   3.778  0.00  0.00     0.061 A 
ATOM     15  C6A PK0 d   1      26.017   2.988   3.808  0.00  0.00    -0.041 A 
ATOM     16  H14 PK0 d   1      25.579   2.001   3.906  0.00  0.00     0.088 H 
BRANCH  12  17
ATOM     17  C41 PK0 d   1      24.880   6.606   3.521  0.00  0.00     0.004 C 
ATOM     18  N41 PK0 d   1      24.395   7.741   3.516  0.00  0.00    -0.311 NA
ATOM     19  H16 PK0 d   1      23.457   7.887   3.177  0.00  0.00     0.186 HD
ATOM     20  H15 PK0 d   1      24.007   6.106   3.104  0.00  0.00     0.115 H 
ENDBRANCH  12  17
BRANCH  14  21
ATOM     21  C51 PK0 d   1      23.729   3.980   3.909  0.00  0.00     0.418 C 
ATOM     22  F1  PK0 d   1      23.013   4.664   3.169  0.00  0.00    -0.166 F 
ATOM     23  F2  PK0 d   1      23.203   4.252   4.999  0.00  0.00    -0.166 F 
ATOM     24  F3  PK0 d   1      23.204   2.881   3.677  0.00  0.00    -0.166 F 
ENDBRANCH  14  21
ENDBRANCH   7   8
BRANCH   6  25
ATOM     25  C31 PK0 d   1      31.021   0.854   3.749  0.00  0.00    -0.040 C 
ATOM     26  H1  PK0 d   1      31.698   1.312   4.485  0.00  0.00     0.032 H 
ATOM     27  H2  PK0 d   1      30.813   1.574   2.944  0.00  0.00     0.032 H 
ATOM     28  H3  PK0 d   1      31.494  -0.044   3.325  0.00  0.00     0.032 H 
ENDBRANCH   6  25
BRANCH   6  29
ATOM     29  C1B PK0 d   1      29.718  -0.229   5.766  0.00  0.00    -0.021 A 
ATOM     30  C2B PK0 d   1      30.798  -0.135   6.642  0.00  0.00    -0.071 A 
ATOM     31  C3B PK0 d   1      30.729  -0.826   7.852  0.00  0.00    -0.050 A 
ATOM     32  H7  PK0 d   1      31.669   0.459   6.390  0.00  0.00     0.084 H 
ATOM     33  C4B PK0 d   1      29.628  -1.555   8.269  0.00  0.00     0.065 A 
ATOM     34  H8  PK0 d   1      31.592  -0.790   8.507  0.00  0.00     0.087 H 
ATOM     35  C5B PK0 d   1      28.558  -1.641   7.367  0.00  0.00    -0.050 A 
ATOM     36  C6B PK0 d   1      28.612  -0.980   6.151  0.00  0.00    -0.071 A 
ATOM     37  H9  PK0 d   1      27.683  -2.228   7.623  0.00  0.00     0.087 H 
ATOM     38  H10 PK0 d   1      27.765  -1.050   5.478  0.00  0.00     0.084 H 
BRANCH  33  39
ATOM     39  O4  PK0 d   1      29.621  -2.252   9.489  0.00  0.00    -0.361 OA
ATOM     40  H11 PK0 d   1      28.877  -1.971  10.009  0.00  0.00     0.217 HD
ENDBRANCH  33  39
ENDBRANCH   6  29
BRANCH   1  41
ATOM     41  C4  PK0 d   1      29.016  -1.432   2.748  0.00  0.00    -0.013 C 
ATOM     42  H4  PK0 d   1      28.204  -1.557   2.017  0.00  0.00     0.056 H 
ATOM     43  H5  PK0 d   1      28.960  -2.234   3.498  0.00  0.00     0.056 H 
ATOM     44  H6  PK0 d   1      29.986  -1.481   2.231  0.00  0.00     0.056 H 
ENDBRANCH   1  41
TORSDOF 7
