REMARK  19 active torsions:
REMARK  status: ('A' for Active; 'I' for Inactive)
REMARK    1  A    between atoms: C2_3  and  C1_1 
REMARK    2  A    between atoms: C1_1  and  C4_6 
REMARK    3  A    between atoms: C1_1  and  C8_13 
REMARK    4  A    between atoms: C5_8  and  C2_3 
REMARK    5  A    between atoms: C2_3  and  O6_11 
REMARK    6  A    between atoms: C6_10  and  C3_5 
REMARK    7  A    between atoms: C4_6  and  O5_9 
REMARK    8  A    between atoms: C10_15  and  C5_8 
REMARK    9  A    between atoms: C9_14  and  C6_10 
REMARK   10  A    between atoms: C14_19  and  C7_12 
REMARK   11  A    between atoms: C12_17  and  C9_14 
REMARK   12  A    between atoms: C9_14  and  C21_23 
REMARK   13  A    between atoms: C11_16  and  C10_15 
REMARK   14  A    between atoms: C20_22  and  C11_16 
REMARK   15  A    between atoms: C14_19  and  C12_17 
REMARK   16  A    between atoms: C18_21  and  C13_18 
REMARK   17  A    between atoms: C16_20  and  C14_19 
REMARK   18  A    between atoms: C18_21  and  C16_20 
REMARK   19  A    between atoms: C18_21  and  C20_22 
ROOT
ATOM      1  C18 F24 d   1      32.746   3.394  18.613  0.00  0.00    -0.057 C 
ATOM      2  H   F24 d   1      32.300   4.216  18.053  0.00  0.00     0.039 H 
ENDROOT
BRANCH   1   3
ATOM      3  C13 F24 d   1      32.090   3.190  19.980  0.00  0.00    -0.073 C 
ATOM      4  H   F24 d   1      32.600   2.385  20.510  0.00  0.00     0.028 H 
ATOM      5  H   F24 d   1      32.164   4.111  20.558  0.00  0.00     0.028 H 
ATOM      6  H   F24 d   1      31.041   2.929  19.843  0.00  0.00     0.028 H 
ENDBRANCH   1   3
BRANCH   1   7
ATOM      7  C16 F24 d   1      34.244   3.766  18.838  0.00  0.00    -0.059 C 
ATOM      8  H   F24 d   1      34.664   2.935  19.405  0.00  0.00     0.034 H 
ATOM      9  H   F24 d   1      34.642   3.965  17.843  0.00  0.00     0.034 H 
BRANCH   7  10
ATOM     10  C14 F24 d   1      34.560   4.998  19.646  0.00  0.00    -0.057 C 
ATOM     11  H   F24 d   1      35.620   4.933  19.401  0.00  0.00     0.039 H 
BRANCH  10  12
ATOM     12  C7  F24 d   1      34.142   6.309  19.089  0.00  0.00    -0.073 C 
ATOM     13  H   F24 d   1      33.249   6.656  19.610  0.00  0.00     0.028 H 
ATOM     14  H   F24 d   1      34.946   7.032  19.223  0.00  0.00     0.028 H 
ATOM     15  H   F24 d   1      33.925   6.198  18.027  0.00  0.00     0.028 H 
ENDBRANCH  10  12
BRANCH  10  16
ATOM     16  C12 F24 d   1      34.873   4.931  20.954  0.00  0.00    -0.059 C 
ATOM     17  H   F24 d   1      33.891   4.898  21.427  0.00  0.00     0.034 H 
ATOM     18  H   F24 d   1      35.605   4.124  20.977  0.00  0.00     0.034 H 
BRANCH  16  19
ATOM     19  C9  F24 d   1      35.553   5.994  21.715  0.00  0.00    -0.048 C 
ATOM     20  H   F24 d   1      34.734   5.921  22.430  0.00  0.00     0.040 H 
BRANCH  19  21
ATOM     21  C6  F24 d   1      35.279   7.284  21.517  0.00  0.00     0.019 C 
ATOM     22  H   F24 d   1      36.253   7.713  21.282  0.00  0.00     0.049 H 
ATOM     23  H   F24 d   1      34.457   7.258  20.802  0.00  0.00     0.049 H 
BRANCH  21  24
ATOM     24  C3  F24 d   1      34.753   8.195  22.620  0.00  0.00     0.172 C 
ATOM     25  O1  F24 d   1      34.351   9.315  22.240  0.00  0.00    -0.648 OA
ATOM     26  O4  F24 d   1      34.759   7.771  23.795  0.00  0.00    -0.648 OA
ENDBRANCH  21  24
ENDBRANCH  19  21
BRANCH  19  27
ATOM     27  C21 F24 d   1      36.755   5.646  22.524  0.00  0.00    -0.072 C 
ATOM     28  H   F24 d   1      37.645   6.053  22.044  0.00  0.00     0.028 H 
ATOM     29  H   F24 d   1      36.654   6.070  23.523  0.00  0.00     0.028 H 
ATOM     30  H   F24 d   1      36.842   4.562  22.595  0.00  0.00     0.028 H 
ENDBRANCH  19  27
ENDBRANCH  16  19
ENDBRANCH  10  16
ENDBRANCH   7  10
ENDBRANCH   1   7
BRANCH   1  31
ATOM     31  C20 F24 d   1      32.527   2.105  17.759  0.00  0.00    -0.062 C 
ATOM     32  H   F24 d   1      33.515   1.704  17.531  0.00  0.00     0.033 H 
ATOM     33  H   F24 d   1      31.890   1.442  18.344  0.00  0.00     0.033 H 
BRANCH  31  34
ATOM     34  C11 F24 d   1      31.813   2.338  16.407  0.00  0.00    -0.065 C 
ATOM     35  H   F24 d   1      30.743   2.358  16.614  0.00  0.00     0.033 H 
ATOM     36  H   F24 d   1      32.216   3.261  15.991  0.00  0.00     0.033 H 
BRANCH  34  37
ATOM     37  C10 F24 d   1      32.046   1.228  15.348  0.00  0.00    -0.063 C 
ATOM     38  H   F24 d   1      31.303   1.365  14.562  0.00  0.00     0.033 H 
ATOM     39  H   F24 d   1      33.074   1.321  14.999  0.00  0.00     0.033 H 
BRANCH  37  40
ATOM     40  C5  F24 d   1      31.874  -0.197  15.900  0.00  0.00    -0.040 C 
ATOM     41  H   F24 d   1      32.511  -0.276  16.781  0.00  0.00     0.036 H 
ATOM     42  H   F24 d   1      30.811  -0.336  16.094  0.00  0.00     0.036 H 
BRANCH  40  43
ATOM     43  C2  F24 d   1      32.310  -1.331  14.921  0.00  0.00     0.047 C 
ATOM     44  H   F24 d   1      33.288  -1.067  14.519  0.00  0.00     0.084 H 
BRANCH  43  45
ATOM     45  C1  F24 d   1      31.357  -1.537  13.704  0.00  0.00     0.042 C 
ATOM     46  H   F24 d   1      30.387  -1.132  13.995  0.00  0.00     0.058 H 
BRANCH  45  47
ATOM     47  C4  F24 d   1      31.908  -0.809  12.456  0.00  0.00     0.028 C 
ATOM     48  H   F24 d   1      32.785  -1.316  12.054  0.00  0.00     0.075 H 
ATOM     49  H   F24 d   1      32.238   0.201  12.697  0.00  0.00     0.075 H 
BRANCH  47  50
ATOM     50  O5  F24 d   1      30.852  -0.797  11.529  0.00  0.00    -0.400 OA
ATOM     51  H   F24 d   1      31.137  -0.354  10.727  0.00  0.00     0.209 HD
ENDBRANCH  47  50
ENDBRANCH  45  47
BRANCH  45  52
ATOM     52  C8  F24 d   1      31.213  -3.014  13.345  0.00  0.00     0.096 C 
ATOM     53  O2  F24 d   1      30.140  -3.561  13.290  0.00  0.00    -0.306 OA
ATOM     54  H   F24 d   1      32.111  -3.594  13.131  0.00  0.00     0.144 H 
ENDBRANCH  45  52
ENDBRANCH  43  45
BRANCH  43  55
ATOM     55  O6  F24 d   1      32.260  -2.514  15.668  0.00  0.00    -0.395 OA
ATOM     56  H   F24 d   1      32.520  -3.253  15.113  0.00  0.00     0.210 HD
ENDBRANCH  43  55
ENDBRANCH  40  43
ENDBRANCH  37  40
ENDBRANCH  34  37
ENDBRANCH  31  34
ENDBRANCH   1  31
TORSDOF 19
