REMARK  5 active torsions:
REMARK  status: ('A' for Active; 'I' for Inactive)
REMARK    1  A    between atoms: S1_1  and  N1_4 
REMARK    2  A    between atoms: C3_7  and  S1_1 
REMARK    3  A    between atoms: C6_10  and  N2_11 
REMARK    4  A    between atoms: N2_11  and  S2_12 
REMARK    5  A    between atoms: S2_12  and  N3_15 
ROOT
ATOM      1  C1  0F3 d   1      -3.591   3.705  14.798  0.00  0.00    -0.055 A 
ATOM      2  C2  0F3 d   1      -4.012   2.551  15.504  0.00  0.00    -0.058 A 
ATOM      3  C3  0F3 d   1      -5.396   2.390  15.783  0.00  0.00     0.079 A 
ATOM      4  C4  0F3 d   1      -6.339   3.356  15.363  0.00  0.00    -0.058 A 
ATOM      5  C5  0F3 d   1      -5.900   4.493  14.664  0.00  0.00    -0.055 A 
ATOM      6  C6  0F3 d   1      -4.540   4.682  14.377  0.00  0.00     0.044 A 
ATOM      7  H   0F3 d   1      -2.534   3.847  14.575  0.00  0.00     0.087 H 
ATOM      8  H   0F3 d   1      -3.289   1.802  15.827  0.00  0.00     0.086 H 
ATOM      9  H   0F3 d   1      -7.399   3.220  15.580  0.00  0.00     0.086 H 
ATOM     10  H   0F3 d   1      -6.626   5.239  14.340  0.00  0.00     0.087 H 
ENDROOT
BRANCH   6  11
ATOM     11  N2  0F3 d   1      -4.156   5.869  13.678  0.00  0.00    -0.268 N 
ATOM     12  H   0F3 d   1      -4.863   6.597  13.573  0.00  0.00     0.180 HD
BRANCH  11  13
ATOM     13  S2  0F3 d   1      -2.693   6.158  13.037  0.00  0.00     0.317 S 
ATOM     14  O3  0F3 d   1      -1.761   6.247  14.129  0.00  0.00    -0.183 OA
ATOM     15  O4  0F3 d   1      -2.858   7.311  12.209  0.00  0.00    -0.183 OA
BRANCH  13  16
ATOM     16  N3  0F3 d   1      -2.300   4.924  12.110  0.00  0.00    -0.311 N 
ATOM     17  H   0F3 d   1      -1.492   4.348  12.344  0.00  0.00     0.170 HD
ATOM     18  H   0F3 d   1      -2.857   4.710  11.283  0.00  0.00     0.170 HD
ENDBRANCH  13  16
ENDBRANCH  11  13
ENDBRANCH   6  11
BRANCH   3  19
ATOM     19  S1  0F3 d   1      -5.966   0.955  16.674  0.00  0.00     0.256 S 
ATOM     20  O1  0F3 d   1      -7.410   0.939  16.591  0.00  0.00    -0.201 OA
ATOM     21  O2  0F3 d   1      -5.434   1.044  18.008  0.00  0.00    -0.201 OA
BRANCH  19  22
ATOM     22  N1  0F3 d   1      -5.360  -0.325  15.953  0.00  0.00    -0.324 N 
ATOM     23  H   0F3 d   1      -5.981  -1.008  15.520  0.00  0.00     0.169 HD
ATOM     24  H   0F3 d   1      -4.350  -0.463  15.923  0.00  0.00     0.169 HD
ENDBRANCH  19  22
ENDBRANCH   3  19
TORSDOF 5
