REMARK  11 active torsions:
REMARK  status: ('A' for Active; 'I' for Inactive)
REMARK    1  A    between atoms: NAM_6  and  CAL_7 
REMARK    2  A    between atoms: CAL_7  and  CAK_8 
REMARK    3  A    between atoms: CAK_8  and  OAJ_9 
REMARK    4  A    between atoms: OAJ_9  and  CAD_10 
REMARK    5  A    between atoms: CAB_12  and  CAS_13 
REMARK    6  A    between atoms: CAS_13  and  CBB_14 
REMARK    7  A    between atoms: CAS_13  and  CBC_16 
REMARK    8  A    between atoms: CAS_13  and  OBF_18 
REMARK    9  A    between atoms: CBB_14  and  CBD_15 
REMARK   10  A    between atoms: CBC_16  and  CBE_17 
REMARK   11  A    between atoms: CAH_24  and  CAT_25 
ROOT
ATOM      1  CAD 0F2 d   1     -53.200 -17.941  29.167  0.00  0.00     0.082 A 
ATOM      2  CAA 0F2 d   1     -52.914 -17.944  30.536  0.00  0.00    -0.041 A 
ATOM      3  CAB 0F2 d   1     -52.147 -16.922  31.106  0.00  0.00    -0.019 A 
ATOM      4  CAC 0F2 d   1     -51.661 -15.894  30.291  0.00  0.00    -0.047 A 
ATOM      5  CAF 0F2 d   1     -51.937 -15.897  28.921  0.00  0.00     0.046 A 
ATOM      6  NAG 0F2 d   1     -51.621 -15.064  27.936  0.00  0.00    -0.354 N 
ATOM      7  CAE 0F2 d   1     -52.711 -16.909  28.361  0.00  0.00     0.026 A 
ATOM      8  CAI 0F2 d   1     -52.792 -16.661  27.056  0.00  0.00    -0.040 A 
ATOM      9  CAH 0F2 d   1     -52.141 -15.523  26.797  0.00  0.00     0.063 A 
ATOM     10  H   0F2 d   1     -53.292 -18.750  31.165  0.00  0.00     0.088 H 
ATOM     11  H   0F2 d   1     -51.066 -15.090  30.725  0.00  0.00     0.088 H 
ATOM     12  H   0F2 d   1     -51.070 -14.211  28.035  0.00  0.00     0.166 HD
ATOM     13  H   0F2 d   1     -53.304 -17.282  26.321  0.00  0.00     0.088 H 
ENDROOT
BRANCH   1  14
ATOM     14  OAJ 0F2 d   1     -53.905 -18.962  28.603  0.00  0.00    -0.348 OA
BRANCH  14  15
ATOM     15  CAK 0F2 d   1     -55.225 -19.110  29.154  0.00  0.00     0.051 C 
ATOM     16  H   0F2 d   1     -55.173 -19.184  30.240  0.00  0.00     0.077 H 
ATOM     17  H   0F2 d   1     -55.837 -18.243  28.904  0.00  0.00     0.077 H 
BRANCH  15  18
ATOM     18  CAL 0F2 d   1     -55.844 -20.382  28.566  0.00  0.00     0.133 C 
ATOM     19  H   0F2 d   1     -55.050 -21.024  28.186  0.00  0.00     0.083 H 
ATOM     20  H   0F2 d   1     -56.404 -20.901  29.344  0.00  0.00     0.083 H 
BRANCH  18  21
ATOM     21  NAM 0F2 d   1     -56.756 -20.036  27.463  0.00  0.00     0.094 N 
ATOM     22  CAN 0F2 d   1     -57.620 -21.193  27.161  0.00  0.00     0.133 C 
ATOM     23  CAO 0F2 d   1     -58.555 -20.847  25.993  0.00  0.00     0.044 C 
ATOM     24  H   0F2 d   1     -57.000 -22.047  26.888  0.00  0.00     0.083 H 
ATOM     25  H   0F2 d   1     -58.215 -21.440  28.040  0.00  0.00     0.083 H 
ATOM     26  OAP 0F2 d   1     -57.783 -20.450  24.836  0.00  0.00    -0.388 OA
ATOM     27  H   0F2 d   1     -59.205 -20.023  26.288  0.00  0.00     0.077 H 
ATOM     28  H   0F2 d   1     -59.151 -21.724  25.741  0.00  0.00     0.077 H 
ATOM     29  CAQ 0F2 d   1     -56.949 -19.304  25.122  0.00  0.00     0.044 C 
ATOM     30  CAR 0F2 d   1     -55.985 -19.641  26.269  0.00  0.00     0.133 C 
ATOM     31  H   0F2 d   1     -57.578 -18.462  25.413  0.00  0.00     0.077 H 
ATOM     32  H   0F2 d   1     -56.376 -19.043  24.233  0.00  0.00     0.077 H 
ATOM     33  H   0F2 d   1     -55.379 -18.765  26.502  0.00  0.00     0.083 H 
ATOM     34  H   0F2 d   1     -55.337 -20.464  25.968  0.00  0.00     0.083 H 
ENDBRANCH  18  21
ENDBRANCH  15  18
ENDBRANCH  14  15
ENDBRANCH   1  14
BRANCH   3  35
ATOM     35  CAS 0F2 d   1     -51.869 -16.903  32.622  0.00  0.00     0.084 C 
BRANCH  35  36
ATOM     36  CBB 0F2 d   1     -52.683 -15.758  33.237  0.00  0.00    -0.036 C 
ATOM     37  H   0F2 d   1     -53.731 -15.910  32.979  0.00  0.00     0.037 H 
ATOM     38  H   0F2 d   1     -52.295 -14.818  32.846  0.00  0.00     0.037 H 
BRANCH  36  39
ATOM     39  CBD 0F2 d   1     -52.569 -15.722  34.764  0.00  0.00    -0.073 C 
ATOM     40  H   0F2 d   1     -52.938 -16.661  35.177  0.00  0.00     0.027 H 
ATOM     41  H   0F2 d   1     -51.525 -15.585  35.046  0.00  0.00     0.027 H 
ATOM     42  H   0F2 d   1     -53.163 -14.894  35.152  0.00  0.00     0.027 H 
ENDBRANCH  36  39
ENDBRANCH  35  36
BRANCH  35  43
ATOM     43  CBC 0F2 d   1     -50.375 -16.665  32.891  0.00  0.00    -0.036 C 
ATOM     44  H   0F2 d   1     -50.233 -16.562  33.967  0.00  0.00     0.037 H 
ATOM     45  H   0F2 d   1     -50.069 -15.767  32.354  0.00  0.00     0.037 H 
BRANCH  43  46
ATOM     46  CBE 0F2 d   1     -49.515 -17.834  32.402  0.00  0.00    -0.073 C 
ATOM     47  H   0F2 d   1     -49.815 -18.745  32.919  0.00  0.00     0.027 H 
ATOM     48  H   0F2 d   1     -49.654 -17.961  31.328  0.00  0.00     0.027 H 
ATOM     49  H   0F2 d   1     -48.466 -17.624  32.612  0.00  0.00     0.027 H 
ENDBRANCH  43  46
ENDBRANCH  35  43
BRANCH  35  50
ATOM     50  OBF 0F2 d   1     -52.269 -18.141  33.228  0.00  0.00    -0.385 OA
ATOM     51  H   0F2 d   1     -51.762 -18.861  32.846  0.00  0.00     0.211 HD
ENDBRANCH  35  50
ENDBRANCH   3  35
BRANCH   9  52
ATOM     52  CAT 0F2 d   1     -52.001 -14.899  25.557  0.00  0.00     0.096 A 
ATOM     53  CAW 0F2 d   1     -52.643 -15.288  24.395  0.00  0.00     0.065 A 
ATOM     54  S1  0F2 d   1     -53.686 -16.368  23.645  0.00  0.00    -0.097 SA
ATOM     55  CAX 0F2 d   1     -52.217 -14.390  23.420  0.00  0.00     0.097 A 
ATOM     56  CAZ 0F2 d   1     -53.587 -15.674  22.106  0.00  0.00    -0.042 A 
ATOM     57  CAY 0F2 d   1     -52.753 -14.628  22.200  0.00  0.00    -0.046 A 
ATOM     58  H   0F2 d   1     -54.103 -16.013  21.208  0.00  0.00     0.095 H 
ATOM     59  H   0F2 d   1     -52.519 -14.002  21.339  0.00  0.00     0.087 H 
ATOM     60  NAV 0F2 d   1     -51.404 -13.540  24.056  0.00  0.00    -0.173 NA
ATOM     61  NAU 0F2 d   1     -51.278 -13.823  25.254  0.00  0.00    -0.274 N 
ATOM     62  H   0F2 d   1     -50.701 -13.305  25.916  0.00  0.00     0.189 HD
ENDBRANCH   9  52
TORSDOF 11
