REMARK  10 active torsions:
REMARK  status: ('A' for Active; 'I' for Inactive)
REMARK    1  A    between atoms: CBE_1  and  OBD_2 
REMARK    2  A    between atoms: OBD_2  and  CBA_3 
REMARK    3  A    between atoms: CAX_8  and  CAG_9 
REMARK    4  A    between atoms: CAC_13  and  CAJ_14 
REMARK    5  A    between atoms: CAJ_14  and  CAK_15 
REMARK    6  A    between atoms: CAJ_14  and  CAM_17 
REMARK    7  A    between atoms: CAJ_14  and  OAL_19 
REMARK    8  A    between atoms: CAK_15  and  CAO_16 
REMARK    9  A    between atoms: CAM_17  and  CAN_18 
REMARK   10  A    between atoms: CAF_23  and  CAP_24 
ROOT
ATOM      1  CAG 0G1 d   1       8.389   6.300   0.315  0.00  0.00     0.016 A 
ATOM      2  CAH 0G1 d   1       7.228   6.552   1.033  0.00  0.00     0.004 A 
ATOM      3  CAA 0G1 d   1       6.862   7.522   1.971  0.00  0.00    -0.069 A 
ATOM      4  CAB 0G1 d   1       5.567   7.521   2.497  0.00  0.00    -0.073 A 
ATOM      5  CAC 0G1 d   1       4.641   6.546   2.105  0.00  0.00    -0.022 A 
ATOM      6  CAD 0G1 d   1       5.023   5.573   1.176  0.00  0.00    -0.047 A 
ATOM      7  CAI 0G1 d   1       6.309   5.584   0.633  0.00  0.00     0.044 A 
ATOM      8  NAE 0G1 d   1       6.907   4.778  -0.240  0.00  0.00    -0.353 N 
ATOM      9  CAF 0G1 d   1       8.177   5.141  -0.444  0.00  0.00     0.077 A 
ATOM     10  H   0G1 d   1       7.583   8.275   2.290  0.00  0.00     0.085 H 
ATOM     11  H   0G1 d   1       5.276   8.285   3.218  0.00  0.00     0.084 H 
ATOM     12  H   0G1 d   1       4.313   4.803   0.875  0.00  0.00     0.088 H 
ATOM     13  H   0G1 d   1       6.455   3.985  -0.695  0.00  0.00     0.166 HD
ENDROOT
BRANCH   5  14
ATOM     14  CAJ 0G1 d   1       3.212   6.546   2.695  0.00  0.00     0.084 C 
BRANCH  14  15
ATOM     15  CAK 0G1 d   1       3.276   6.707   4.218  0.00  0.00    -0.036 C 
ATOM     16  H   0G1 d   1       2.257   6.725   4.606  0.00  0.00     0.037 H 
ATOM     17  H   0G1 d   1       3.807   7.631   4.445  0.00  0.00     0.037 H 
BRANCH  15  18
ATOM     18  CAO 0G1 d   1       4.025   5.543   4.876  0.00  0.00    -0.073 C 
ATOM     19  H   0G1 d   1       3.513   4.608   4.649  0.00  0.00     0.027 H 
ATOM     20  H   0G1 d   1       5.044   5.503   4.490  0.00  0.00     0.027 H 
ATOM     21  H   0G1 d   1       4.050   5.692   5.955  0.00  0.00     0.027 H 
ENDBRANCH  15  18
ENDBRANCH  14  15
BRANCH  14  22
ATOM     22  CAM 0G1 d   1       2.414   7.714   2.108  0.00  0.00    -0.036 C 
ATOM     23  H   0G1 d   1       3.024   8.615   2.176  0.00  0.00     0.037 H 
ATOM     24  H   0G1 d   1       1.485   7.812   2.670  0.00  0.00     0.037 H 
BRANCH  22  25
ATOM     25  CAN 0G1 d   1       2.064   7.479   0.636  0.00  0.00    -0.073 C 
ATOM     26  H   0G1 d   1       2.982   7.366   0.059  0.00  0.00     0.027 H 
ATOM     27  H   0G1 d   1       1.464   6.574   0.547  0.00  0.00     0.027 H 
ATOM     28  H   0G1 d   1       1.498   8.331   0.258  0.00  0.00     0.027 H 
ENDBRANCH  22  25
ENDBRANCH  14  22
BRANCH  14  29
ATOM     29  OAL 0G1 d   1       2.532   5.319   2.401  0.00  0.00    -0.385 OA
ATOM     30  H   0G1 d   1       3.014   4.586   2.790  0.00  0.00     0.211 HD
ENDBRANCH  14  29
ENDBRANCH   5  14
BRANCH   1  31
ATOM     31  CAX 0G1 d   1       9.566   7.009   0.536  0.00  0.00    -0.022 A 
ATOM     32  CBC 0G1 d   1      10.555   6.454   1.351  0.00  0.00    -0.070 A 
ATOM     33  CBB 0G1 d   1      11.737   7.152   1.598  0.00  0.00    -0.050 A 
ATOM     34  H   0G1 d   1      10.402   5.471   1.796  0.00  0.00     0.085 H 
ATOM     35  CBA 0G1 d   1      11.911   8.433   1.072  0.00  0.00     0.068 A 
ATOM     36  H   0G1 d   1      12.524   6.698   2.201  0.00  0.00     0.087 H 
ATOM     37  CAZ 0G1 d   1      10.908   9.004   0.290  0.00  0.00    -0.050 A 
ATOM     38  CAY 0G1 d   1       9.729   8.300   0.035  0.00  0.00    -0.070 A 
ATOM     39  H   0G1 d   1      11.044  10.003  -0.124  0.00  0.00     0.087 H 
ATOM     40  H   0G1 d   1       8.937   8.760  -0.555  0.00  0.00     0.085 H 
BRANCH  35  41
ATOM     41  OBD 0G1 d   1      13.054   9.127   1.327  0.00  0.00    -0.356 OA
BRANCH  41  42
ATOM     42  CBE 0G1 d   1      14.083   8.733   0.415  0.00  0.00     0.010 C 
ATOM     43  H   0G1 d   1      14.279   7.667   0.529  0.00  0.00     0.066 H 
ATOM     44  H   0G1 d   1      13.760   8.938  -0.606  0.00  0.00     0.066 H 
ATOM     45  H   0G1 d   1      14.992   9.295   0.630  0.00  0.00     0.066 H 
ENDBRANCH  41  42
ENDBRANCH  35  41
ENDBRANCH   1  31
BRANCH   9  46
ATOM     46  CAP 0G1 d   1       9.017   4.483  -1.360  0.00  0.00     0.123 A 
ATOM     47  CAT 0G1 d   1      10.263   4.854  -1.862  0.00  0.00     0.065 A 
ATOM     48  SAS 0G1 d   1      11.577   5.916  -1.842  0.00  0.00    -0.097 SA
ATOM     49  CAU 0G1 d   1      10.608   3.848  -2.771  0.00  0.00     0.070 A 
ATOM     50  CAW 0G1 d   1      12.514   5.107  -2.987  0.00  0.00    -0.042 A 
ATOM     51  CAV 0G1 d   1      11.811   4.029  -3.362  0.00  0.00    -0.048 A 
ATOM     52  H   0G1 d   1      13.498   5.403  -3.351  0.00  0.00     0.095 H 
ATOM     53  H   0G1 d   1      12.191   3.331  -4.108  0.00  0.00     0.087 H 
ATOM     54  NAR 0G1 d   1       9.578   2.998  -2.776  0.00  0.00    -0.276 N 
ATOM     55  NAQ 0G1 d   1       8.683   3.364  -2.007  0.00  0.00    -0.171 NA
ATOM     56  H   0G1 d   1       9.536   2.152  -3.344  0.00  0.00     0.189 HD
ENDBRANCH   9  46
TORSDOF 10
