REMARK  7 active torsions:
REMARK  status: ('A' for Active; 'I' for Inactive)
REMARK    1  A    between atoms: C2_2  and  C5_5 
REMARK    2  A    between atoms: C9_9  and  N10_10 
REMARK       I    between atoms: N10_10  and  C11_11 
REMARK       I    between atoms: C11_11  and  N13_13 
REMARK    3  A    between atoms: N13_13  and  C14_14 
REMARK    4  A    between atoms: C18_18  and  N19_19 
REMARK    5  A    between atoms: N19_19  and  C20_20 
REMARK    6  A    between atoms: C28_28  and  C29_29 
REMARK    7  A    between atoms: C29_29  and  C30_30 
ROOT
ATOM      1  C14 0F4 d   1      -5.331 -30.182 -13.802  0.00  0.00     0.038 A 
ATOM      2  C15 0F4 d   1      -4.143 -29.734 -14.374  0.00  0.00    -0.057 A 
ATOM      3  C16 0F4 d   1      -4.085 -29.441 -15.734  0.00  0.00    -0.079 A 
ATOM      4  C17 0F4 d   1      -5.222 -29.615 -16.515  0.00  0.00    -0.057 A 
ATOM      5  C18 0F4 d   1      -6.427 -30.062 -15.957  0.00  0.00     0.034 A 
ATOM      6  C37 0F4 d   1      -6.462 -30.355 -14.596  0.00  0.00    -0.031 A 
ATOM      7  H   0F4 d   1      -3.255 -29.612 -13.754  0.00  0.00     0.086 H 
ATOM      8  H   0F4 d   1      -3.159 -29.079 -16.181  0.00  0.00     0.083 H 
ATOM      9  H   0F4 d   1      -5.175 -29.399 -17.582  0.00  0.00     0.086 H 
ATOM     10  H   0F4 d   1      -7.385 -30.724 -14.147  0.00  0.00     0.090 H 
ENDROOT
BRANCH   5  11
ATOM     11  N19 0F4 d   1      -7.577 -30.247 -16.676  0.00  0.00    -0.356 N 
ATOM     12  H   0F4 d   1      -8.206 -30.967 -16.321  0.00  0.00     0.166 HD
BRANCH  11  13
ATOM     13  C20 0F4 d   1      -8.000 -29.601 -17.804  0.00  0.00     0.034 A 
ATOM     14  C21 0F4 d   1      -7.377 -28.458 -18.328  0.00  0.00    -0.056 A 
ATOM     15  C22 0F4 d   1      -7.848 -27.844 -19.488  0.00  0.00    -0.068 A 
ATOM     16  H   0F4 d   1      -6.508 -28.042 -17.818  0.00  0.00     0.086 H 
ATOM     17  C23 0F4 d   1      -8.955 -28.402 -20.106  0.00  0.00     0.007 A 
ATOM     18  H   0F4 d   1      -7.362 -26.957 -19.894  0.00  0.00     0.085 H 
ATOM     19  C24 0F4 d   1      -9.608 -29.548 -19.621  0.00  0.00     0.048 A 
ATOM     20  C28 0F4 d   1      -9.679 -28.005 -21.321  0.00  0.00     0.046 A 
ATOM     21  N25 0F4 d   1     -10.676 -29.878 -20.413  0.00  0.00    -0.322 N 
ATOM     22  C36 0F4 d   1      -9.120 -30.129 -18.449  0.00  0.00    -0.031 A 
ATOM     23  C26 0F4 d   1     -10.749 -28.996 -21.413  0.00  0.00     0.257 A 
ATOM     24  H   0F4 d   1     -11.308 -30.664 -20.264  0.00  0.00     0.169 HD
ATOM     25  O27 0F4 d   1     -11.636 -29.029 -22.342  0.00  0.00    -0.267 OA
ATOM     26  H   0F4 d   1      -9.619 -31.004 -18.033  0.00  0.00     0.090 H 
BRANCH  20  27
ATOM     27  C29 0F4 d   1      -9.293 -26.821 -22.136  0.00  0.00    -0.041 C 
ATOM     28  H   0F4 d   1      -8.443 -26.216 -21.822  0.00  0.00     0.088 H 
BRANCH  27  29
ATOM     29  C30 0F4 d   1     -10.034 -26.440 -23.366  0.00  0.00     0.032 A 
ATOM     30  C31 0F4 d   1      -9.676 -25.347 -24.144  0.00  0.00    -0.056 A 
ATOM     31  C32 0F4 d   1     -10.621 -25.343 -25.161  0.00  0.00    -0.066 A 
ATOM     32  H   0F4 d   1      -8.848 -24.655 -23.992  0.00  0.00     0.087 H 
ATOM     33  C33 0F4 d   1     -11.475 -26.419 -24.933  0.00  0.00    -0.022 A 
ATOM     34  H   0F4 d   1     -10.683 -24.631 -25.984  0.00  0.00     0.085 H 
ATOM     35  N34 0F4 d   1     -11.105 -27.102 -23.807  0.00  0.00    -0.366 N 
ATOM     36  H   0F4 d   1     -12.323 -26.681 -25.566  0.00  0.00     0.111 H 
ATOM     37  H   0F4 d   1     -11.546 -27.926 -23.399  0.00  0.00     0.165 HD
ENDBRANCH  27  29
ENDBRANCH  20  27
ENDBRANCH  11  13
ENDBRANCH   5  11
BRANCH   1  38
ATOM     38  N13 0F4 d   1      -5.315 -30.476 -12.482  0.00  0.00    -0.309 N 
ATOM     39  C11 0F4 d   1      -6.199 -30.032 -11.591  0.00  0.00     0.325 C 
ATOM     40  N10 0F4 d   1      -5.971 -30.438 -10.335  0.00  0.00    -0.309 N 
ATOM     41  O12 0F4 d   1      -7.144 -29.337 -11.923  0.00  0.00    -0.247 OA
ATOM     42  H   0F4 d   1      -5.152 -31.030 -10.194  0.00  0.00     0.170 HD
ATOM     43  H   0F4 d   1      -4.569 -31.084 -12.143  0.00  0.00     0.170 HD
BRANCH  40  44
ATOM     44  C9  0F4 d   1      -6.704 -30.153  -9.228  0.00  0.00     0.037 A 
ATOM     45  C8  0F4 d   1      -6.120 -30.399  -7.994  0.00  0.00    -0.057 A 
ATOM     46  C7  0F4 d   1      -6.823 -30.119  -6.829  0.00  0.00    -0.080 A 
ATOM     47  H   0F4 d   1      -5.112 -30.811  -7.939  0.00  0.00     0.086 H 
ATOM     48  C6  0F4 d   1      -8.113 -29.592  -6.895  0.00  0.00    -0.068 A 
ATOM     49  H   0F4 d   1      -6.365 -30.312  -5.859  0.00  0.00     0.083 H 
ATOM     50  C5  0F4 d   1      -8.700 -29.334  -8.127  0.00  0.00     0.050 A 
ATOM     51  H   0F4 d   1      -8.662 -29.382  -5.977  0.00  0.00     0.084 H 
ATOM     52  C38 0F4 d   1      -7.999 -29.622  -9.288  0.00  0.00    -0.043 A 
ATOM     53  H   0F4 d   1      -8.460 -29.433 -10.257  0.00  0.00     0.088 H 
BRANCH  50  54
ATOM     54  C2  0F4 d   1     -10.089 -28.765  -8.222  0.00  0.00     0.417 C 
ATOM     55  F1  0F4 d   1     -10.812 -29.082  -7.170  0.00  0.00    -0.166 F 
ATOM     56  F3  0F4 d   1     -10.706 -29.265  -9.273  0.00  0.00    -0.166 F 
ATOM     57  F4  0F4 d   1      -9.988 -27.446  -8.295  0.00  0.00    -0.166 F 
ENDBRANCH  50  54
ENDBRANCH  40  44
ENDBRANCH   1  38
TORSDOF 7
