REMARK  9 active torsions:
REMARK  status: ('A' for Active; 'I' for Inactive)
REMARK    1  A    between atoms: C37_1  and  O36_2 
REMARK    2  A    between atoms: O36_2  and  C21_3 
REMARK    3  A    between atoms: C20_4  and  O34_5 
REMARK    4  A    between atoms: O34_5  and  C35_6 
REMARK    5  A    between atoms: C8_10  and  C7_11 
REMARK    6  A    between atoms: C5_14  and  C9_26 
REMARK    7  A    between atoms: C9_26  and  C22_27 
REMARK       I    between atoms: C22_27  and  N23_29 
REMARK    8  A    between atoms: C27_32  and  C30_35 
REMARK    9  A    between atoms: C30_35  and  C31_36 
ROOT
ATOM      1  C7  D3A d   1      18.681  -1.489  54.961  0.00  0.00     0.095 C 
ATOM      2  C1  D3A d   1      17.426  -1.900  54.190  0.00  0.00     0.004 A 
ATOM      3  O6  D3A d   1      18.342  -1.421  56.381  0.00  0.00    -0.364 OA
ATOM      4  C5  D3A d   1      17.605  -2.503  56.997  0.00  0.00     0.088 C 
ATOM      5  C4  D3A d   1      17.965  -3.872  56.374  0.00  0.00     0.046 A 
ATOM      6  C10 D3A d   1      18.662  -4.958  56.899  0.00  0.00    -0.057 A 
ATOM      7  C11 D3A d   1      18.739  -5.911  55.912  0.00  0.00    -0.066 A 
ATOM      8  C12 D3A d   1      18.104  -5.416  54.763  0.00  0.00    -0.015 A 
ATOM      9  N3  D3A d   1      17.634  -4.135  55.022  0.00  0.00    -0.323 N 
ATOM     10  C2  D3A d   1      16.962  -3.247  54.281  0.00  0.00     0.048 A 
ATOM     11  C13 D3A d   1      15.800  -3.574  53.521  0.00  0.00    -0.054 A 
ATOM     12  C14 D3A d   1      15.167  -2.603  52.767  0.00  0.00    -0.060 A 
ATOM     13  C15 D3A d   1      15.638  -1.302  52.696  0.00  0.00     0.034 A 
ATOM     14  C16 D3A d   1      16.764  -0.922  53.400  0.00  0.00    -0.051 A 
ATOM     15 CL1  D3A d   1      14.778  -0.129  51.733  0.00  0.00    -0.084 Cl
ATOM     16  H   D3A d   1      19.427  -2.259  54.766  0.00  0.00     0.099 H 
ATOM     17  H   D3A d   1      16.532  -2.557  56.811  0.00  0.00     0.094 H 
ATOM     18  H   D3A d   1      19.071  -5.037  57.906  0.00  0.00     0.086 H 
ATOM     19  H   D3A d   1      19.214  -6.888  56.006  0.00  0.00     0.085 H 
ATOM     20  H   D3A d   1      17.997  -5.951  53.819  0.00  0.00     0.112 H 
ATOM     21  H   D3A d   1      15.410  -4.592  53.535  0.00  0.00     0.087 H 
ATOM     22  H   D3A d   1      14.268  -2.870  52.211  0.00  0.00     0.086 H 
ATOM     23  H   D3A d   1      17.135   0.102  53.351  0.00  0.00     0.087 H 
ENDROOT
BRANCH   4  24
ATOM     24  C9  D3A d   1      17.782  -2.222  58.516  0.00  0.00     0.039 C 
ATOM     25  H   D3A d   1      18.066  -1.177  58.636  0.00  0.00     0.051 H 
ATOM     26  H   D3A d   1      18.541  -2.903  58.900  0.00  0.00     0.051 H 
BRANCH  24  27
ATOM     27  C22 D3A d   1      16.485  -2.458  59.308  0.00  0.00     0.222 C 
ATOM     28  O24 D3A d   1      15.481  -2.861  58.675  0.00  0.00    -0.273 OA
ATOM     29  N23 D3A d   1      16.437  -2.248  60.645  0.00  0.00    -0.352 N 
ATOM     30  C25 D3A d   1      15.113  -2.250  61.360  0.00  0.00    -0.002 C 
ATOM     31  C29 D3A d   1      17.634  -1.638  61.348  0.00  0.00    -0.002 C 
ATOM     32  C26 D3A d   1      14.805  -0.885  62.018  0.00  0.00    -0.046 C 
ATOM     33  H   D3A d   1      15.152  -3.005  62.145  0.00  0.00     0.064 H 
ATOM     34  H   D3A d   1      14.332  -2.459  60.629  0.00  0.00     0.064 H 
ATOM     35  C27 D3A d   1      16.020  -0.160  62.673  0.00  0.00    -0.042 C 
ATOM     36  H   D3A d   1      14.095  -1.083  62.821  0.00  0.00     0.035 H 
ATOM     37  H   D3A d   1      14.449  -0.232  61.221  0.00  0.00     0.035 H 
ATOM     38  C28 D3A d   1      17.309  -0.210  61.808  0.00  0.00    -0.046 C 
ATOM     39  H   D3A d   1      16.235  -0.720  63.583  0.00  0.00     0.041 H 
ATOM     40  H   D3A d   1      18.141   0.152  62.412  0.00  0.00     0.035 H 
ATOM     41  H   D3A d   1      17.151   0.407  60.923  0.00  0.00     0.035 H 
ATOM     42  H   D3A d   1      18.476  -1.607  60.656  0.00  0.00     0.064 H 
ATOM     43  H   D3A d   1      17.884  -2.245  62.218  0.00  0.00     0.064 H 
BRANCH  35  44
ATOM     44  C30 D3A d   1      15.678   1.298  63.070  0.00  0.00     0.019 C 
ATOM     45  H   D3A d   1      15.345   1.803  62.163  0.00  0.00     0.049 H 
ATOM     46  H   D3A d   1      16.573   1.720  63.526  0.00  0.00     0.049 H 
BRANCH  44  47
ATOM     47  C31 D3A d   1      14.561   1.434  64.085  0.00  0.00     0.172 C 
ATOM     48  O32 D3A d   1      14.569   0.663  65.057  0.00  0.00    -0.648 OA
ATOM     49  O33 D3A d   1      13.681   2.296  63.890  0.00  0.00    -0.648 OA
ENDBRANCH  44  47
ENDBRANCH  35  44
ENDBRANCH  24  27
ENDBRANCH   4  24
BRANCH   1  50
ATOM     50  C8  D3A d   1      19.397  -0.223  54.479  0.00  0.00     0.011 A 
ATOM     51  C21 D3A d   1      20.338  -0.275  53.456  0.00  0.00     0.110 A 
ATOM     52  C20 D3A d   1      20.995   0.909  53.081  0.00  0.00     0.102 A 
ATOM     53  C19 D3A d   1      20.655   2.127  53.710  0.00  0.00    -0.048 A 
ATOM     54  C18 D3A d   1      19.717   2.166  54.733  0.00  0.00    -0.080 A 
ATOM     55  H   D3A d   1      21.136   3.050  53.388  0.00  0.00     0.087 H 
ATOM     56  C17 D3A d   1      19.078   0.991  55.110  0.00  0.00    -0.071 A 
ATOM     57  H   D3A d   1      19.485   3.106  55.234  0.00  0.00     0.083 H 
ATOM     58  H   D3A d   1      18.326   1.011  55.899  0.00  0.00     0.084 H 
BRANCH  51  59
ATOM     59  O36 D3A d   1      20.593  -1.492  52.858  0.00  0.00    -0.352 OA
BRANCH  59  60
ATOM     60  C37 D3A d   1      21.872  -2.133  53.091  0.00  0.00     0.011 C 
ATOM     61  H   D3A d   1      22.673  -1.482  52.741  0.00  0.00     0.067 H 
ATOM     62  H   D3A d   1      21.994  -2.320  54.158  0.00  0.00     0.067 H 
ATOM     63  H   D3A d   1      21.907  -3.078  52.549  0.00  0.00     0.067 H 
ENDBRANCH  59  60
ENDBRANCH  51  59
BRANCH  52  64
ATOM     64  O34 D3A d   1      21.909   0.788  52.039  0.00  0.00    -0.353 OA
BRANCH  64  65
ATOM     65  C35 D3A d   1      22.603   1.930  51.503  0.00  0.00     0.010 C 
ATOM     66  H   D3A d   1      21.878   2.644  51.113  0.00  0.00     0.066 H 
ATOM     67  H   D3A d   1      23.190   2.400  52.292  0.00  0.00     0.066 H 
ATOM     68  H   D3A d   1      23.265   1.607  50.700  0.00  0.00     0.066 H 
ENDBRANCH  64  65
ENDBRANCH  52  64
ENDBRANCH   1  50
TORSDOF 9
