REMARK  12 active torsions:
REMARK  status: ('A' for Active; 'I' for Inactive)
REMARK    1  A    between atoms: C06_6  and  C07_7 
REMARK    2  A    between atoms: C12_12  and  N13_13 
REMARK    3  A    between atoms: N13_13  and  C14_14 
REMARK    4  A    between atoms: C19_19  and  N20_20 
REMARK       I    between atoms: N20_20  and  C21_21 
REMARK    5  A    between atoms: C21_21  and  C23_23 
REMARK    6  A    between atoms: C28_28  and  N29_29 
REMARK       I    between atoms: N29_29  and  C30_30 
REMARK    7  A    between atoms: C30_30  and  C32_32 
REMARK    8  A    between atoms: C32_32  and  C33_33 
REMARK    9  A    between atoms: C33_33  and  C34_34 
REMARK   10  A    between atoms: C34_34  and  N35_35 
REMARK   11  A    between atoms: N35_35  and  C36_36 
REMARK   12  A    between atoms: N35_35  and  C37_37 
ROOT
ATOM      1  N20 CQQ d   1      24.845 -18.203 -28.325  0.00  0.00    -0.323 N 
ATOM      2  C21 CQQ d   1      24.945 -19.245 -29.213  0.00  0.00     0.256 C 
ATOM      3  O22 CQQ d   1      24.181 -19.335 -30.164  0.00  0.00    -0.267 OA
ATOM      4  H   CQQ d   1      24.636 -18.338 -27.336  0.00  0.00     0.169 HD
ENDROOT
BRANCH   2   5
ATOM      5  C23 CQQ d   1      26.003 -20.285 -28.984  0.00  0.00     0.032 A 
ATOM      6  C24 CQQ d   1      25.647 -21.541 -28.484  0.00  0.00    -0.066 A 
ATOM      7  C25 CQQ d   1      26.625 -22.515 -28.265  0.00  0.00    -0.056 A 
ATOM      8  H   CQQ d   1      24.602 -21.762 -28.264  0.00  0.00     0.085 H 
ATOM      9  C28 CQQ d   1      27.977 -22.232 -28.518  0.00  0.00     0.034 A 
ATOM     10  H   CQQ d   1      26.337 -23.499 -27.896  0.00  0.00     0.086 H 
ATOM     11  C27 CQQ d   1      28.324 -20.965 -29.006  0.00  0.00    -0.056 A 
ATOM     12  C26 CQQ d   1      27.347 -19.989 -29.229  0.00  0.00    -0.066 A 
ATOM     13  H   CQQ d   1      29.369 -20.737 -29.215  0.00  0.00     0.086 H 
ATOM     14  H   CQQ d   1      27.633 -19.002 -29.592  0.00  0.00     0.085 H 
BRANCH   9  15
ATOM     15  N29 CQQ d   1      29.010 -23.181 -28.315  0.00  0.00    -0.327 N 
ATOM     16  C30 CQQ d   1      28.568 -24.368 -27.763  0.00  0.00     0.222 C 
ATOM     17  O31 CQQ d   1      28.568 -25.388 -28.434  0.00  0.00    -0.273 OA
ATOM     18  H   CQQ d   1      29.986 -23.005 -28.553  0.00  0.00     0.169 HD
BRANCH  16  19
ATOM     19  C32 CQQ d   1      28.087 -24.402 -26.333  0.00  0.00     0.011 C 
ATOM     20  H   CQQ d   1      27.435 -25.267 -26.209  0.00  0.00     0.047 H 
ATOM     21  H   CQQ d   1      27.561 -23.471 -26.124  0.00  0.00     0.047 H 
BRANCH  19  22
ATOM     22  C33 CQQ d   1      29.247 -24.529 -25.356  0.00  0.00    -0.032 C 
ATOM     23  H   CQQ d   1      29.356 -23.630 -24.749  0.00  0.00     0.036 H 
ATOM     24  H   CQQ d   1      30.196 -24.648 -25.879  0.00  0.00     0.036 H 
BRANCH  22  25
ATOM     25  C34 CQQ d   1      28.928 -25.753 -24.491  0.00  0.00     0.113 C 
ATOM     26  H   CQQ d   1      29.613 -26.542 -24.802  0.00  0.00     0.079 H 
ATOM     27  H   CQQ d   1      27.870 -25.971 -24.637  0.00  0.00     0.079 H 
BRANCH  25  28
ATOM     28  N35 CQQ d   1      29.125 -25.570 -23.044  0.00  0.00     0.080 N 
BRANCH  28  29
ATOM     29  C36 CQQ d   1      27.880 -25.929 -22.322  0.00  0.00     0.095 C 
ATOM     30  H   CQQ d   1      27.067 -25.287 -22.661  0.00  0.00     0.071 H 
ATOM     31  H   CQQ d   1      27.631 -26.971 -22.525  0.00  0.00     0.071 H 
ATOM     32  H   CQQ d   1      28.030 -25.792 -21.251  0.00  0.00     0.071 H 
ENDBRANCH  28  29
BRANCH  28  33
ATOM     33  C37 CQQ d   1      30.261 -26.426 -22.635  0.00  0.00     0.095 C 
ATOM     34  H   CQQ d   1      30.029 -27.467 -22.859  0.00  0.00     0.071 H 
ATOM     35  H   CQQ d   1      31.155 -26.126 -23.182  0.00  0.00     0.071 H 
ATOM     36  H   CQQ d   1      30.433 -26.313 -21.565  0.00  0.00     0.071 H 
ENDBRANCH  28  33
ENDBRANCH  25  28
ENDBRANCH  22  25
ENDBRANCH  19  22
ENDBRANCH  16  19
ENDBRANCH   9  15
ENDBRANCH   2   5
BRANCH   1  37
ATOM     37  C19 CQQ d   1      25.056 -16.927 -28.897  0.00  0.00     0.037 A 
ATOM     38  C15 CQQ d   1      24.396 -15.826 -28.346  0.00  0.00    -0.031 A 
ATOM     39  C14 CQQ d   1      24.512 -14.536 -28.885  0.00  0.00     0.051 A 
ATOM     40  H   CQQ d   1      23.769 -15.974 -27.467  0.00  0.00     0.090 H 
ATOM     41  C16 CQQ d   1      25.398 -14.344 -29.959  0.00  0.00    -0.057 A 
ATOM     42  C17 CQQ d   1      26.118 -15.430 -30.480  0.00  0.00    -0.079 A 
ATOM     43  H   CQQ d   1      25.526 -13.350 -30.388  0.00  0.00     0.086 H 
ATOM     44  C18 CQQ d   1      25.958 -16.719 -29.939  0.00  0.00    -0.057 A 
ATOM     45  H   CQQ d   1      26.807 -15.274 -31.310  0.00  0.00     0.083 H 
ATOM     46  H   CQQ d   1      26.538 -17.553 -30.334  0.00  0.00     0.086 H 
BRANCH  39  47
ATOM     47  N13 CQQ d   1      23.777 -13.428 -28.368  0.00  0.00    -0.188 N 
ATOM     48  H   CQQ d   1      24.136 -12.476 -28.433  0.00  0.00     0.184 HD
BRANCH  47  49
ATOM     49  C12 CQQ d   1      22.521 -13.707 -27.758  0.00  0.00     0.727 A 
ATOM     50  N08 CQQ d   1      21.959 -14.946 -27.751  0.00  0.00    -0.062 NA
ATOM     51  C07 CQQ d   1      20.773 -15.185 -27.136  0.00  0.00     0.089 A 
ATOM     52  C09 CQQ d   1      20.099 -14.148 -26.495  0.00  0.00    -0.036 A 
ATOM     53  C10 CQQ d   1      20.675 -12.882 -26.524  0.00  0.00     0.023 A 
ATOM     54  H   CQQ d   1      19.151 -14.323 -25.987  0.00  0.00     0.089 H 
ATOM     55  N11 CQQ d   1      21.849 -12.691 -27.154  0.00  0.00    -0.075 NA
ATOM     56  H   CQQ d   1      20.176 -12.045 -26.037  0.00  0.00     0.115 H 
BRANCH  51  57
ATOM     57  C06 CQQ d   1      20.247 -16.571 -27.083  0.00  0.00     0.011 A 
ATOM     58  C01 CQQ d   1      21.016 -17.644 -27.567  0.00  0.00     0.014 A 
ATOM     59  N02 CQQ d   1      20.566 -18.912 -27.493  0.00  0.00    -0.272 NA
ATOM     60  H   CQQ d   1      21.992 -17.447 -28.009  0.00  0.00     0.116 H 
ATOM     61  C03 CQQ d   1      19.390 -19.190 -26.922  0.00  0.00     0.002 A 
ATOM     62  C04 CQQ d   1      18.584 -18.158 -26.421  0.00  0.00    -0.065 A 
ATOM     63  H   CQQ d   1      19.056 -20.225 -26.845  0.00  0.00     0.114 H 
ATOM     64  C05 CQQ d   1      19.017 -16.832 -26.481  0.00  0.00    -0.068 A 
ATOM     65  H   CQQ d   1      17.614 -18.392 -25.982  0.00  0.00     0.085 H 
ATOM     66  H   CQQ d   1      18.411 -16.025 -26.069  0.00  0.00     0.085 H 
ENDBRANCH  51  57
ENDBRANCH  47  49
ENDBRANCH  39  47
ENDBRANCH   1  37
TORSDOF 12
