REMARK  12 active torsions:
REMARK  status: ('A' for Active; 'I' for Inactive)
REMARK    1  A    between atoms: C06_6  and  C07_7 
REMARK    2  A    between atoms: C12_12  and  N13_13 
REMARK    3  A    between atoms: N13_13  and  C14_14 
REMARK    4  A    between atoms: C19_19  and  N20_20 
REMARK       I    between atoms: N20_20  and  C21_21 
REMARK    5  A    between atoms: C21_21  and  C23_23 
REMARK    6  A    between atoms: C27_27  and  N29_29 
REMARK       I    between atoms: N29_29  and  C30_30 
REMARK    7  A    between atoms: C30_30  and  C32_32 
REMARK    8  A    between atoms: C32_32  and  C33_33 
REMARK    9  A    between atoms: C33_33  and  C34_34 
REMARK   10  A    between atoms: C34_34  and  N35_35 
REMARK   11  A    between atoms: N35_35  and  C36_36 
REMARK   12  A    between atoms: N35_35  and  C37_37 
ROOT
ATOM      1  N20 0F0 d   1      26.357 -18.380 -28.970  0.00  0.00    -0.323 N 
ATOM      2  C21 0F0 d   1      27.073 -18.587 -30.115  0.00  0.00     0.256 C 
ATOM      3  O22 0F0 d   1      26.762 -18.089 -31.186  0.00  0.00    -0.267 OA
ATOM      4  H   0F0 d   1      26.304 -19.091 -28.241  0.00  0.00     0.169 HD
ENDROOT
BRANCH   2   5
ATOM      5  C23 0F0 d   1      28.243 -19.510 -29.994  0.00  0.00     0.034 A 
ATOM      6  C24 0F0 d   1      29.463 -19.184 -30.589  0.00  0.00    -0.068 A 
ATOM      7  C25 0F0 d   1      30.569 -20.018 -30.441  0.00  0.00    -0.080 A 
ATOM      8  H   0F0 d   1      29.551 -18.269 -31.174  0.00  0.00     0.085 H 
ATOM      9  C26 0F0 d   1      30.426 -21.205 -29.726  0.00  0.00    -0.057 A 
ATOM     10  H   0F0 d   1      31.530 -19.746 -30.877  0.00  0.00     0.083 H 
ATOM     11  C27 0F0 d   1      29.216 -21.529 -29.091  0.00  0.00     0.035 A 
ATOM     12  H   0F0 d   1      31.268 -21.894 -29.658  0.00  0.00     0.086 H 
ATOM     13  C28 0F0 d   1      28.131 -20.667 -29.229  0.00  0.00    -0.042 A 
ATOM     14  H   0F0 d   1      27.188 -20.900 -28.735  0.00  0.00     0.088 H 
BRANCH  11  15
ATOM     15  N29 0F0 d   1      28.996 -22.716 -28.338  0.00  0.00    -0.327 N 
ATOM     16  C30 0F0 d   1      30.046 -23.324 -27.692  0.00  0.00     0.222 C 
ATOM     17  O31 0F0 d   1      31.223 -23.037 -27.899  0.00  0.00    -0.273 OA
ATOM     18  H   0F0 d   1      28.059 -23.116 -28.278  0.00  0.00     0.169 HD
BRANCH  16  19
ATOM     19  C32 0F0 d   1      29.663 -24.387 -26.696  0.00  0.00     0.011 C 
ATOM     20  H   0F0 d   1      29.376 -25.290 -27.235  0.00  0.00     0.047 H 
ATOM     21  H   0F0 d   1      28.832 -24.023 -26.091  0.00  0.00     0.047 H 
BRANCH  19  22
ATOM     22  C33 0F0 d   1      30.833 -24.707 -25.785  0.00  0.00    -0.032 C 
ATOM     23  H   0F0 d   1      31.070 -23.851 -25.153  0.00  0.00     0.036 H 
ATOM     24  H   0F0 d   1      31.722 -24.936 -26.372  0.00  0.00     0.036 H 
BRANCH  22  25
ATOM     25  C34 0F0 d   1      30.435 -25.903 -24.933  0.00  0.00     0.113 C 
ATOM     26  H   0F0 d   1      30.679 -26.817 -25.475  0.00  0.00     0.079 H 
ATOM     27  H   0F0 d   1      29.366 -25.848 -24.728  0.00  0.00     0.079 H 
BRANCH  25  28
ATOM     28  N35 0F0 d   1      31.162 -25.901 -23.657  0.00  0.00     0.080 N 
BRANCH  28  29
ATOM     29  C36 0F0 d   1      30.194 -26.029 -22.563  0.00  0.00     0.095 C 
ATOM     30  H   0F0 d   1      29.499 -25.190 -22.595  0.00  0.00     0.071 H 
ATOM     31  H   0F0 d   1      29.643 -26.963 -22.674  0.00  0.00     0.071 H 
ATOM     32  H   0F0 d   1      30.723 -26.029 -21.610  0.00  0.00     0.071 H 
ENDBRANCH  28  29
BRANCH  28  33
ATOM     33  C37 0F0 d   1      32.145 -26.986 -23.624  0.00  0.00     0.095 C 
ATOM     34  H   0F0 d   1      31.634 -27.942 -23.739  0.00  0.00     0.071 H 
ATOM     35  H   0F0 d   1      32.858 -26.854 -24.438  0.00  0.00     0.071 H 
ATOM     36  H   0F0 d   1      32.673 -26.967 -22.671  0.00  0.00     0.071 H 
ENDBRANCH  28  33
ENDBRANCH  25  28
ENDBRANCH  22  25
ENDBRANCH  19  22
ENDBRANCH  16  19
ENDBRANCH  11  15
ENDBRANCH   2   5
BRANCH   1  37
ATOM     37  C19 0F0 d   1      25.695 -17.145 -28.838  0.00  0.00     0.035 A 
ATOM     38  C16 0F0 d   1      26.175 -15.931 -29.351  0.00  0.00    -0.055 A 
ATOM     39  C15 0F0 d   1      25.493 -14.724 -29.073  0.00  0.00    -0.054 A 
ATOM     40  H   0F0 d   1      27.075 -15.918 -29.965  0.00  0.00     0.087 H 
ATOM     41  C14 0F0 d   1      24.347 -14.717 -28.264  0.00  0.00     0.049 A 
ATOM     42  H   0F0 d   1      25.862 -13.788 -29.492  0.00  0.00     0.087 H 
ATOM     43  C17 0F0 d   1      23.956 -15.942 -27.700  0.00  0.00    -0.054 A 
ATOM     44  C18 0F0 d   1      24.604 -17.136 -27.985  0.00  0.00    -0.055 A 
ATOM     45  H   0F0 d   1      23.111 -15.956 -27.012  0.00  0.00     0.087 H 
ATOM     46  H   0F0 d   1      24.254 -18.066 -27.538  0.00  0.00     0.087 H 
BRANCH  41  47
ATOM     47  N13 0F0 d   1      23.620 -13.526 -27.942  0.00  0.00    -0.188 N 
ATOM     48  H   0F0 d   1      23.982 -12.594 -28.143  0.00  0.00     0.184 HD
BRANCH  47  49
ATOM     49  C12 0F0 d   1      22.358 -13.735 -27.322  0.00  0.00     0.727 A 
ATOM     50  N08 0F0 d   1      21.754 -14.948 -27.305  0.00  0.00    -0.062 NA
ATOM     51  C07 0F0 d   1      20.549 -15.155 -26.728  0.00  0.00     0.089 A 
ATOM     52  C09 0F0 d   1      19.896 -14.094 -26.120  0.00  0.00    -0.036 A 
ATOM     53  C10 0F0 d   1      20.514 -12.843 -26.159  0.00  0.00     0.023 A 
ATOM     54  H   0F0 d   1      18.933 -14.232 -25.628  0.00  0.00     0.089 H 
ATOM     55  N11 0F0 d   1      21.700 -12.682 -26.773  0.00  0.00    -0.075 NA
ATOM     56  H   0F0 d   1      20.030 -11.988 -25.687  0.00  0.00     0.115 H 
BRANCH  51  57
ATOM     57  C06 0F0 d   1      19.991 -16.530 -26.680  0.00  0.00     0.011 A 
ATOM     58  C01 0F0 d   1      20.729 -17.620 -27.164  0.00  0.00     0.014 A 
ATOM     59  N02 0F0 d   1      20.295 -18.888 -27.096  0.00  0.00    -0.272 NA
ATOM     60  H   0F0 d   1      21.702 -17.428 -27.617  0.00  0.00     0.116 H 
ATOM     61  C03 0F0 d   1      19.115 -19.142 -26.537  0.00  0.00     0.002 A 
ATOM     62  C04 0F0 d   1      18.337 -18.093 -26.026  0.00  0.00    -0.065 A 
ATOM     63  H   0F0 d   1      18.752 -20.168 -26.476  0.00  0.00     0.114 H 
ATOM     64  C05 0F0 d   1      18.762 -16.763 -26.090  0.00  0.00    -0.068 A 
ATOM     65  H   0F0 d   1      17.375 -18.321 -25.567  0.00  0.00     0.085 H 
ATOM     66  H   0F0 d   1      18.154 -15.949 -25.694  0.00  0.00     0.085 H 
ENDBRANCH  51  57
ENDBRANCH  47  49
ENDBRANCH  41  47
ENDBRANCH   1  37
TORSDOF 12
