REMARK  12 active torsions:
REMARK  status: ('A' for Active; 'I' for Inactive)
REMARK    1  A    between atoms: C6_6  and  N6_7 
REMARK    2  A    between atoms: CBI_36  and  N9_10 
REMARK    3  A    between atoms: CBL_38  and  CAA_11 
REMARK    4  A    between atoms: CBL_38  and  CAB_12 
REMARK    5  A    between atoms: CAI_16  and  CAH_15 
REMARK    6  A    between atoms: CAH_15  and  CAJ_17 
REMARK    7  A    between atoms: CAK_18  and  CAI_16 
REMARK    8  A    between atoms: CAJ_17  and  CAL_19 
REMARK    9  A    between atoms: CBA_31  and  CAK_18 
REMARK   10  A    between atoms: CAL_19  and  CBF_33 
REMARK   11  A    between atoms: CBE_32  and  CAN_21 
REMARK   12  A    between atoms: CAN_21  and  NBJ_37 
ROOT
ATOM      1  CAG C77 d   1      52.975  17.116  17.925  0.00  0.00     0.025 A 
ATOM      2  NAR C77 d   1      51.387  18.540  17.872  0.00  0.00    -0.135 NA
ATOM      3  NAS C77 d   1      52.411  19.133  18.151  0.00  0.00    -0.066 NA
ATOM      4  CBA C77 d   1      51.654  17.292  17.716  0.00  0.00     0.075 A 
ATOM      5  NBJ C77 d   1      53.358  18.389  18.199  0.00  0.00    -0.258 N 
ATOM      6  H11 C77 d   1      53.570  16.205  17.885  0.00  0.00     0.117 H 
ENDROOT
BRANCH   5   7
ATOM      7  CAN C77 d   1      54.600  19.108  18.568  0.00  0.00     0.044 C 
ATOM      8  H24 C77 d   1      54.774  18.968  19.645  0.00  0.00     0.071 H 
ATOM      9  H25 C77 d   1      55.435  18.670  18.002  0.00  0.00     0.071 H 
BRANCH   7  10
ATOM     10  CBE C77 d   1      54.555  20.680  18.264  0.00  0.00     0.086 C 
ATOM     11  OAV C77 d   1      53.461  21.469  18.789  0.00  0.00    -0.354 OA
ATOM     12  CBI C77 d   1      53.909  22.784  19.248  0.00  0.00     0.140 C 
ATOM     13  CBH C77 d   1      55.373  22.626  19.491  0.00  0.00     0.112 C 
ATOM     14  H32 C77 d   1      53.718  23.583  18.517  0.00  0.00     0.122 H 
ATOM     15  OAX C77 d   1      56.012  23.758  18.847  0.00  0.00    -0.344 OA
ATOM     16  CBG C77 d   1      55.811  21.354  18.761  0.00  0.00     0.098 C 
ATOM     17  H31 C77 d   1      55.610  22.579  20.564  0.00  0.00     0.094 H 
ATOM     18  CBL C77 d   1      56.574  23.312  17.610  0.00  0.00     0.158 C 
ATOM     19  OAW C77 d   1      56.452  21.829  17.559  0.00  0.00    -0.345 OA
ATOM     20  H30 C77 d   1      56.446  20.697  19.374  0.00  0.00     0.091 H 
ATOM     21  H28 C77 d   1      54.517  20.773  17.169  0.00  0.00     0.090 H 
BRANCH  12  22
ATOM     22  N9  C77 d   1      53.115  22.994  20.498  0.00  0.00    -0.294 N 
ATOM     23  C4  C77 d   1      52.091  23.821  20.663  0.00  0.00     0.167 A 
ATOM     24  N3  C77 d   1      51.473  24.682  19.838  0.00  0.00    -0.222 NA
ATOM     25  C5  C77 d   1      51.621  23.658  21.970  0.00  0.00     0.149 A 
ATOM     26  C2  C77 d   1      50.412  25.350  20.275  0.00  0.00     0.091 A 
ATOM     27  N1  C77 d   1      49.947  25.220  21.518  0.00  0.00    -0.222 NA
ATOM     28  H1  C77 d   1      49.905  26.026  19.596  0.00  0.00     0.146 H 
ATOM     29  C6  C77 d   1      50.515  24.391  22.388  0.00  0.00     0.155 A 
ATOM     30  N7  C77 d   1      52.385  22.751  22.565  0.00  0.00    -0.236 NA
ATOM     31  C8  C77 d   1      53.291  22.356  21.666  0.00  0.00     0.071 A 
ATOM     32  H4  C77 d   1      54.068  21.616  21.855  0.00  0.00     0.144 H 
BRANCH  29  33
ATOM     33  N6  C77 d   1      50.027  24.292  23.619  0.00  0.00    -0.382 N 
ATOM     34  H2  C77 d   1      50.464  23.651  24.296  0.00  0.00     0.157 HD
ATOM     35  H3  C77 d   1      49.211  24.856  23.897  0.00  0.00     0.157 HD
ENDBRANCH  29  33
ENDBRANCH  12  22
BRANCH  18  36
ATOM     36  CAA C77 d   1      58.042  23.723  17.675  0.00  0.00    -0.025 C 
ATOM     37  H5  C77 d   1      58.551  23.413  16.750  0.00  0.00     0.035 H 
ATOM     38  H6  C77 d   1      58.521  23.237  18.538  0.00  0.00     0.035 H 
ATOM     39  H7  C77 d   1      58.112  24.815  17.783  0.00  0.00     0.035 H 
ENDBRANCH  18  36
BRANCH  18  40
ATOM     40  CAB C77 d   1      55.847  23.971  16.433  0.00  0.00    -0.025 C 
ATOM     41  H8  C77 d   1      54.795  23.648  16.424  0.00  0.00     0.035 H 
ATOM     42  H9  C77 d   1      56.330  23.673  15.491  0.00  0.00     0.035 H 
ATOM     43  H10 C77 d   1      55.894  25.065  16.539  0.00  0.00     0.035 H 
ENDBRANCH  18  40
ENDBRANCH   7  10
ENDBRANCH   5   7
BRANCH   4  44
ATOM     44  CAK C77 d   1      50.399  16.483  17.389  0.00  0.00    -0.022 C 
ATOM     45  H18 C77 d   1      50.184  16.588  16.315  0.00  0.00     0.042 H 
ATOM     46  H19 C77 d   1      50.592  15.426  17.622  0.00  0.00     0.042 H 
BRANCH  44  47
ATOM     47  CAI C77 d   1      49.124  16.959  18.211  0.00  0.00    -0.060 C 
ATOM     48  H14 C77 d   1      48.961  18.027  18.005  0.00  0.00     0.033 H 
ATOM     49  H15 C77 d   1      48.255  16.382  17.863  0.00  0.00     0.033 H 
BRANCH  47  50
ATOM     50  CAH C77 d   1      49.246  16.773  19.754  0.00  0.00    -0.065 C 
ATOM     51  H12 C77 d   1      49.755  17.659  20.161  0.00  0.00     0.033 H 
ATOM     52  H13 C77 d   1      49.861  15.880  19.938  0.00  0.00     0.033 H 
BRANCH  50  53
ATOM     53  CAJ C77 d   1      47.901  16.596  20.527  0.00  0.00    -0.064 C 
ATOM     54  H16 C77 d   1      47.558  15.559  20.400  0.00  0.00     0.033 H 
ATOM     55  H17 C77 d   1      47.157  17.284  20.098  0.00  0.00     0.033 H 
BRANCH  53  56
ATOM     56  CAL C77 d   1      48.029  16.891  22.043  0.00  0.00    -0.051 C 
ATOM     57  H20 C77 d   1      48.157  17.973  22.193  0.00  0.00     0.034 H 
ATOM     58  H21 C77 d   1      48.904  16.359  22.444  0.00  0.00     0.034 H 
BRANCH  56  59
ATOM     59  CBF C77 d   1      46.769  16.423  22.782  0.00  0.00     0.012 C 
ATOM     60  SAY C77 d   1      46.589  17.146  24.438  0.00  0.00    -0.160 SA
ATOM     61  CAM C77 d   1      45.364  15.901  24.905  0.00  0.00    -0.002 C 
ATOM     62  CBM C77 d   1      46.018  14.616  24.424  0.00  0.00     0.042 A 
ATOM     63  H22 C77 d   1      44.404  16.075  24.397  0.00  0.00     0.052 H 
ATOM     64  H23 C77 d   1      45.205  15.885  25.993  0.00  0.00     0.052 H 
ATOM     65  NAT C77 d   1      47.006  14.198  25.413  0.00  0.00    -0.336 N 
ATOM     66  CBN C77 d   1      46.841  14.914  23.149  0.00  0.00     0.046 A 
ATOM     67  H33 C77 d   1      45.264  13.835  24.247  0.00  0.00     0.077 H 
ATOM     68  CAZ C77 d   1      48.205  14.222  24.842  0.00  0.00     0.316 A 
ATOM     69  H26 C77 d   1      46.813  13.938  26.359  0.00  0.00     0.164 HD
ATOM     70  OAD C77 d   1      49.252  13.936  25.427  0.00  0.00    -0.247 OA
ATOM     71  NAU C77 d   1      48.194  14.600  23.565  0.00  0.00    -0.335 N 
ATOM     72  H27 C77 d   1      49.002  14.659  22.978  0.00  0.00     0.164 HD
ATOM     73  H34 C77 d   1      46.514  14.295  22.300  0.00  0.00     0.077 H 
ATOM     74  H29 C77 d   1      45.890  16.643  22.158  0.00  0.00     0.059 H 
ENDBRANCH  56  59
ENDBRANCH  53  56
ENDBRANCH  50  53
ENDBRANCH  47  50
ENDBRANCH  44  47
ENDBRANCH   4  44
TORSDOF 12
