REMARK WARNING: 32 MAX_TORS EXCEEDED!!!
REMARK  43 active torsions:
REMARK  status: ('A' for Active; 'I' for Inactive)
REMARK    1  A    between atoms: N_1  and  CA_2 
REMARK    2  A    between atoms: CA_2  and  C_3 
REMARK    3  A    between atoms: CA_2  and  CB_5 
REMARK       I    between atoms: C_3  and  N_12 
REMARK    4  A    between atoms: CB_5  and  CG_6 
REMARK    5  A    between atoms: N_12  and  CA_13 
REMARK    6  A    between atoms: CA_13  and  C_14 
REMARK    7  A    between atoms: CA_13  and  CB_16 
REMARK       I    between atoms: C_14  and  N_20 
REMARK    8  A    between atoms: CB_16  and  CG_17 
REMARK       I    between atoms: CG_17  and  ND2_19 
REMARK    9  A    between atoms: N_20  and  CA_21 
REMARK   10  A    between atoms: CA_21  and  C_22 
REMARK       I    between atoms: C_22  and  N_24 
REMARK   11  A    between atoms: N_24  and  CA_25 
REMARK   12  A    between atoms: CA_25  and  C_26 
REMARK   13  A    between atoms: CA_25  and  CB_28 
REMARK       I    between atoms: C_26  and  N_32 
REMARK   14  A    between atoms: CB_28  and  CG_29 
REMARK   15  A    between atoms: CG_29  and  CD1_30 
REMARK   16  A    between atoms: CG_29  and  CD2_31 
REMARK   17  A    between atoms: N_32  and  CA_33 
REMARK   18  A    between atoms: CA_33  and  C_34 
REMARK   19  A    between atoms: CA_33  and  CB_36 
REMARK       I    between atoms: C_34  and  N_39 
REMARK   20  A    between atoms: CB_36  and  OG1_37 
REMARK   21  A    between atoms: CB_36  and  CG2_38 
REMARK   22  A    between atoms: N_39  and  CA_40 
REMARK   23  A    between atoms: CA_40  and  CB_41 
REMARK   24  A    between atoms: CA_40  and  C_43 
REMARK   25  A    between atoms: CB_41  and  OG_42 
REMARK   26  A    between atoms: OG_42  and  P_45 
REMARK       I    between atoms: C_43  and  N_49 
REMARK   27  A    between atoms: CA_50  and  C_51 
REMARK       I    between atoms: C_51  and  N_56 
REMARK   28  A    between atoms: N_56  and  CA_57 
REMARK   29  A    between atoms: CA_57  and  C_58 
REMARK   30  A    between atoms: CA_57  and  CB_60 
REMARK       I    between atoms: C_58  and  N_65 
REMARK   31  A    between atoms: CB_60  and  CG_61 
REMARK   32  A    between atoms: CG_61  and  CD_62 
REMARK       I    between atoms: CD_62  and  NE2_64 
REMARK   33  A    between atoms: N_65  and  CA_66 
REMARK   34  A    between atoms: CA_66  and  C_67 
REMARK   35  A    between atoms: CA_66  and  CB_69 
REMARK       I    between atoms: C_67  and  N_76 
REMARK   36  A    between atoms: CB_69  and  CG_70 
REMARK   37  A    between atoms: CG_70  and  CD_71 
REMARK   38  A    between atoms: CD_71  and  NE_72 
REMARK       I    between atoms: NE_72  and  CZ_73 
REMARK       I    between atoms: CZ_73  and  NH1_74 
REMARK       I    between atoms: CZ_73  and  NH2_75 
REMARK   39  A    between atoms: N_76  and  CA_77 
REMARK   40  A    between atoms: CA_77  and  CB_78 
REMARK   41  A    between atoms: CA_77  and  C_80 
REMARK   42  A    between atoms: CB_78  and  OG_79 
REMARK   43  A    between atoms: OG_79  and  P_82 
ROOT
ATOM      1  CA  SEP d   1      26.020  36.994 -24.622  0.00  0.00     0.110 C 
ATOM      2  H40 SEP d   1      25.114  36.764 -24.042  0.00  0.00     0.090 H 
ENDROOT
BRANCH   1   3
ATOM      3  N   SEP d   1      26.326  38.410 -24.456  0.00  0.00    -0.344 N 
ATOM      4  C   THR d   1      25.454  39.249 -23.910  0.00  0.00     0.243 C 
ATOM      5  O   THR d   1      24.325  38.905 -23.560  0.00  0.00    -0.271 OA
ATOM      6  H39 SEP d   1      27.213  38.757 -24.760  0.00  0.00     0.163 HD
BRANCH   4   7
ATOM      7  CA  THR d   1      25.914  40.692 -23.739  0.00  0.00     0.113 C 
ATOM      8  H33 THR d   1      26.704  40.912 -24.472  0.00  0.00     0.091 H 
BRANCH   7   9
ATOM      9  N   THR d   1      24.792  41.591 -23.979  0.00  0.00    -0.344 N 
ATOM     10  C   LEU d   1      24.221  41.678 -25.176  0.00  0.00     0.241 C 
ATOM     11  O   LEU d   1      24.619  41.040 -26.152  0.00  0.00    -0.271 OA
ATOM     12  H32 THR d   1      24.445  42.153 -23.228  0.00  0.00     0.163 HD
BRANCH  10  13
ATOM     13  CA  LEU d   1      23.031  42.628 -25.299  0.00  0.00     0.089 C 
ATOM     14  H22 LEU d   1      22.687  42.884 -24.286  0.00  0.00     0.087 H 
BRANCH  13  15
ATOM     15  N   LEU d   1      23.401  43.860 -25.984  0.00  0.00    -0.346 N 
ATOM     16  C   GLY d   1      23.375  45.032 -25.359  0.00  0.00     0.236 C 
ATOM     17  O   GLY d   1      23.125  45.142 -24.157  0.00  0.00    -0.272 OA
ATOM     18  H21 LEU d   1      23.680  43.822 -26.944  0.00  0.00     0.163 HD
BRANCH  16  19
ATOM     19  CA  GLY d   1      23.677  46.257 -26.201  0.00  0.00     0.069 C 
ATOM     20  H19 GLY d   1      22.742  46.821 -26.332  0.00  0.00     0.078 H 
ATOM     21  H20 GLY d   1      24.405  46.876 -25.656  0.00  0.00     0.078 H 
BRANCH  19  22
ATOM     22  N   GLY d   1      24.221  45.972 -27.518  0.00  0.00    -0.351 N 
ATOM     23  C   ASN d   1      23.438  45.795 -28.579  0.00  0.00     0.241 C 
ATOM     24  O   ASN d   1      22.207  45.787 -28.511  0.00  0.00    -0.271 OA
ATOM     25  H18 GLY d   1      25.213  45.907 -27.630  0.00  0.00     0.163 HD
BRANCH  23  26
ATOM     26  CA  ASN d   1      24.148  45.582 -29.920  0.00  0.00     0.097 C 
ATOM     27  H13 ASN d   1      23.926  46.461 -30.543  0.00  0.00     0.088 H 
BRANCH  26  28
ATOM     28  N   ASN d   1      25.605  45.490 -29.819  0.00  0.00    -0.346 N 
ATOM     29  C   PHE d   1      26.388  46.562 -29.914  0.00  0.00     0.249 C 
ATOM     30  O   PHE d   1      25.950  47.706 -30.041  0.00  0.00    -0.271 OA
ATOM     31  H12 ASN d   1      26.025  44.594 -29.674  0.00  0.00     0.163 HD
BRANCH  29  32
ATOM     32  CA  PHE d   1      27.893  46.309 -29.857  0.00  0.00     0.179 C 
ATOM     33  H4  PHE d   1      28.061  45.222 -29.819  0.00  0.00     0.099 H 
BRANCH  32  34
ATOM     34  N   PHE d   1      28.550  46.835 -31.049  0.00  0.00    -0.066 N 
ATOM     35  H1  PHE d   1      29.541  46.658 -30.992  0.00  0.00     0.275 HD
ATOM     36  H2  PHE d   1      28.389  47.828 -31.111  0.00  0.00     0.275 HD
ATOM     37  H3  PHE d   1      28.174  46.382 -31.867  0.00  0.00     0.275 HD
ENDBRANCH  32  34
BRANCH  32  38
ATOM     38  CB  PHE d   1      28.495  46.936 -28.597  0.00  0.00    -0.006 C 
ATOM     39  H5  PHE d   1      28.308  48.020 -28.626  0.00  0.00     0.043 H 
ATOM     40  H6  PHE d   1      29.579  46.750 -28.602  0.00  0.00     0.043 H 
BRANCH  38  41
ATOM     41  CG  PHE d   1      27.927  46.392 -27.314  0.00  0.00    -0.056 A 
ATOM     42  CD1 PHE d   1      27.898  45.027 -27.077  0.00  0.00    -0.077 A 
ATOM     43  CE1 PHE d   1      27.382  44.523 -25.895  0.00  0.00    -0.082 A 
ATOM     44  H7  PHE d   1      28.284  44.345 -27.826  0.00  0.00     0.084 H 
ATOM     45  CZ  PHE d   1      26.896  45.388 -24.930  0.00  0.00    -0.083 A 
ATOM     46  H9  PHE d   1      27.359  43.453 -25.726  0.00  0.00     0.083 H 
ATOM     47  CE2 PHE d   1      26.927  46.752 -25.149  0.00  0.00    -0.082 A 
ATOM     48  H11 PHE d   1      26.492  44.996 -24.004  0.00  0.00     0.083 H 
ATOM     49  CD2 PHE d   1      27.441  47.248 -26.336  0.00  0.00    -0.077 A 
ATOM     50  H10 PHE d   1      26.550  47.432 -24.394  0.00  0.00     0.083 H 
ATOM     51  H8  PHE d   1      27.464  48.319 -26.503  0.00  0.00     0.084 H 
ENDBRANCH  38  41
ENDBRANCH  32  38
ENDBRANCH  29  32
ENDBRANCH  26  28
BRANCH  26  52
ATOM     52  CB  ASN d   1      23.575  44.350 -30.633  0.00  0.00     0.036 C 
ATOM     53  H14 ASN d   1      23.965  44.326 -31.661  0.00  0.00     0.051 H 
ATOM     54  H15 ASN d   1      22.479  44.437 -30.658  0.00  0.00     0.051 H 
BRANCH  52  55
ATOM     55  CG  ASN d   1      23.944  43.044 -29.942  0.00  0.00     0.217 C 
ATOM     56  OD1 ASN d   1      24.410  43.036 -28.801  0.00  0.00    -0.274 OA
ATOM     57  ND2 ASN d   1      23.732  41.931 -30.635  0.00  0.00    -0.370 N 
ATOM     58  H16 ASN d   1      23.955  41.042 -30.234  0.00  0.00     0.159 HD
ATOM     59  H17 ASN d   1      23.350  41.982 -31.558  0.00  0.00     0.159 HD
ENDBRANCH  52  55
ENDBRANCH  26  52
ENDBRANCH  23  26
ENDBRANCH  19  22
ENDBRANCH  16  19
ENDBRANCH  13  15
BRANCH  13  60
ATOM     60  CB  LEU d   1      21.884  41.948 -26.047  0.00  0.00    -0.035 C 
ATOM     61  H23 LEU d   1      21.429  41.206 -25.374  0.00  0.00     0.037 H 
ATOM     62  H24 LEU d   1      22.304  41.437 -26.926  0.00  0.00     0.037 H 
BRANCH  60  63
ATOM     63  CG  LEU d   1      20.780  42.895 -26.529  0.00  0.00    -0.059 C 
ATOM     64  H25 LEU d   1      21.254  43.706 -27.101  0.00  0.00     0.038 H 
BRANCH  63  65
ATOM     65  CD1 LEU d   1      19.823  42.169 -27.446  0.00  0.00    -0.073 C 
ATOM     66  H26 LEU d   1      19.039  42.864 -27.782  0.00  0.00     0.028 H 
ATOM     67  H27 LEU d   1      19.362  41.329 -26.905  0.00  0.00     0.028 H 
ATOM     68  H28 LEU d   1      20.371  41.786 -28.319  0.00  0.00     0.028 H 
ENDBRANCH  63  65
BRANCH  63  69
ATOM     69  CD2 LEU d   1      20.029  43.521 -25.357  0.00  0.00    -0.073 C 
ATOM     70  H29 LEU d   1      20.742  44.044 -24.702  0.00  0.00     0.028 H 
ATOM     71  H30 LEU d   1      19.517  42.732 -24.786  0.00  0.00     0.028 H 
ATOM     72  H31 LEU d   1      19.287  44.238 -25.738  0.00  0.00     0.028 H 
ENDBRANCH  63  69
ENDBRANCH  60  63
ENDBRANCH  13  60
ENDBRANCH  10  13
ENDBRANCH   7   9
BRANCH   7  73
ATOM     73  CB  THR d   1      26.493  40.855 -22.316  0.00  0.00     0.060 C 
ATOM     74  H34 THR d   1      25.824  40.353 -21.601  0.00  0.00     0.086 H 
BRANCH  73  75
ATOM     75  OG1 THR d   1      26.585  42.244 -21.976  0.00  0.00    -0.393 OA
ATOM     76  H35 THR d   1      26.942  42.331 -21.100  0.00  0.00     0.210 HD
ENDBRANCH  73  75
BRANCH  73  77
ATOM     77  CG2 THR d   1      27.875  40.227 -22.227  0.00  0.00    -0.050 C 
ATOM     78  H36 THR d   1      28.270  40.353 -21.208  0.00  0.00     0.031 H 
ATOM     79  H37 THR d   1      28.548  40.719 -22.945  0.00  0.00     0.031 H 
ATOM     80  H38 THR d   1      27.807  39.155 -22.464  0.00  0.00     0.031 H 
ENDBRANCH  73  77
ENDBRANCH   7  73
ENDBRANCH   4   7
ENDBRANCH   1   3
BRANCH   1  81
ATOM     81  CB  SEP d   1      25.747  36.676 -26.095  0.00  0.00     0.059 C 
ATOM     82  H41 SEP d   1      26.681  36.786 -26.665  0.00  0.00     0.079 H 
ATOM     83  H42 SEP d   1      24.997  37.381 -26.482  0.00  0.00     0.079 H 
BRANCH  81  84
ATOM     84  OG  SEP d   1      25.263  35.355 -26.251  0.00  0.00    -0.280 OA
BRANCH  84  85
ATOM     85  P   SEP d   1      23.776  35.429 -26.859  0.00  0.00     0.422 P 
ATOM     86  O1P SEP d   1      23.040  36.773 -26.345  0.00  0.00    -0.617 OA
ATOM     87  O2P SEP d   1      23.893  35.444 -28.464  0.00  0.00    -0.617 OA
ATOM     88  O3P SEP d   1      22.958  34.130 -26.375  0.00  0.00    -0.617 OA
ENDBRANCH  84  85
ENDBRANCH  81  84
ENDBRANCH   1  81
BRANCH   1  89
ATOM     89  C   SEP d   1      27.160  36.130 -24.098  0.00  0.00     0.245 C 
ATOM     90  O   SEP d   1      28.329  36.506 -24.192  0.00  0.00    -0.271 OA
ATOM     91  N   PRO d   1      26.818  34.975 -23.517  0.00  0.00    -0.337 N 
ATOM     92  CA  PRO d   1      27.835  33.994 -23.130  0.00  0.00     0.091 C 
ATOM     93  CD  PRO d   1      25.460  34.550 -23.137  0.00  0.00    -0.001 C 
ATOM     94  CB  PRO d   1      27.004  32.787 -22.704  0.00  0.00    -0.036 C 
ATOM     95  H43 PRO d   1      28.469  34.369 -22.313  0.00  0.00     0.087 H 
ATOM     96  CG  PRO d   1      25.703  33.350 -22.279  0.00  0.00    -0.048 C 
ATOM     97  H44 PRO d   1      27.488  32.259 -21.869  0.00  0.00     0.036 H 
ATOM     98  H45 PRO d   1      26.869  32.094 -23.547  0.00  0.00     0.036 H 
ATOM     99  H46 PRO d   1      25.743  33.642 -21.219  0.00  0.00     0.035 H 
ATOM    100  H47 PRO d   1      24.902  32.610 -22.425  0.00  0.00     0.035 H 
ATOM    101  H48 PRO d   1      24.867  34.286 -24.025  0.00  0.00     0.064 H 
ATOM    102  H49 PRO d   1      24.943  35.340 -22.572  0.00  0.00     0.064 H 
BRANCH  92 103
ATOM    103  C   PRO d   1      28.685  33.595 -24.323  0.00  0.00     0.241 C 
ATOM    104  O   PRO d   1      28.235  33.726 -25.459  0.00  0.00    -0.271 OA
ATOM    105  N   GLN d   1      29.895  33.111 -24.083  0.00  0.00    -0.346 N 
ATOM    106  H50 GLN d   1      30.248  33.078 -23.148  0.00  0.00     0.163 HD
BRANCH 105 107
ATOM    107  CA  GLN d   1      30.707  32.628 -25.190  0.00  0.00     0.090 C 
ATOM    108  H51 GLN d   1      30.463  33.234 -26.075  0.00  0.00     0.087 H 
BRANCH 107 109
ATOM    109  C   GLN d   1      30.371  31.176 -25.511  0.00  0.00     0.241 C 
ATOM    110  O   GLN d   1      29.766  30.477 -24.699  0.00  0.00    -0.271 OA
ATOM    111  N   ARG d   1      30.750  30.743 -26.708  0.00  0.00    -0.346 N 
ATOM    112  H58 ARG d   1      31.209  31.380 -27.327  0.00  0.00     0.163 HD
BRANCH 111 113
ATOM    113  CA  ARG d   1      30.521  29.373 -27.153  0.00  0.00     0.089 C 
ATOM    114  H59 ARG d   1      29.436  29.191 -27.168  0.00  0.00     0.087 H 
BRANCH 113 115
ATOM    115  C   ARG d   1      31.160  28.362 -26.199  0.00  0.00     0.241 C 
ATOM    116  O   ARG d   1      32.197  28.633 -25.594  0.00  0.00    -0.271 OA
ATOM    117  N   SEP d   1      30.518  27.207 -26.054  0.00  0.00    -0.343 N 
ATOM    118  H71 SEP d   1      29.657  27.072 -26.544  0.00  0.00     0.163 HD
BRANCH 117 119
ATOM    119  CA  SEP d   1      31.019  26.130 -25.209  0.00  0.00     0.117 C 
ATOM    120  H72 SEP d   1      31.453  26.565 -24.297  0.00  0.00     0.093 H 
BRANCH 119 121
ATOM    121  CB  SEP d   1      29.869  25.198 -24.820  0.00  0.00     0.060 C 
ATOM    122  H73 SEP d   1      30.249  24.428 -24.133  0.00  0.00     0.079 H 
ATOM    123  H74 SEP d   1      29.475  24.718 -25.728  0.00  0.00     0.079 H 
BRANCH 121 124
ATOM    124  OG  SEP d   1      28.821  25.908 -24.182  0.00  0.00    -0.280 OA
BRANCH 124 125
ATOM    125  P   SEP d   1      27.578  26.085 -25.189  0.00  0.00     0.422 P 
ATOM    126  O1P SEP d   1      27.778  27.434 -26.044  0.00  0.00    -0.617 OA
ATOM    127  O2P SEP d   1      27.506  24.822 -26.183  0.00  0.00    -0.617 OA
ATOM    128  O3P SEP d   1      26.214  26.186 -24.344  0.00  0.00    -0.617 OA
ENDBRANCH 124 125
ENDBRANCH 121 124
ENDBRANCH 119 121
BRANCH 119 129
ATOM    129  C   SEP d   1      32.098  25.337 -25.943  0.00  0.00     0.198 C 
ATOM    130  O   SEP d   1      33.161  25.040 -25.394  0.00  0.00    -0.646 OA
ATOM    131  OXT SEP d   1      31.942  24.968 -27.109  0.00  0.00    -0.646 OA
ENDBRANCH 119 129
ENDBRANCH 117 119
ENDBRANCH 113 115
BRANCH 113 132
ATOM    132  CB  ARG d   1      31.062  29.197 -28.576  0.00  0.00    -0.036 C 
ATOM    133  H60 ARG d   1      32.135  29.440 -28.562  0.00  0.00     0.036 H 
ATOM    134  H61 ARG d   1      30.533  29.907 -29.229  0.00  0.00     0.036 H 
BRANCH 132 135
ATOM    135  CG  ARG d   1      30.905  27.800 -29.178  0.00  0.00    -0.048 C 
ATOM    136  H62 ARG d   1      31.511  27.092 -28.593  0.00  0.00     0.035 H 
ATOM    137  H63 ARG d   1      31.265  27.820 -30.217  0.00  0.00     0.035 H 
BRANCH 135 138
ATOM    138  CD  ARG d   1      29.452  27.328 -29.170  0.00  0.00     0.009 C 
ATOM    139  H64 ARG d   1      28.828  28.091 -29.658  0.00  0.00     0.064 H 
ATOM    140  H65 ARG d   1      29.126  27.199 -28.127  0.00  0.00     0.064 H 
BRANCH 138 141
ATOM    141  NE  ARG d   1      29.285  26.057 -29.878  0.00  0.00    -0.227 N 
ATOM    142  CZ  ARG d   1      29.506  24.860 -29.340  0.00  0.00     0.665 C 
ATOM    143  NH1 ARG d   1      29.905  24.759 -28.081  0.00  0.00    -0.235 N 
ATOM    144  NH2 ARG d   1      29.332  23.760 -30.062  0.00  0.00    -0.235 N 
ATOM    145  H67 ARG d   1      30.075  23.831 -27.668  0.00  0.00     0.174 HD
ATOM    146  H68 ARG d   1      30.045  25.608 -27.515  0.00  0.00     0.174 HD
ATOM    147  H69 ARG d   1      29.022  23.831 -31.042  0.00  0.00     0.174 HD
ATOM    148  H70 ARG d   1      29.507  22.836 -29.643  0.00  0.00     0.174 HD
ATOM    149  H66 ARG d   1      28.975  26.092 -30.860  0.00  0.00     0.177 HD
ENDBRANCH 138 141
ENDBRANCH 135 138
ENDBRANCH 132 135
ENDBRANCH 113 132
ENDBRANCH 111 113
ENDBRANCH 107 109
BRANCH 107 150
ATOM    150  CB  GLN d   1      32.200  32.803 -24.904  0.00  0.00    -0.030 C 
ATOM    151  H52 GLN d   1      32.767  32.239 -25.659  0.00  0.00     0.037 H 
ATOM    152  H53 GLN d   1      32.413  32.396 -23.905  0.00  0.00     0.037 H 
BRANCH 150 153
ATOM    153  CG  GLN d   1      32.660  34.255 -24.941  0.00  0.00     0.011 C 
ATOM    154  H54 GLN d   1      32.243  34.778 -24.068  0.00  0.00     0.047 H 
ATOM    155  H55 GLN d   1      32.280  34.720 -25.863  0.00  0.00     0.047 H 
BRANCH 153 156
ATOM    156  CD  GLN d   1      34.168  34.396 -24.914  0.00  0.00     0.215 C 
ATOM    157  OE1 GLN d   1      34.887  33.457 -24.570  0.00  0.00    -0.274 OA
ATOM    158  NE2 GLN d   1      34.657  35.575 -25.284  0.00  0.00    -0.370 N 
ATOM    159  H56 GLN d   1      35.645  35.728 -25.287  0.00  0.00     0.159 HD
ATOM    160  H57 GLN d   1      34.037  36.309 -25.560  0.00  0.00     0.159 HD
ENDBRANCH 153 156
ENDBRANCH 150 153
ENDBRANCH 107 150
ENDBRANCH 105 107
ENDBRANCH  92 103
ENDBRANCH   1  89
TORSDOF 43
