REMARK  12 active torsions:
REMARK  status: ('A' for Active; 'I' for Inactive)
REMARK    1  A    between atoms: CAY_25  and  CAA_1 
REMARK    2  A    between atoms: CAI_9  and  CAH_8 
REMARK    3  A    between atoms: CAH_8  and  CAJ_10 
REMARK    4  A    between atoms: CAM_13  and  CAI_9 
REMARK    5  A    between atoms: CAJ_10  and  CAN_14 
REMARK    6  A    between atoms: CAL_12  and  CAK_11 
REMARK    7  A    between atoms: CAK_11  and  CAO_15 
REMARK    8  A    between atoms: CAP_16  and  CAL_12 
REMARK    9  A    between atoms: CAZ_26  and  CAM_13 
REMARK   10  A    between atoms: CAN_14  and  CBD_30 
REMARK   11  A    between atoms: CAO_15  and  NBE_31 
REMARK   12  A    between atoms: NBF_32  and  CAP_16 
ROOT
ATOM      1  CAG 36F d   1      51.005  18.709  16.796  0.00  0.00     0.025 A 
ATOM      2  NAR 36F d   1      52.067  17.022  17.574  0.00  0.00    -0.135 NA
ATOM      3  NAS 36F d   1      52.856  17.966  17.456  0.00  0.00    -0.066 NA
ATOM      4  CAZ 36F d   1      50.866  17.444  17.167  0.00  0.00     0.075 A 
ATOM      5  NBE 36F d   1      52.281  18.972  17.010  0.00  0.00    -0.261 N 
ATOM      6  H7  36F d   1      50.241  19.379  16.404  0.00  0.00     0.117 H 
ENDROOT
BRANCH   4   7
ATOM      7  CAM 36F d   1      49.560  16.645  17.141  0.00  0.00    -0.022 C 
ATOM      8  H18 36F d   1      49.012  16.873  16.215  0.00  0.00     0.042 H 
ATOM      9  H19 36F d   1      49.791  15.570  17.175  0.00  0.00     0.042 H 
BRANCH   7  10
ATOM     10  CAI 36F d   1      48.683  17.019  18.359  0.00  0.00    -0.060 C 
ATOM     11  H10 36F d   1      48.928  18.052  18.648  0.00  0.00     0.033 H 
ATOM     12  H11 36F d   1      47.630  16.965  18.047  0.00  0.00     0.033 H 
BRANCH  10  13
ATOM     13  CAH 36F d   1      48.857  16.120  19.607  0.00  0.00    -0.065 C 
ATOM     14  H8  36F d   1      49.681  16.515  20.219  0.00  0.00     0.033 H 
ATOM     15  H9  36F d   1      49.101  15.099  19.280  0.00  0.00     0.033 H 
BRANCH  13  16
ATOM     16  CAJ 36F d   1      47.586  16.078  20.454  0.00  0.00    -0.064 C 
ATOM     17  H12 36F d   1      47.231  15.039  20.522  0.00  0.00     0.033 H 
ATOM     18  H13 36F d   1      46.813  16.699  19.978  0.00  0.00     0.033 H 
BRANCH  16  19
ATOM     19  CAN 36F d   1      47.861  16.607  21.857  0.00  0.00    -0.051 C 
ATOM     20  H20 36F d   1      47.945  17.703  21.830  0.00  0.00     0.034 H 
ATOM     21  H21 36F d   1      48.799  16.177  22.239  0.00  0.00     0.034 H 
BRANCH  19  22
ATOM     22  CBD 36F d   1      46.711  16.204  22.756  0.00  0.00     0.012 C 
ATOM     23  SAW 36F d   1      46.652  17.117  24.301  0.00  0.00    -0.160 SA
ATOM     24  CAQ 36F d   1      45.537  15.907  25.082  0.00  0.00    -0.002 C 
ATOM     25  CBG 36F d   1      46.063  14.537  24.576  0.00  0.00     0.042 A 
ATOM     26  H26 36F d   1      44.497  16.070  24.763  0.00  0.00     0.052 H 
ATOM     27  H27 36F d   1      45.598  15.969  26.179  0.00  0.00     0.052 H 
ATOM     28  NAT 36F d   1      47.062  14.023  25.522  0.00  0.00    -0.336 N 
ATOM     29  CBH 36F d   1      46.901  14.764  23.287  0.00  0.00     0.046 A 
ATOM     30  H31 36F d   1      45.235  13.830  24.418  0.00  0.00     0.077 H 
ATOM     31  CAX 36F d   1      48.279  14.029  24.953  0.00  0.00     0.316 A 
ATOM     32  H28 36F d   1      46.865  13.714  26.453  0.00  0.00     0.164 HD
ATOM     33  OAB 36F d   1      49.304  13.675  25.538  0.00  0.00    -0.247 OA
ATOM     34  NAU 36F d   1      48.292  14.469  23.689  0.00  0.00    -0.335 N 
ATOM     35  H29 36F d   1      49.104  14.579  23.115  0.00  0.00     0.164 HD
ATOM     36  H32 36F d   1      46.586  14.060  22.502  0.00  0.00     0.077 H 
ATOM     37  H30 36F d   1      45.768  16.309  22.200  0.00  0.00     0.059 H 
ENDBRANCH  19  22
ENDBRANCH  16  19
ENDBRANCH  13  16
ENDBRANCH  10  13
ENDBRANCH   7  10
ENDBRANCH   4   7
BRANCH   5  38
ATOM     38  CAO 36F d   1      52.884  20.298  16.744  0.00  0.00     0.018 C 
ATOM     39  H22 36F d   1      53.219  20.332  15.697  0.00  0.00     0.067 H 
ATOM     40  H23 36F d   1      52.122  21.074  16.910  0.00  0.00     0.067 H 
BRANCH  38  41
ATOM     41  CAK 36F d   1      54.093  20.581  17.664  0.00  0.00    -0.047 C 
ATOM     42  H14 36F d   1      54.815  19.758  17.554  0.00  0.00     0.035 H 
ATOM     43  H15 36F d   1      54.561  21.524  17.344  0.00  0.00     0.035 H 
BRANCH  41  44
ATOM     44  CAL 36F d   1      53.718  20.703  19.147  0.00  0.00    -0.048 C 
ATOM     45  H16 36F d   1      53.748  19.703  19.605  0.00  0.00     0.035 H 
ATOM     46  H17 36F d   1      52.699  21.111  19.224  0.00  0.00     0.035 H 
BRANCH  44  47
ATOM     47  CAP 36F d   1      54.676  21.622  19.904  0.00  0.00     0.005 C 
ATOM     48  H24 36F d   1      55.690  21.527  19.488  0.00  0.00     0.065 H 
ATOM     49  H25 36F d   1      54.690  21.349  20.969  0.00  0.00     0.065 H 
BRANCH  47  50
ATOM     50  NBF 36F d   1      54.202  23.008  19.751  0.00  0.00    -0.291 N 
ATOM     51  CBA 36F d   1      54.573  23.807  18.745  0.00  0.00     0.372 A 
ATOM     52  OAC 36F d   1      55.337  23.511  17.825  0.00  0.00    -0.237 OA
ATOM     53  OAV 36F d   1      53.972  25.020  18.869  0.00  0.00    -0.259 OA
ATOM     54  CBB 36F d   1      53.206  24.944  20.002  0.00  0.00     0.107 A 
ATOM     55  CAE 36F d   1      52.377  25.896  20.616  0.00  0.00    -0.047 A 
ATOM     56  CBC 36F d   1      53.349  23.664  20.568  0.00  0.00     0.073 A 
ATOM     57  CAD 36F d   1      51.677  25.600  21.794  0.00  0.00    -0.074 A 
ATOM     58  H5  36F d   1      52.276  26.879  20.171  0.00  0.00     0.087 H 
ATOM     59  CAY 36F d   1      51.807  24.342  22.388  0.00  0.00    -0.060 A 
ATOM     60  H4  36F d   1      51.034  26.348  22.244  0.00  0.00     0.084 H 
ATOM     61  CAF 36F d   1      52.649  23.366  21.774  0.00  0.00    -0.048 A 
ATOM     62  H6  36F d   1      52.757  22.388  22.229  0.00  0.00     0.087 H 
BRANCH  59  63
ATOM     63  CAA 36F d   1      50.990  24.115  23.686  0.00  0.00    -0.051 C 
ATOM     64  H1  36F d   1      50.432  25.030  23.933  0.00  0.00     0.033 H 
ATOM     65  H2  36F d   1      51.674  23.869  24.512  0.00  0.00     0.033 H 
ATOM     66  H3  36F d   1      50.284  23.285  23.535  0.00  0.00     0.033 H 
ENDBRANCH  59  63
ENDBRANCH  47  50
ENDBRANCH  44  47
ENDBRANCH  41  44
ENDBRANCH  38  41
ENDBRANCH   5  38
TORSDOF 12
