REMARK  9 active torsions:
REMARK  status: ('A' for Active; 'I' for Inactive)
REMARK    1  A    between atoms: CBD_1  and  CAT_2 
REMARK    2  A    between atoms: CAT_2  and  CAS_3 
REMARK    3  A    between atoms: CAS_3  and  OAR_4 
REMARK    4  A    between atoms: OAR_4  and  CAN_5 
REMARK    5  A    between atoms: CAL_9  and  CAP_10 
REMARK    6  A    between atoms: CAK_11  and  CAI_12 
REMARK       I    between atoms: CAI_12  and  NAE_14 
REMARK    7  A    between atoms: CAB_21  and  CAU_22 
REMARK    8  A    between atoms: CAY_28  and  CBB_29 
REMARK    9  A    between atoms: CBB_29  and  NBC_30 
ROOT
ATOM      1  CAI 0GX d   1      45.473 -13.489  -5.273  0.00  0.00     0.262 C 
ATOM      2  OAJ 0GX d   1      45.074 -13.117  -6.376  0.00  0.00    -0.267 OA
ATOM      3  NAE 0GX d   1      44.745 -14.365  -4.576  0.00  0.00    -0.338 N 
ATOM      4  CAD 0GX d   1      43.469 -14.946  -5.002  0.00  0.00     0.016 C 
ATOM      5  CAC 0GX d   1      43.709 -16.424  -5.364  0.00  0.00    -0.039 C 
ATOM      6  CAG 0GX d   1      42.646 -14.850  -3.706  0.00  0.00    -0.044 C 
ATOM      7  CAH 0GX d   1      43.687 -14.843  -2.562  0.00  0.00    -0.044 C 
ATOM      8  CAA 0GX d   1      45.055 -14.933  -3.262  0.00  0.00     0.016 C 
ATOM      9  CAF 0GX d   1      45.433 -16.415  -3.468  0.00  0.00    -0.039 C 
ATOM     10  CAB 0GX d   1      44.279 -17.186  -4.150  0.00  0.00    -0.022 C 
ATOM     11  H11 0GX d   1      43.007 -14.401  -5.838  0.00  0.00     0.072 H 
ATOM     12  H12 0GX d   1      44.424 -16.482  -6.197  0.00  0.00     0.037 H 
ATOM     13  H13 0GX d   1      42.756 -16.883  -5.666  0.00  0.00     0.037 H 
ATOM     14  H14 0GX d   1      41.974 -15.716  -3.611  0.00  0.00     0.036 H 
ATOM     15  H15 0GX d   1      42.053 -13.923  -3.693  0.00  0.00     0.036 H 
ATOM     16  H16 0GX d   1      43.536 -15.707  -1.897  0.00  0.00     0.036 H 
ATOM     17  H17 0GX d   1      43.613 -13.914  -1.978  0.00  0.00     0.036 H 
ATOM     18  H18 0GX d   1      45.845 -14.385  -2.728  0.00  0.00     0.072 H 
ATOM     19  H19 0GX d   1      45.644 -16.873  -2.490  0.00  0.00     0.037 H 
ATOM     20  H20 0GX d   1      46.330 -16.474  -4.102  0.00  0.00     0.037 H 
ATOM     21  H21 0GX d   1      43.465 -17.263  -3.414  0.00  0.00     0.047 H 
ENDROOT
BRANCH   1  22
ATOM     22  CAK 0GX d   1      46.788 -12.927  -4.745  0.00  0.00     0.082 A 
ATOM     23  SAO 0GX d   1      48.274 -13.079  -5.536  0.00  0.00    -0.058 SA
ATOM     24  CAN 0GX d   1      49.142 -12.115  -4.449  0.00  0.00     0.128 A 
ATOM     25  CAM 0GX d   1      48.271 -11.649  -3.469  0.00  0.00     0.059 A 
ATOM     26 BR1  0GX d   1      48.834 -10.528  -2.051  0.00  0.00    -0.047 Br
ATOM     27  CAL 0GX d   1      46.947 -12.078  -3.645  0.00  0.00    -0.019 A 
BRANCH  24  28
ATOM     28  OAR 0GX d   1      50.470 -11.835  -4.504  0.00  0.00    -0.343 OA
BRANCH  28  29
ATOM     29  CAS 0GX d   1      50.842 -11.341  -5.795  0.00  0.00     0.026 C 
ATOM     30  H6  0GX d   1      51.936 -11.376  -5.900  0.00  0.00     0.075 H 
ATOM     31  H7  0GX d   1      50.379 -11.965  -6.574  0.00  0.00     0.075 H 
BRANCH  29  32
ATOM     32  CAT 0GX d   1      50.362  -9.900  -5.945  0.00  0.00    -0.048 C 
ATOM     33  H4  0GX d   1      49.265  -9.871  -5.873  0.00  0.00     0.035 H 
ATOM     34  H5  0GX d   1      50.798  -9.285  -5.144  0.00  0.00     0.035 H 
BRANCH  32  35
ATOM     35  CBD 0GX d   1      50.794  -9.351  -7.296  0.00  0.00    -0.075 C 
ATOM     36  H1  0GX d   1      50.445  -8.313  -7.398  0.00  0.00     0.027 H 
ATOM     37  H2  0GX d   1      50.358  -9.965  -8.098  0.00  0.00     0.027 H 
ATOM     38  H3  0GX d   1      51.891  -9.378  -7.369  0.00  0.00     0.027 H 
ENDBRANCH  32  35
ENDBRANCH  29  32
ENDBRANCH  28  29
ENDBRANCH  24  28
BRANCH  27  39
ATOM     39  CAP 0GX d   1      45.812 -11.697  -2.687  0.00  0.00    -0.048 C 
ATOM     40  H8  0GX d   1      46.199 -11.021  -1.911  0.00  0.00     0.033 H 
ATOM     41  H9  0GX d   1      45.410 -12.606  -2.215  0.00  0.00     0.033 H 
ATOM     42  H10 0GX d   1      45.012 -11.191  -3.248  0.00  0.00     0.033 H 
ENDBRANCH  27  39
ENDBRANCH   1  22
BRANCH  10  43
ATOM     43  CAU 0GX d   1      44.701 -18.620  -4.501  0.00  0.00    -0.015 A 
ATOM     44  CAZ 0GX d   1      45.203 -18.955  -5.764  0.00  0.00    -0.066 A 
ATOM     45  CAY 0GX d   1      45.576 -20.274  -6.035  0.00  0.00    -0.032 A 
ATOM     46  H22 0GX d   1      45.302 -18.194  -6.529  0.00  0.00     0.085 H 
ATOM     47  CAX 0GX d   1      45.447 -21.256  -5.048  0.00  0.00    -0.072 A 
ATOM     48  CAW 0GX d   1      44.947 -20.921  -3.790  0.00  0.00    -0.045 A 
ATOM     49  H24 0GX d   1      45.736 -22.279  -5.261  0.00  0.00     0.084 H 
ATOM     50  CAV 0GX d   1      44.577 -19.603  -3.519  0.00  0.00     0.123 A 
ATOM     51  H23 0GX d   1      44.846 -21.682  -3.025  0.00  0.00     0.088 H 
ATOM     52  FBA 0GX d   1      44.093 -19.272  -2.305  0.00  0.00    -0.206 F 
BRANCH  45  53
ATOM     53  CBB 0GX d   1      46.133 -20.654  -7.410  0.00  0.00     0.103 C 
ATOM     54  H25 0GX d   1      46.439 -21.711  -7.402  0.00  0.00     0.082 H 
ATOM     55  H26 0GX d   1      47.003 -20.022  -7.640  0.00  0.00     0.082 H 
BRANCH  53  56
ATOM     56  NBC 0GX d   1      45.098 -20.452  -8.432  0.00  0.00    -0.075 N 
ATOM     57  H27 0GX d   1      45.466 -20.702  -9.337  0.00  0.00     0.274 HD
ATOM     58  H28 0GX d   1      44.818 -19.484  -8.440  0.00  0.00     0.274 HD
ATOM     59  H29 0GX d   1      44.300 -21.031  -8.222  0.00  0.00     0.274 HD
ENDBRANCH  53  56
ENDBRANCH  45  53
ENDBRANCH  10  43
TORSDOF 9
