REMARK  4 active torsions:
REMARK  status: ('A' for Active; 'I' for Inactive)
REMARK    1  A    between atoms: N12_2  and  C13_3 
REMARK       I    between atoms: C02_8  and  N12_2 
REMARK       I    between atoms: N03_9  and  C02_8 
REMARK    2  A    between atoms: C04_10  and  N03_9 
REMARK    3  A    between atoms: C05_11  and  C04_10 
REMARK    4  A    between atoms: C06_12  and  C05_11 
ROOT
ATOM      1  N12 0HD d   1     -46.418   3.146  30.634  0.00  0.00    -0.309 N 
ATOM      2  O01 0HD d   1     -44.519   4.330  31.305  0.00  0.00    -0.247 OA
ATOM      3  C02 0HD d   1     -45.550   3.745  31.596  0.00  0.00     0.320 C 
ATOM      4  N03 0HD d   1     -45.899   3.613  32.965  0.00  0.00    -0.343 N 
ATOM      5  H2  0HD d   1     -47.206   2.653  31.003  0.00  0.00     0.170 HD
ATOM      6  H5  0HD d   1     -46.733   3.131  33.233  0.00  0.00     0.164 HD
ENDROOT
BRANCH   4   7
ATOM      7  C04 0HD d   1     -45.038   4.181  33.954  0.00  0.00     0.000 C 
ATOM      8  H6  0HD d   1     -45.220   5.266  33.971  0.00  0.00     0.064 H 
ATOM      9  H7  0HD d   1     -44.001   3.988  33.643  0.00  0.00     0.064 H 
BRANCH   7  10
ATOM     10  C05 0HD d   1     -45.192   3.677  35.345  0.00  0.00    -0.026 C 
ATOM     11  H8  0HD d   1     -46.199   3.961  35.684  0.00  0.00     0.042 H 
ATOM     12  H9  0HD d   1     -44.440   4.191  35.962  0.00  0.00     0.042 H 
BRANCH  10  13
ATOM     13  C06 0HD d   1     -45.040   2.212  35.593  0.00  0.00    -0.057 A 
ATOM     14  C07 0HD d   1     -46.092   1.491  36.142  0.00  0.00    -0.077 A 
ATOM     15  C08 0HD d   1     -45.954   0.128  36.379  0.00  0.00    -0.082 A 
ATOM     16  H10 0HD d   1     -47.022   1.992  36.386  0.00  0.00     0.084 H 
ATOM     17  C09 0HD d   1     -44.763  -0.514  36.071  0.00  0.00    -0.083 A 
ATOM     18  H11 0HD d   1     -46.778  -0.434  36.805  0.00  0.00     0.083 H 
ATOM     19  C10 0HD d   1     -43.713   0.210  35.523  0.00  0.00    -0.082 A 
ATOM     20  H12 0HD d   1     -44.653  -1.576  36.258  0.00  0.00     0.083 H 
ATOM     21  C11 0HD d   1     -43.847   1.570  35.282  0.00  0.00    -0.077 A 
ATOM     22  H1  0HD d   1     -42.782  -0.290  35.282  0.00  0.00     0.083 H 
ATOM     23  H13 0HD d   1     -43.024   2.130  34.853  0.00  0.00     0.084 H 
ENDBRANCH  10  13
ENDBRANCH   7  10
ENDBRANCH   4   7
BRANCH   1  24
ATOM     24  C13 0HD d   1     -46.303   3.162  29.201  0.00  0.00     0.037 A 
ATOM     25  C21 0HD d   1     -47.061   2.193  28.496  0.00  0.00    -0.055 A 
ATOM     26  C20 0HD d   1     -47.035   2.130  27.101  0.00  0.00    -0.051 A 
ATOM     27  H4  0HD d   1     -47.671   1.489  29.049  0.00  0.00     0.087 H 
ATOM     28  C16 0HD d   1     -46.253   3.070  26.388  0.00  0.00     0.088 A 
ATOM     29  H3  0HD d   1     -47.604   1.374  26.573  0.00  0.00     0.087 H 
ATOM     30  C15 0HD d   1     -45.500   4.042  27.078  0.00  0.00     0.013 A 
ATOM     31  N17 0HD d   1     -46.051   3.276  25.054  0.00  0.00    -0.175 NA
ATOM     32  C14 0HD d   1     -45.527   4.108  28.490  0.00  0.00    -0.043 A 
ATOM     33  C19 0HD d   1     -44.835   4.803  26.021  0.00  0.00     0.008 A 
ATOM     34  H14 0HD d   1     -44.964   4.869  29.018  0.00  0.00     0.088 H 
ATOM     35  N18 0HD d   1     -45.220   4.286  24.857  0.00  0.00    -0.288 N 
ATOM     36  H16 0HD d   1     -44.151   5.639  26.161  0.00  0.00     0.115 H 
ATOM     37  H15 0HD d   1     -44.914   4.624  23.933  0.00  0.00     0.188 HD
ENDBRANCH   1  24
TORSDOF 4
