REMARK  8 active torsions:
REMARK  status: ('A' for Active; 'I' for Inactive)
REMARK    1  A    between atoms: CAU_1  and  CAT_2 
REMARK    2  A    between atoms: CAT_2  and  CAR_3 
REMARK    3  A    between atoms: CAR_3  and  CAW_4 
REMARK    4  A    between atoms: CAR_3  and  OAS_6 
REMARK    5  A    between atoms: CAR_3  and  CAJ_7 
REMARK    6  A    between atoms: CAW_4  and  CAX_5 
REMARK    7  A    between atoms: CAD_15  and  CAC_16 
REMARK    8  A    between atoms: CAP_23  and  CAV_24 
ROOT
ATOM      1  CAJ 477 d   1     -52.024 -17.041  31.369  0.00  0.00    -0.022 A 
ATOM      2  CAI 477 d   1     -51.537 -16.036  30.526  0.00  0.00    -0.047 A 
ATOM      3  CAK 477 d   1     -52.851 -18.037  30.833  0.00  0.00    -0.073 A 
ATOM      4  CAL 477 d   1     -53.179 -18.033  29.471  0.00  0.00    -0.070 A 
ATOM      5  CAG 477 d   1     -52.696 -17.020  28.639  0.00  0.00    -0.007 A 
ATOM      6  CAF 477 d   1     -52.832 -16.761  27.336  0.00  0.00    -0.043 A 
ATOM      7  CAH 477 d   1     -51.857 -16.044  29.165  0.00  0.00     0.043 A 
ATOM      8  NAE 477 d   1     -51.559 -15.218  28.169  0.00  0.00    -0.354 N 
ATOM      9  CAD 477 d   1     -52.140 -15.651  27.049  0.00  0.00     0.063 A 
ATOM     10  H   477 d   1     -50.906 -15.245  30.931  0.00  0.00     0.088 H 
ATOM     11  H   477 d   1     -53.242 -18.821  31.481  0.00  0.00     0.084 H 
ATOM     12  H   477 d   1     -53.811 -18.820  29.060  0.00  0.00     0.084 H 
ATOM     13  H   477 d   1     -53.409 -17.353  26.626  0.00  0.00     0.088 H 
ATOM     14  H   477 d   1     -50.977 -14.384  28.248  0.00  0.00     0.166 HD
ENDROOT
BRANCH   1  15
ATOM     15  CAR 477 d   1     -51.653 -17.034  32.867  0.00  0.00     0.084 C 
BRANCH  15  16
ATOM     16  CAT 477 d   1     -50.134 -16.908  33.039  0.00  0.00    -0.036 C 
ATOM     17  H   477 d   1     -49.804 -16.014  32.510  0.00  0.00     0.037 H 
ATOM     18  H   477 d   1     -49.915 -16.856  34.105  0.00  0.00     0.037 H 
BRANCH  16  19
ATOM     19  CAU 477 d   1     -49.390 -18.110  32.456  0.00  0.00    -0.073 C 
ATOM     20  H   477 d   1     -49.716 -19.018  32.962  0.00  0.00     0.027 H 
ATOM     21  H   477 d   1     -49.607 -18.188  31.391  0.00  0.00     0.027 H 
ATOM     22  H   477 d   1     -48.318 -17.977  32.601  0.00  0.00     0.027 H 
ENDBRANCH  16  19
ENDBRANCH  15  16
BRANCH  15  23
ATOM     23  CAW 477 d   1     -52.309 -15.828  33.554  0.00  0.00    -0.036 C 
ATOM     24  H   477 d   1     -52.086 -14.938  32.965  0.00  0.00     0.037 H 
ATOM     25  H   477 d   1     -51.914 -15.757  34.568  0.00  0.00     0.037 H 
BRANCH  23  26
ATOM     26  CAX 477 d   1     -53.829 -15.975  33.642  0.00  0.00    -0.073 C 
ATOM     27  H   477 d   1     -54.243 -16.062  32.638  0.00  0.00     0.027 H 
ATOM     28  H   477 d   1     -54.074 -16.869  34.216  0.00  0.00     0.027 H 
ATOM     29  H   477 d   1     -54.249 -15.099  34.135  0.00  0.00     0.027 H 
ENDBRANCH  23  26
ENDBRANCH  15  23
BRANCH  15  30
ATOM     30  OAS 477 d   1     -52.101 -18.238  33.508  0.00  0.00    -0.385 OA
ATOM     31  H   477 d   1     -51.694 -18.996  33.083  0.00  0.00     0.211 HD
ENDBRANCH  15  30
ENDBRANCH   1  15
BRANCH   9  32
ATOM     32  CAC 477 d   1     -52.007 -15.021  25.807  0.00  0.00     0.096 A 
ATOM     33  NAB 477 d   1     -51.259 -13.959  25.500  0.00  0.00    -0.274 N 
ATOM     34  NAA 477 d   1     -51.387 -13.669  24.301  0.00  0.00    -0.173 NA
ATOM     35  H   477 d   1     -50.665 -13.456  26.159  0.00  0.00     0.189 HD
ATOM     36  CAM 477 d   1     -52.209 -14.513  23.665  0.00  0.00     0.097 A 
ATOM     37  CAQ 477 d   1     -52.732 -14.761  22.441  0.00  0.00    -0.034 A 
ATOM     38  CAN 477 d   1     -52.635 -15.417  24.642  0.00  0.00     0.066 A 
ATOM     39  CAP 477 d   1     -53.575 -15.802  22.388  0.00  0.00     0.049 A 
ATOM     40  H   477 d   1     -52.486 -14.160  21.565  0.00  0.00     0.089 H 
ATOM     41  SAO 477 d   1     -53.695 -16.503  23.902  0.00  0.00    -0.084 SA
BRANCH  39  42
ATOM     42  CAV 477 d   1     -54.328 -16.282  21.145  0.00  0.00     0.240 C 
ATOM     43  FAZ 477 d   1     -54.067 -15.430  20.086  0.00  0.00    -0.208 F 
ATOM     44  FAY 477 d   1     -53.936 -17.571  20.824  0.00  0.00    -0.208 F 
ATOM     45  H   477 d   1     -55.398 -16.280  21.350  0.00  0.00     0.154 H 
ENDBRANCH  39  42
ENDBRANCH   9  32
TORSDOF 8
