REMARK  8 active torsions:
REMARK  status: ('A' for Active; 'I' for Inactive)
REMARK    1  A    between atoms: CBB_1  and  CAY_2 
REMARK    2  A    between atoms: CAY_2  and  CAS_3 
REMARK    3  A    between atoms: CAS_3  and  CAZ_4 
REMARK    4  A    between atoms: CAS_3  and  OBA_6 
REMARK    5  A    between atoms: CAS_3  and  CAH_7 
REMARK    6  A    between atoms: CAZ_4  and  CBC_5 
REMARK    7  A    between atoms: CAA_15  and  CAJ_16 
REMARK    8  A    between atoms: CAP_23  and  CAR_24 
ROOT
ATOM      1  CAH 0G2 d   1     -52.281 -16.891  31.450  0.00  0.00    -0.022 A 
ATOM      2  CAI 0G2 d   1     -51.802 -15.885  30.603  0.00  0.00    -0.047 A 
ATOM      3  CAG 0G2 d   1     -53.090 -17.904  30.924  0.00  0.00    -0.073 A 
ATOM      4  CAF 0G2 d   1     -53.405 -17.922  29.563  0.00  0.00    -0.070 A 
ATOM      5  CAE 0G2 d   1     -52.925 -16.913  28.728  0.00  0.00    -0.007 A 
ATOM      6  CAB 0G2 d   1     -53.050 -16.684  27.425  0.00  0.00    -0.043 A 
ATOM      7  CAD 0G2 d   1     -52.108 -15.912  29.241  0.00  0.00     0.043 A 
ATOM      8  NAC 0G2 d   1     -51.806 -15.103  28.231  0.00  0.00    -0.354 N 
ATOM      9  CAA 0G2 d   1     -52.372 -15.575  27.120  0.00  0.00     0.063 A 
ATOM     10  H   0G2 d   1     -51.189 -15.079  31.007  0.00  0.00     0.088 H 
ATOM     11  H   0G2 d   1     -53.477 -18.684  31.580  0.00  0.00     0.084 H 
ATOM     12  H   0G2 d   1     -54.023 -18.721  29.155  0.00  0.00     0.084 H 
ATOM     13  H   0G2 d   1     -53.612 -17.299  26.722  0.00  0.00     0.088 H 
ATOM     14  H   0G2 d   1     -51.235 -14.260  28.295  0.00  0.00     0.166 HD
ENDROOT
BRANCH   9  15
ATOM     15  CAJ 0G2 d   1     -52.259 -14.991  25.858  0.00  0.00     0.096 A 
ATOM     16  NAK 0G2 d   1     -51.515 -13.952  25.487  0.00  0.00    -0.274 N 
ATOM     17  NAL 0G2 d   1     -51.677 -13.713  24.283  0.00  0.00    -0.173 NA
ATOM     18  H   0G2 d   1     -50.898 -13.427  26.107  0.00  0.00     0.189 HD
ATOM     19  CAN 0G2 d   1     -52.526 -14.570  23.706  0.00  0.00     0.097 A 
ATOM     20  CAO 0G2 d   1     -53.093 -14.860  22.511  0.00  0.00    -0.035 A 
ATOM     21  CAM 0G2 d   1     -52.928 -15.425  24.730  0.00  0.00     0.066 A 
ATOM     22  CAP 0G2 d   1     -53.941 -15.902  22.500  0.00  0.00     0.018 A 
ATOM     23  H   0G2 d   1     -52.875 -14.283  21.612  0.00  0.00     0.089 H 
ATOM     24  SAQ 0G2 d   1     -54.014 -16.518  24.068  0.00  0.00    -0.085 SA
BRANCH  22  25
ATOM     25  CAR 0G2 d   1     -54.697 -16.413  21.443  0.00  0.00    -0.019 A 
ATOM     26  CAT 0G2 d   1     -54.815 -15.687  20.254  0.00  0.00    -0.072 A 
ATOM     27  CAU 0G2 d   1     -55.584 -16.182  19.199  0.00  0.00    -0.082 A 
ATOM     28  H   0G2 d   1     -54.304 -14.730  20.150  0.00  0.00     0.084 H 
ATOM     29  CAV 0G2 d   1     -56.243 -17.404  19.328  0.00  0.00    -0.083 A 
ATOM     30  H   0G2 d   1     -55.669 -15.613  18.273  0.00  0.00     0.083 H 
ATOM     31  CAW 0G2 d   1     -56.137 -18.130  20.515  0.00  0.00    -0.082 A 
ATOM     32  H   0G2 d   1     -56.840 -17.792  18.503  0.00  0.00     0.083 H 
ATOM     33  CAX 0G2 d   1     -55.368 -17.634  21.569  0.00  0.00    -0.072 A 
ATOM     34  H   0G2 d   1     -56.654 -19.084  20.619  0.00  0.00     0.083 H 
ATOM     35  H   0G2 d   1     -55.290 -18.202  22.496  0.00  0.00     0.084 H 
ENDBRANCH  22  25
ENDBRANCH   9  15
BRANCH   1  36
ATOM     36  CAS 0G2 d   1     -51.936 -16.866  32.953  0.00  0.00     0.084 C 
BRANCH  36  37
ATOM     37  CAY 0G2 d   1     -52.779 -15.776  33.628  0.00  0.00    -0.036 C 
ATOM     38  H   0G2 d   1     -52.472 -14.811  33.225  0.00  0.00     0.037 H 
ATOM     39  H   0G2 d   1     -53.830 -15.988  33.430  0.00  0.00     0.037 H 
BRANCH  37  40
ATOM     40  CBB 0G2 d   1     -52.575 -15.747  35.147  0.00  0.00    -0.073 C 
ATOM     41  H   0G2 d   1     -52.863 -16.710  35.569  0.00  0.00     0.027 H 
ATOM     42  H   0G2 d   1     -51.526 -15.551  35.368  0.00  0.00     0.027 H 
ATOM     43  H   0G2 d   1     -53.192 -14.960  35.580  0.00  0.00     0.027 H 
ENDBRANCH  37  40
ENDBRANCH  36  37
BRANCH  36  44
ATOM     44  CAZ 0G2 d   1     -50.445 -16.552  33.151  0.00  0.00    -0.036 C 
ATOM     45  H   0G2 d   1     -50.242 -16.514  34.221  0.00  0.00     0.037 H 
ATOM     46  H   0G2 d   1     -50.227 -15.601  32.665  0.00  0.00     0.037 H 
BRANCH  44  47
ATOM     47  CBC 0G2 d   1     -49.551 -17.628  32.528  0.00  0.00    -0.073 C 
ATOM     48  H   0G2 d   1     -49.764 -18.590  32.994  0.00  0.00     0.027 H 
ATOM     49  H   0G2 d   1     -49.750 -17.689  31.458  0.00  0.00     0.027 H 
ATOM     50  H   0G2 d   1     -48.505 -17.368  32.690  0.00  0.00     0.027 H 
ENDBRANCH  44  47
ENDBRANCH  36  44
BRANCH  36  51
ATOM     51  OBA 0G2 d   1     -52.232 -18.132  33.558  0.00  0.00    -0.385 OA
ATOM     52  H   0G2 d   1     -53.163 -18.333  33.437  0.00  0.00     0.211 HD
ENDBRANCH  36  51
ENDBRANCH   1  36
TORSDOF 8
