REMARK  12 active torsions:
REMARK  status: ('A' for Active; 'I' for Inactive)
REMARK    1  A    between atoms: C01_1  and  O07_7 
REMARK    2  A    between atoms: C16_16  and  C04_4 
REMARK    3  A    between atoms: C06_6  and  O11_11 
REMARK    4  A    between atoms: O07_7  and  C08_8 
REMARK    5  A    between atoms: O11_11  and  C12_12 
REMARK    6  A    between atoms: C12_12  and  C13_13 
REMARK    7  A    between atoms: C16_16  and  N22_22 
REMARK    8  A    between atoms: C32_32  and  C16_16 
REMARK    9  A    between atoms: C20_20  and  C23_23 
REMARK   10  A    between atoms: C25_25  and  N29_29 
REMARK       I    between atoms: N29_29  and  C30_30 
REMARK   11  A    between atoms: C30_30  and  C33_33 
REMARK   12  A    between atoms: C34_34  and  C32_32 
ROOT
ATOM      1  C16 IHM d   1      21.172  -4.307  28.447  0.00  0.00     0.063 C 
ATOM      2  H12 IHM d   1      21.724  -3.464  28.006  0.00  0.00     0.084 H 
ENDROOT
BRANCH   1   3
ATOM      3  C04 IHM d   1      21.450  -4.280  29.928  0.00  0.00    -0.030 A 
ATOM      4  C03 IHM d   1      21.447  -3.027  30.645  0.00  0.00    -0.072 A 
ATOM      5  C02 IHM d   1      21.733  -3.017  32.040  0.00  0.00    -0.047 A 
ATOM      6  H2  IHM d   1      21.229  -2.101  30.125  0.00  0.00     0.084 H 
ATOM      7  C01 IHM d   1      22.037  -4.278  32.759  0.00  0.00     0.108 A 
ATOM      8  H1  IHM d   1      21.729  -2.078  32.582  0.00  0.00     0.087 H 
ATOM      9  C06 IHM d   1      22.028  -5.525  32.014  0.00  0.00     0.102 A 
ATOM     10  C05 IHM d   1      21.736  -5.500  30.616  0.00  0.00    -0.040 A 
ATOM     11  H3  IHM d   1      21.731  -6.431  30.062  0.00  0.00     0.088 H 
BRANCH   7  12
ATOM     12  O07 IHM d   1      22.352  -4.375  34.141  0.00  0.00    -0.287 OA
BRANCH  12  13
ATOM     13  C08 IHM d   1      22.437  -3.278  35.040  0.00  0.00     0.310 C 
ATOM     14  F09 IHM d   1      21.261  -2.595  35.189  0.00  0.00    -0.184 F 
ATOM     15  F10 IHM d   1      23.403  -2.400  34.585  0.00  0.00    -0.184 F 
ATOM     16  H4  IHM d   1      22.736  -3.665  36.025  0.00  0.00     0.195 H 
ENDBRANCH  12  13
ENDBRANCH   7  12
BRANCH   9  17
ATOM     17  O11 IHM d   1      22.323  -6.653  32.753  0.00  0.00    -0.348 OA
BRANCH  17  18
ATOM     18  C12 IHM d   1      22.933  -7.762  32.040  0.00  0.00     0.029 C 
ATOM     19  H5  IHM d   1      23.895  -7.452  31.607  0.00  0.00     0.075 H 
ATOM     20  H6  IHM d   1      22.266  -8.111  31.238  0.00  0.00     0.075 H 
BRANCH  18  21
ATOM     21  C13 IHM d   1      23.144  -8.843  33.039  0.00  0.00    -0.033 A 
ATOM     22  C14 IHM d   1      21.840  -9.494  33.444  0.00  0.00    -0.059 A 
ATOM     23  C15 IHM d   1      23.072 -10.293  33.035  0.00  0.00    -0.059 A 
ATOM     24  H8  IHM d   1      20.963  -9.444  32.782  0.00  0.00     0.033 H 
ATOM     25  H9  IHM d   1      21.510  -9.476  34.493  0.00  0.00     0.033 H 
ATOM     26  H10 IHM d   1      23.625 -10.870  33.790  0.00  0.00     0.033 H 
ATOM     27  H11 IHM d   1      23.078 -10.838  32.080  0.00  0.00     0.033 H 
ATOM     28  H7  IHM d   1      23.834  -8.437  33.793  0.00  0.00     0.043 H 
ENDBRANCH  18  21
ENDBRANCH  17  18
ENDBRANCH   9  17
ENDBRANCH   1   3
BRANCH   1  29
ATOM     29  N22 IHM d   1      21.675  -5.535  27.791  0.00  0.00    -0.271 N 
ATOM     30  C18 IHM d   1      22.921  -5.676  27.144  0.00  0.00     0.002 A 
ATOM     31  C19 IHM d   1      22.978  -6.999  26.671  0.00  0.00    -0.036 A 
ATOM     32  H13 IHM d   1      23.688  -4.911  27.033  0.00  0.00     0.114 H 
ATOM     33  C20 IHM d   1      21.709  -7.597  27.076  0.00  0.00     0.088 A 
ATOM     34  H14 IHM d   1      23.791  -7.474  26.123  0.00  0.00     0.089 H 
ATOM     35  N21 IHM d   1      20.970  -6.671  27.747  0.00  0.00    -0.172 NA
BRANCH  33  36
ATOM     36  C23 IHM d   1      21.232  -8.966  26.830  0.00  0.00    -0.004 A 
ATOM     37  C24 IHM d   1      19.925  -9.321  27.324  0.00  0.00    -0.045 A 
ATOM     38  C25 IHM d   1      19.371 -10.655  27.111  0.00  0.00     0.035 A 
ATOM     39  H15 IHM d   1      19.342  -8.583  27.864  0.00  0.00     0.088 H 
ATOM     40  C26 IHM d   1      20.171 -11.643  26.380  0.00  0.00    -0.057 A 
ATOM     41  C27 IHM d   1      21.489 -11.284  25.886  0.00  0.00    -0.080 A 
ATOM     42  H16 IHM d   1      19.780 -12.639  26.209  0.00  0.00     0.086 H 
ATOM     43  C28 IHM d   1      22.026  -9.954  26.102  0.00  0.00    -0.071 A 
ATOM     44  H17 IHM d   1      22.078 -12.019  25.349  0.00  0.00     0.083 H 
ATOM     45  H18 IHM d   1      23.009  -9.695  25.726  0.00  0.00     0.084 H 
BRANCH  38  46
ATOM     46  N29 IHM d   1      18.077 -10.924  27.621  0.00  0.00    -0.327 N 
ATOM     47  C30 IHM d   1      16.889 -10.189  27.471  0.00  0.00     0.218 C 
ATOM     48  O31 IHM d   1      16.800  -9.115  26.822  0.00  0.00    -0.274 OA
ATOM     49  H19 IHM d   1      17.998 -11.758  28.167  0.00  0.00     0.169 HD
BRANCH  47  50
ATOM     50  C33 IHM d   1      15.681 -10.778  28.160  0.00  0.00    -0.003 C 
ATOM     51  H22 IHM d   1      14.808 -10.133  27.984  0.00  0.00     0.040 H 
ATOM     52  H23 IHM d   1      15.873 -10.848  29.241  0.00  0.00     0.040 H 
ATOM     53  H24 IHM d   1      15.482 -11.782  27.757  0.00  0.00     0.040 H 
ENDBRANCH  47  50
ENDBRANCH  38  46
ENDBRANCH  33  36
ENDBRANCH   1  29
BRANCH   1  54
ATOM     54  C32 IHM d   1      19.631  -4.067  28.134  0.00  0.00    -0.016 C 
ATOM     55  H20 IHM d   1      19.317  -3.087  28.523  0.00  0.00     0.043 H 
ATOM     56  H21 IHM d   1      19.025  -4.858  28.601  0.00  0.00     0.043 H 
BRANCH  54  57
ATOM     57  C34 IHM d   1      19.463  -4.105  26.645  0.00  0.00    -0.053 A 
ATOM     58  C35 IHM d   1      20.087  -3.100  25.797  0.00  0.00    -0.059 A 
ATOM     59  C36 IHM d   1      19.926  -3.169  24.392  0.00  0.00     0.011 A 
ATOM     60  H25 IHM d   1      20.672  -2.302  26.239  0.00  0.00     0.086 H 
ATOM     61  N37 IHM d   1      19.157  -4.217  23.787  0.00  0.00    -0.211 N 
ATOM     62  H26 IHM d   1      20.391  -2.418  23.764  0.00  0.00     0.115 H 
ATOM     63  O17 IHM d   1      19.031  -4.271  22.560  0.00  0.00    -0.082 OA
ATOM     64  C38 IHM d   1      18.539  -5.207  24.628  0.00  0.00     0.011 A 
ATOM     65  C39 IHM d   1      18.684  -5.159  26.037  0.00  0.00    -0.059 A 
ATOM     66  H27 IHM d   1      17.954  -6.001  24.178  0.00  0.00     0.115 H 
ATOM     67  H28 IHM d   1      18.211  -5.912  26.657  0.00  0.00     0.086 H 
ENDBRANCH  54  57
ENDBRANCH   1  54
TORSDOF 12
