REMARK WARNING: 32 MAX_TORS EXCEEDED!!!
REMARK  40 active torsions:
REMARK  status: ('A' for Active; 'I' for Inactive)
REMARK    1  A    between atoms: N_1  and  CA_2 
REMARK    2  A    between atoms: CA_2  and  C_3 
REMARK    3  A    between atoms: CA_2  and  CB_5 
REMARK       I    between atoms: C_3  and  N_8 
REMARK    4  A    between atoms: CB_5  and  CG1_6 
REMARK    5  A    between atoms: CB_5  and  CG2_7 
REMARK    6  A    between atoms: N_8  and  CA_9 
REMARK    7  A    between atoms: CA_9  and  C_10 
REMARK    8  A    between atoms: CA_9  and  CB_12 
REMARK       I    between atoms: C_10  and  N_14 
REMARK    9  A    between atoms: CB_12  and  OG_13 
REMARK   10  A    between atoms: N_14  and  CA_15 
REMARK   11  A    between atoms: CA_15  and  CB_16 
REMARK   12  A    between atoms: CA_15  and  C_23 
REMARK   13  A    between atoms: CB_16  and  CG2_17 
REMARK   14  A    between atoms: CB_16  and  OG1_18 
REMARK   15  A    between atoms: OG1_18  and  P_19 
REMARK       I    between atoms: C_23  and  N_25 
REMARK   16  A    between atoms: N_25  and  CA_26 
REMARK   17  A    between atoms: CA_26  and  C_27 
REMARK   18  A    between atoms: CA_26  and  CB_29 
REMARK       I    between atoms: C_27  and  N_34 
REMARK   19  A    between atoms: CB_29  and  CG_30 
REMARK   20  A    between atoms: CG_30  and  CD_31 
REMARK       I    between atoms: CD_31  and  NE2_33 
REMARK   21  A    between atoms: N_34  and  CA_35 
REMARK   22  A    between atoms: CA_35  and  C_36 
REMARK   23  A    between atoms: CA_35  and  CB_38 
REMARK       I    between atoms: C_36  and  N_43 
REMARK   24  A    between atoms: CB_38  and  CG_39 
REMARK   25  A    between atoms: CG_39  and  CD_40 
REMARK   26  A    between atoms: N_43  and  CA_44 
REMARK   27  A    between atoms: CA_44  and  C_45 
REMARK   28  A    between atoms: CA_44  and  CB_47 
REMARK       I    between atoms: C_45  and  N_51 
REMARK   29  A    between atoms: CB_47  and  CG_48 
REMARK   30  A    between atoms: CG_48  and  CD1_49 
REMARK   31  A    between atoms: CG_48  and  CD2_50 
REMARK   32  A    between atoms: N_51  and  CA_52 
REMARK   33  A    between atoms: CA_52  and  C_53 
REMARK   34  A    between atoms: CA_52  and  CB_55 
REMARK       I    between atoms: C_53  and  N_63 
REMARK   35  A    between atoms: CB_55  and  CG_56 
REMARK   36  A    between atoms: CZ_61  and  OH_62 
REMARK   37  A    between atoms: N_63  and  CA_64 
REMARK   38  A    between atoms: CA_64  and  C_65 
REMARK   39  A    between atoms: CA_64  and  CB_67 
REMARK   40  A    between atoms: CB_67  and  OG_68 
ROOT
ATOM      1  C   GLN d   1      14.401  17.674   2.730  0.00  0.00     0.241 C 
ATOM      2  O   GLN d   1      14.533  18.863   3.109  0.00  0.00    -0.271 OA
ATOM      3  N   GLU d   1      13.284  16.969   2.934  0.00  0.00    -0.346 N 
ATOM      4  H31 GLU d   1      13.162  16.080   2.493  0.00  0.00     0.163 HD
ENDROOT
BRANCH   3   5
ATOM      5  CA  GLU d   1      12.236  17.511   3.811  0.00  0.00     0.090 C 
ATOM      6  H32 GLU d   1      11.996  18.524   3.455  0.00  0.00     0.087 H 
BRANCH   5   7
ATOM      7  C   GLU d   1      12.632  17.614   5.271  0.00  0.00     0.241 C 
ATOM      8  O   GLU d   1      13.290  16.706   5.802  0.00  0.00    -0.271 OA
ATOM      9  N   LEU d   1      12.204  18.688   5.926  0.00  0.00    -0.346 N 
ATOM     10  H37 LEU d   1      11.700  19.396   5.431  0.00  0.00     0.163 HD
BRANCH   9  11
ATOM     11  CA  LEU d   1      12.450  18.852   7.326  0.00  0.00     0.089 C 
ATOM     12  H38 LEU d   1      13.399  18.366   7.597  0.00  0.00     0.087 H 
BRANCH  11  13
ATOM     13  C   LEU d   1      11.279  18.221   8.067  0.00  0.00     0.241 C 
ATOM     14  O   LEU d   1      10.101  18.489   7.729  0.00  0.00    -0.271 OA
ATOM     15  N   TYR d   1      11.581  17.423   9.076  0.00  0.00    -0.346 N 
ATOM     16  H48 TYR d   1      12.534  17.220   9.299  0.00  0.00     0.163 HD
BRANCH  15  17
ATOM     17  CA  TYR d   1      10.499  16.848   9.854  0.00  0.00     0.093 C 
ATOM     18  H49 TYR d   1       9.564  17.337   9.542  0.00  0.00     0.088 H 
BRANCH  17  19
ATOM     19  C   TYR d   1      10.737  17.169  11.317  0.00  0.00     0.241 C 
ATOM     20  O   TYR d   1      10.648  18.340  11.712  0.00  0.00    -0.271 OA
ATOM     21  N   SER d   1      11.022  16.129  12.113  0.00  0.00    -0.343 N 
ATOM     22  H57 SER d   1      11.004  15.213  11.713  0.00  0.00     0.163 HD
BRANCH  21  23
ATOM     23  CA  SER d   1      11.362  16.254  13.547  0.00  0.00     0.116 C 
ATOM     24  H58 SER d   1      11.383  17.316  13.832  0.00  0.00     0.093 H 
BRANCH  23  25
ATOM     25  C   SER d   1      12.735  15.648  13.682  0.00  0.00     0.198 C 
ATOM     26  O   SER d   1      13.215  15.023  12.731  0.00  0.00    -0.646 OA
ATOM     27  OXT SER d   1      13.355  15.788  14.741  0.00  0.00    -0.646 OA
ENDBRANCH  23  25
BRANCH  23  28
ATOM     28  CB  SER d   1      10.364  15.506  14.472  0.00  0.00     0.045 C 
ATOM     29  H59 SER d   1      10.874  15.258  15.414  0.00  0.00     0.077 H 
ATOM     30  H60 SER d   1      10.046  14.579  13.972  0.00  0.00     0.077 H 
BRANCH  28  31
ATOM     31  OG  SER d   1       9.206  16.285  14.770  0.00  0.00    -0.398 OA
ATOM     32  H61 SER d   1       8.628  15.787  15.336  0.00  0.00     0.209 HD
ENDBRANCH  28  31
ENDBRANCH  23  28
ENDBRANCH  21  23
ENDBRANCH  17  19
BRANCH  17  33
ATOM     33  CB  TYR d   1      10.318  15.329   9.630  0.00  0.00    -0.014 C 
ATOM     34  H50 TYR d   1       9.244  15.116   9.732  0.00  0.00     0.043 H 
ATOM     35  H51 TYR d   1      10.871  14.819  10.432  0.00  0.00     0.043 H 
BRANCH  33  36
ATOM     36  CG  TYR d   1      10.774  14.701   8.303  0.00  0.00    -0.056 A 
ATOM     37  CD1 TYR d   1       9.846  14.411   7.260  0.00  0.00    -0.074 A 
ATOM     38  CE1 TYR d   1      10.265  13.800   6.057  0.00  0.00    -0.051 A 
ATOM     39  H52 TYR d   1       8.800  14.664   7.393  0.00  0.00     0.084 H 
ATOM     40  CZ  TYR d   1      11.650  13.444   5.897  0.00  0.00     0.065 A 
ATOM     41  H54 TYR d   1       9.552  13.602   5.265  0.00  0.00     0.087 H 
ATOM     42  CE2 TYR d   1      12.573  13.710   6.935  0.00  0.00    -0.051 A 
ATOM     43  CD2 TYR d   1      12.131  14.313   8.122  0.00  0.00    -0.074 A 
ATOM     44  H55 TYR d   1      13.618  13.449   6.814  0.00  0.00     0.087 H 
ATOM     45  H53 TYR d   1      12.841  14.488   8.922  0.00  0.00     0.084 H 
BRANCH  40  46
ATOM     46  OH  TYR d   1      12.118  12.800   4.723  0.00  0.00    -0.361 OA
ATOM     47  H56 TYR d   1      11.396  12.686   4.116  0.00  0.00     0.217 HD
ENDBRANCH  40  46
ENDBRANCH  33  36
ENDBRANCH  17  33
ENDBRANCH  15  17
ENDBRANCH  11  13
BRANCH  11  48
ATOM     48  CB  LEU d   1      12.476  20.319   7.746  0.00  0.00    -0.035 C 
ATOM     49  H39 LEU d   1      12.461  20.386   8.844  0.00  0.00     0.037 H 
ATOM     50  H40 LEU d   1      11.594  20.833   7.336  0.00  0.00     0.037 H 
BRANCH  48  51
ATOM     51  CG  LEU d   1      13.758  20.991   7.208  0.00  0.00    -0.059 C 
ATOM     52  H41 LEU d   1      13.806  20.822   6.122  0.00  0.00     0.038 H 
BRANCH  51  53
ATOM     53  CD1 LEU d   1      13.645  22.527   7.487  0.00  0.00    -0.073 C 
ATOM     54  H42 LEU d   1      14.547  23.035   7.114  0.00  0.00     0.028 H 
ATOM     55  H43 LEU d   1      13.550  22.697   8.570  0.00  0.00     0.028 H 
ATOM     56  H44 LEU d   1      12.759  22.929   6.974  0.00  0.00     0.028 H 
ENDBRANCH  51  53
BRANCH  51  57
ATOM     57  CD2 LEU d   1      15.046  20.464   7.823  0.00  0.00    -0.073 C 
ATOM     58  H45 LEU d   1      15.130  19.384   7.629  0.00  0.00     0.028 H 
ATOM     59  H46 LEU d   1      15.034  20.642   8.908  0.00  0.00     0.028 H 
ATOM     60  H47 LEU d   1      15.906  20.985   7.376  0.00  0.00     0.028 H 
ENDBRANCH  51  57
ENDBRANCH  48  51
ENDBRANCH  11  48
ENDBRANCH   9  11
ENDBRANCH   5   7
BRANCH   5  61
ATOM     61  CB  GLU d   1      10.969  16.636   3.710  0.00  0.00    -0.029 C 
ATOM     62  H33 GLU d   1      11.204  15.648   4.132  0.00  0.00     0.037 H 
ATOM     63  H34 GLU d   1      10.714  16.529   2.645  0.00  0.00     0.037 H 
BRANCH  61  64
ATOM     64  CG  GLU d   1       9.740  17.178   4.436  0.00  0.00     0.018 C 
ATOM     65  H35 GLU d   1       9.427  18.117   3.956  0.00  0.00     0.049 H 
ATOM     66  H36 GLU d   1      10.003  17.373   5.486  0.00  0.00     0.049 H 
BRANCH  64  67
ATOM     67  CD  GLU d   1       8.579  16.187   4.392  0.00  0.00     0.172 C 
ATOM     68  OE1 GLU d   1       8.620  15.211   3.586  0.00  0.00    -0.648 OA
ATOM     69  OE2 GLU d   1       7.679  16.340   5.227  0.00  0.00    -0.648 OA
ENDBRANCH  64  67
ENDBRANCH  61  64
ENDBRANCH   5  61
ENDBRANCH   3   5
BRANCH   1  70
ATOM     70  CA  GLN d   1      15.498  17.002   1.953  0.00  0.00     0.090 C 
ATOM     71  H24 GLN d   1      15.127  16.018   1.631  0.00  0.00     0.087 H 
BRANCH  70  72
ATOM     72  N   GLN d   1      15.825  17.782   0.751  0.00  0.00    -0.346 N 
ATOM     73  C   TPO d   1      15.119  17.649  -0.402  0.00  0.00     0.243 C 
ATOM     74  O   TPO d   1      14.154  16.855  -0.563  0.00  0.00    -0.271 OA
ATOM     75  H23 GLN d   1      16.588  18.428   0.783  0.00  0.00     0.163 HD
BRANCH  73  76
ATOM     76  CA  TPO d   1      15.511  18.546  -1.497  0.00  0.00     0.114 C 
ATOM     77  H18 TPO d   1      16.549  18.866  -1.324  0.00  0.00     0.091 H 
BRANCH  76  78
ATOM     78  N   TPO d   1      15.424  17.863  -2.745  0.00  0.00    -0.344 N 
ATOM     79  C   SER d   1      16.331  16.914  -3.058  0.00  0.00     0.243 C 
ATOM     80  O   SER d   1      17.194  16.499  -2.278  0.00  0.00    -0.271 OA
ATOM     81  H17 TPO d   1      14.692  18.087  -3.388  0.00  0.00     0.163 HD
BRANCH  79  82
ATOM     82  CA  SER d   1      16.222  16.319  -4.411  0.00  0.00     0.109 C 
ATOM     83  H13 SER d   1      16.269  17.108  -5.176  0.00  0.00     0.090 H 
BRANCH  82  84
ATOM     84  N   SER d   1      17.365  15.366  -4.630  0.00  0.00    -0.344 N 
ATOM     85  C   VAL d   1      18.459  15.725  -5.350  0.00  0.00     0.249 C 
ATOM     86  O   VAL d   1      18.453  16.757  -6.052  0.00  0.00    -0.271 OA
ATOM     87  H12 SER d   1      17.318  14.448  -4.237  0.00  0.00     0.163 HD
BRANCH  85  88
ATOM     88  CA  VAL d   1      19.729  14.775  -5.377  0.00  0.00     0.178 C 
ATOM     89  H4  VAL d   1      19.402  13.776  -5.053  0.00  0.00     0.099 H 
BRANCH  88  90
ATOM     90  N   VAL d   1      20.243  14.677  -6.781  0.00  0.00    -0.066 N 
ATOM     91  H1  VAL d   1      19.495  14.391  -7.393  0.00  0.00     0.275 HD
ATOM     92  H2  VAL d   1      20.987  13.998  -6.820  0.00  0.00     0.275 HD
ATOM     93  H3  VAL d   1      20.593  15.576  -7.074  0.00  0.00     0.275 HD
ENDBRANCH  88  90
BRANCH  88  94
ATOM     94  CB  VAL d   1      20.906  15.223  -4.423  0.00  0.00    -0.025 C 
ATOM     95  H5  VAL d   1      21.212  16.226  -4.754  0.00  0.00     0.042 H 
BRANCH  94  96
ATOM     96  CG1 VAL d   1      20.467  15.347  -2.945  0.00  0.00    -0.071 C 
ATOM     97  H6  VAL d   1      21.325  15.661  -2.333  0.00  0.00     0.028 H 
ATOM     98  H7  VAL d   1      20.099  14.374  -2.589  0.00  0.00     0.028 H 
ATOM     99  H8  VAL d   1      19.665  16.095  -2.862  0.00  0.00     0.028 H 
ENDBRANCH  94  96
BRANCH  94 100
ATOM    100  CG2 VAL d   1      22.167  14.296  -4.537  0.00  0.00    -0.071 C 
ATOM    101  H9  VAL d   1      22.469  14.216  -5.592  0.00  0.00     0.028 H 
ATOM    102  H10 VAL d   1      21.923  13.296  -4.149  0.00  0.00     0.028 H 
ATOM    103  H11 VAL d   1      22.992  14.726  -3.951  0.00  0.00     0.028 H 
ENDBRANCH  94 100
ENDBRANCH  88  94
ENDBRANCH  85  88
ENDBRANCH  82  84
BRANCH  82 104
ATOM    104  CB  SER d   1      14.848  15.639  -4.466  0.00  0.00     0.044 C 
ATOM    105  H14 SER d   1      14.122  16.315  -4.941  0.00  0.00     0.077 H 
ATOM    106  H15 SER d   1      14.514  15.401  -3.445  0.00  0.00     0.077 H 
BRANCH 104 107
ATOM    107  OG  SER d   1      14.948  14.465  -5.209  0.00  0.00    -0.398 OA
ATOM    108  H16 SER d   1      14.099  14.041  -5.245  0.00  0.00     0.209 HD
ENDBRANCH 104 107
ENDBRANCH  82 104
ENDBRANCH  79  82
ENDBRANCH  76  78
BRANCH  76 109
ATOM    109  CB  TPO d   1      14.616  19.797  -1.613  0.00  0.00     0.076 C 
ATOM    110  H19 TPO d   1      13.565  19.484  -1.693  0.00  0.00     0.087 H 
BRANCH 109 111
ATOM    111  CG2 TPO d   1      14.764  20.678  -0.403  0.00  0.00    -0.049 C 
ATOM    112  H20 TPO d   1      14.117  21.561  -0.511  0.00  0.00     0.031 H 
ATOM    113  H21 TPO d   1      15.812  21.001  -0.310  0.00  0.00     0.031 H 
ATOM    114  H22 TPO d   1      14.472  20.117   0.497  0.00  0.00     0.031 H 
ENDBRANCH 109 111
BRANCH 109 115
ATOM    115  OG1 TPO d   1      14.994  20.502  -2.812  0.00  0.00    -0.275 OA
BRANCH 115 116
ATOM    116  P   TPO d   1      13.941  20.703  -3.970  0.00  0.00     0.422 P 
ATOM    117  O1P TPO d   1      13.515  19.244  -4.340  0.00  0.00    -0.617 OA
ATOM    118  O2P TPO d   1      12.758  21.456  -3.497  0.00  0.00    -0.617 OA
ATOM    119  O3P TPO d   1      14.777  21.322  -5.054  0.00  0.00    -0.617 OA
ENDBRANCH 115 116
ENDBRANCH 109 115
ENDBRANCH  76 109
ENDBRANCH  73  76
ENDBRANCH  70  72
BRANCH  70 120
ATOM    120  CB  GLN d   1      16.774  16.768   2.822  0.00  0.00    -0.030 C 
ATOM    121  H25 GLN d   1      17.345  17.707   2.859  0.00  0.00     0.037 H 
ATOM    122  H26 GLN d   1      17.382  15.988   2.342  0.00  0.00     0.037 H 
BRANCH 120 123
ATOM    123  CG  GLN d   1      16.478  16.337   4.233  0.00  0.00     0.011 C 
ATOM    124  H27 GLN d   1      16.068  15.316   4.217  0.00  0.00     0.047 H 
ATOM    125  H28 GLN d   1      15.737  17.023   4.669  0.00  0.00     0.047 H 
BRANCH 123 126
ATOM    126  CD  GLN d   1      17.729  16.352   5.092  0.00  0.00     0.215 C 
ATOM    127  OE1 GLN d   1      17.749  16.959   6.184  0.00  0.00    -0.274 OA
ATOM    128  NE2 GLN d   1      18.808  15.688   4.600  0.00  0.00    -0.370 N 
ATOM    129  H29 GLN d   1      19.661  15.663   5.122  0.00  0.00     0.159 HD
ATOM    130  H30 GLN d   1      18.749  15.224   3.716  0.00  0.00     0.159 HD
ENDBRANCH 123 126
ENDBRANCH 120 123
ENDBRANCH  70 120
ENDBRANCH   1  70
TORSDOF 40
