REMARK  10 active torsions:
REMARK  status: ('A' for Active; 'I' for Inactive)
REMARK    1  A    between atoms: C10_8  and  C9_11 
REMARK    2  A    between atoms: N32_35  and  C33_9 
REMARK    3  A    between atoms: C15_12  and  C18_26 
REMARK    4  A    between atoms: N12_36  and  C13_13 
REMARK    5  A    between atoms: C3_16  and  N12_36 
REMARK    6  A    between atoms: C1_17  and  C11_24 
REMARK    7  A    between atoms: C29_27  and  C30_18 
REMARK       I    between atoms: C30_18  and  N32_35 
REMARK    8  A    between atoms: C23_23  and  C40_25 
REMARK    9  A    between atoms: C18_26  and  N19_37 
REMARK   10  A    between atoms: C29_27  and  N26_31 
ROOT
ATOM      1  C8  0FY d   1       5.756  32.032   8.978  0.00  0.00     0.006 C 
ATOM      2  C9  0FY d   1       6.408  31.167   8.141  0.00  0.00     0.069 C 
ATOM      3  C4  0FY d   1       5.168  32.523   6.914  0.00  0.00     0.159 A 
ATOM      4  C6  0FY d   1       6.265  30.828   5.590  0.00  0.00     0.011 A 
ATOM      5  C3  0FY d   1       4.674  33.093   5.714  0.00  0.00     0.174 A 
ATOM      6  C1  0FY d   1       5.720  31.393   4.494  0.00  0.00     0.049 A 
ATOM      7  N2  0FY d   1       4.970  32.537   4.540  0.00  0.00    -0.231 NA
ATOM      8  N5  0FY d   1       5.948  31.421   6.841  0.00  0.00    -0.301 N 
ATOM      9  N7  0FY d   1       5.083  32.869   8.178  0.00  0.00    -0.346 N 
ATOM     10  H   0FY d   1       5.780  32.038  10.068  0.00  0.00     0.115 H 
ATOM     11  H   0FY d   1       6.918  29.958   5.519  0.00  0.00     0.115 H 
ATOM     12  H   0FY d   1       4.564  33.681   8.512  0.00  0.00     0.167 HD
ENDROOT
BRANCH   5  13
ATOM     13  N12 0FY d   1       3.811  34.178   5.882  0.00  0.00    -0.331 N 
ATOM     14  H   0FY d   1       3.645  34.551   6.816  0.00  0.00     0.168 HD
BRANCH  13  15
ATOM     15  C13 0FY d   1       3.203  34.730   4.833  0.00  0.00     0.096 A 
ATOM     16  C14 0FY d   1       2.394  35.826   4.961  0.00  0.00    -0.023 A 
ATOM     17  C15 0FY d   1       1.928  36.166   3.652  0.00  0.00     0.071 A 
ATOM     18  H   0FY d   1       2.150  36.344   5.888  0.00  0.00     0.091 H 
ATOM     19  N16 0FY d   1       2.352  35.442   2.599  0.00  0.00    -0.212 NA
ATOM     20  S17 0FY d   1       3.398  34.275   3.095  0.00  0.00     0.029 SA
BRANCH  17  21
ATOM     21  C18 0FY d   1       1.078  37.324   3.397  0.00  0.00     0.123 C 
ATOM     22  H   0FY d   1       1.107  37.989   4.261  0.00  0.00     0.085 H 
ATOM     23  H   0FY d   1       0.056  36.988   3.222  0.00  0.00     0.085 H 
BRANCH  21  24
ATOM     24  N19 0FY d   1       1.567  38.058   2.195  0.00  0.00    -0.065 N 
ATOM     25  C20 0FY d   1       2.617  39.078   2.484  0.00  0.00     0.084 C 
ATOM     26  C21 0FY d   1       3.233  39.603   1.167  0.00  0.00    -0.042 C 
ATOM     27  H   0FY d   1       2.165  39.911   3.022  0.00  0.00     0.076 H 
ATOM     28  H   0FY d   1       3.402  38.620   3.086  0.00  0.00     0.076 H 
ATOM     29  C22 0FY d   1       2.135  39.981   0.135  0.00  0.00    -0.059 C 
ATOM     30  H   0FY d   1       3.818  40.495   1.391  0.00  0.00     0.035 H 
ATOM     31  H   0FY d   1       3.853  38.816   0.738  0.00  0.00     0.035 H 
ATOM     32  C23 0FY d   1       0.972  38.943  -0.022  0.00  0.00    -0.034 C 
ATOM     33  H   0FY d   1       2.629  40.044  -0.835  0.00  0.00     0.033 H 
ATOM     34  H   0FY d   1       1.680  40.906   0.490  0.00  0.00     0.033 H 
ATOM     35  C24 0FY d   1       0.464  38.660   1.387  0.00  0.00     0.087 C 
ATOM     36  H   0FY d   1       0.277  39.434  -0.703  0.00  0.00     0.042 H 
ATOM     37  H   0FY d   1      -0.376  37.967   1.341  0.00  0.00     0.076 H 
ATOM     38  H   0FY d   1       0.136  39.590   1.851  0.00  0.00     0.076 H 
ATOM     39  H   0FY d   1       2.011  37.331   1.633  0.00  0.00     0.280 HD
BRANCH  32  40
ATOM     40  C40 0FY d   1       1.180  37.604  -0.790  0.00  0.00    -0.071 C 
ATOM     41  H   0FY d   1       1.466  37.818  -1.820  0.00  0.00     0.028 H 
ATOM     42  H   0FY d   1       1.968  37.027  -0.305  0.00  0.00     0.028 H 
ATOM     43  H   0FY d   1       0.251  37.033  -0.781  0.00  0.00     0.028 H 
ENDBRANCH  32  40
ENDBRANCH  21  24
ENDBRANCH  17  21
ENDBRANCH  13  15
ENDBRANCH   5  13
BRANCH   6  44
ATOM     44  C11 0FY d   1       6.099  30.929   3.129  0.00  0.00    -0.034 C 
ATOM     45  H   0FY d   1       7.170  31.068   2.984  0.00  0.00     0.035 H 
ATOM     46  H   0FY d   1       5.851  29.873   3.024  0.00  0.00     0.035 H 
ATOM     47  H   0FY d   1       5.552  31.508   2.385  0.00  0.00     0.035 H 
ENDBRANCH   6  44
BRANCH   2  48
ATOM     48  C10 0FY d   1       7.368  30.121   8.441  0.00  0.00     0.029 A 
ATOM     49  C28 0FY d   1       7.338  29.123   9.382  0.00  0.00     0.035 A 
ATOM     50  N27 0FY d   1       8.429  28.349   9.264  0.00  0.00    -0.184 NA
ATOM     51  H   0FY d   1       6.546  28.980  10.117  0.00  0.00     0.118 H 
ATOM     52  N26 0FY d   1       9.131  28.902   8.281  0.00  0.00    -0.272 N 
ATOM     53  C25 0FY d   1       8.559  29.972   7.737  0.00  0.00     0.013 A 
ATOM     54  H   0FY d   1       8.937  30.592   6.924  0.00  0.00     0.115 H 
BRANCH  52  55
ATOM     55  C29 0FY d   1      10.367  28.309   7.839  0.00  0.00     0.090 C 
ATOM     56  H   0FY d   1      10.989  29.034   7.314  0.00  0.00     0.082 H 
ATOM     57  H   0FY d   1      10.964  27.961   8.682  0.00  0.00     0.082 H 
BRANCH  55  58
ATOM     58  C30 0FY d   1       9.973  27.162   6.933  0.00  0.00     0.242 C 
ATOM     59  N32 0FY d   1      11.054  26.384   6.570  0.00  0.00    -0.323 N 
ATOM     60  H   0FY d   1      11.981  26.774   6.738  0.00  0.00     0.169 HD
ATOM     61  O31 0FY d   1       8.816  26.991   6.591  0.00  0.00    -0.271 OA
BRANCH  59  62
ATOM     62  C33 0FY d   1      10.996  25.089   5.984  0.00  0.00     0.076 A 
ATOM     63  C34 0FY d   1       9.765  24.462   5.584  0.00  0.00    -0.039 A 
ATOM     64  C35 0FY d   1       9.805  23.189   4.992  0.00  0.00    -0.021 A 
ATOM     65  H   0FY d   1       8.812  24.969   5.738  0.00  0.00     0.089 H 
ATOM     66  N36 0FY d   1      11.000  22.633   4.815  0.00  0.00    -0.372 N 
ATOM     67  H   0FY d   1       8.892  22.677   4.689  0.00  0.00     0.111 H 
ATOM     68  C37 0FY d   1      12.197  23.159   5.171  0.00  0.00     0.016 A 
ATOM     69  H   0FY d   1      11.017  21.718   4.366  0.00  0.00     0.164 HD
ATOM     70  C38 0FY d   1      12.244  24.379   5.752  0.00  0.00     0.158 A 
ATOM     71  H   0FY d   1      13.116  22.602   4.990  0.00  0.00     0.116 H 
ATOM     72  F39 0FY d   1      13.511  24.808   6.059  0.00  0.00    -0.202 F 
ENDBRANCH  59  62
ENDBRANCH  55  58
ENDBRANCH  52  55
ENDBRANCH   2  48
TORSDOF 10
