REMARK  24 active torsions:
REMARK  status: ('A' for Active; 'I' for Inactive)
REMARK    1  A    between atoms: C_2  and  O2_3 
REMARK       I    between atoms: N_8  and  C_2 
REMARK    2  A    between atoms: O2_3  and  CT_4 
REMARK    3  A    between atoms: CT_4  and  C1_5 
REMARK    4  A    between atoms: CT_4  and  C2_6 
REMARK    5  A    between atoms: CT_4  and  C3_7 
REMARK    6  A    between atoms: CA_9  and  N_8 
REMARK    7  A    between atoms: C_10  and  CA_9 
REMARK    8  A    between atoms: CA_9  and  CB_12 
REMARK       I    between atoms: N_13  and  C_10 
REMARK    9  A    between atoms: CA_14  and  N_13 
REMARK   10  A    between atoms: C_15  and  CA_14 
REMARK   11  A    between atoms: CA_14  and  CB_17 
REMARK       I    between atoms: N_20  and  C_15 
REMARK   12  A    between atoms: CB_17  and  CG1_18 
REMARK   13  A    between atoms: CB_17  and  CG2_19 
REMARK   14  A    between atoms: CA_21  and  N_20 
REMARK   15  A    between atoms: C_22  and  CA_21 
REMARK   16  A    between atoms: CA_21  and  CB_24 
REMARK       I    between atoms: N_31  and  C_22 
REMARK   17  A    between atoms: CB_24  and  CG_25 
REMARK   18  A    between atoms: CG_25  and  CD1_26 
REMARK   19  A    between atoms: CG_25  and  CD2_27 
REMARK   20  A    between atoms: CA_30  and  C_28 
REMARK   21  A    between atoms: CA_30  and  N_31 
REMARK   22  A    between atoms: CA_30  and  CB_32 
REMARK   23  A    between atoms: CB_32  and  CG_33 
REMARK   24  A    between atoms: CG_33  and  CD_34 
REMARK       I    between atoms: CD_34  and  NE_36 
ROOT
ATOM      1  CA  VAL d   1       0.840 -16.531  38.983  0.00  0.00     0.092 C 
ATOM      2  H   VAL d   1       0.585 -16.946  39.958  0.00  0.00     0.088 H 
ENDROOT
BRANCH   1   3
ATOM      3  N   VAL d   1       0.070 -17.079  37.883  0.00  0.00    -0.346 N 
ATOM      4  C   ALA d   1      -0.955 -17.894  38.080  0.00  0.00     0.240 C 
ATOM      5  O   ALA d   1      -1.325 -18.242  39.195  0.00  0.00    -0.271 OA
ATOM      6  H   VAL d   1       0.326 -16.829  36.928  0.00  0.00     0.163 HD
BRANCH   4   7
ATOM      7  CA  ALA d   1      -1.659 -18.380  36.847  0.00  0.00     0.088 C 
ATOM      8  H   ALA d   1      -1.000 -18.291  35.983  0.00  0.00     0.087 H 
BRANCH   7   9
ATOM      9  N   ALA d   1      -2.039 -19.759  37.060  0.00  0.00    -0.324 N 
ATOM     10  C   BOC d   1      -1.126 -20.721  37.125  0.00  0.00     0.362 C 
ATOM     11  O1  BOC d   1       0.072 -20.513  36.971  0.00  0.00    -0.238 OA
ATOM     12  H   ALA d   1      -3.026 -19.997  37.162  0.00  0.00     0.165 HD
BRANCH  10  13
ATOM     13  O2  BOC d   1      -1.602 -22.070  37.374  0.00  0.00    -0.294 OA
BRANCH  13  14
ATOM     14  CT  BOC d   1      -0.835 -22.994  38.151  0.00  0.00     0.061 C 
BRANCH  14  15
ATOM     15  C1  BOC d   1      -1.780 -24.087  38.639  0.00  0.00    -0.048 C 
ATOM     16  H   BOC d   1      -1.228 -24.791  39.261  0.00  0.00     0.031 H 
ATOM     17  H   BOC d   1      -2.583 -23.637  39.222  0.00  0.00     0.031 H 
ATOM     18  H   BOC d   1      -2.201 -24.611  37.781  0.00  0.00     0.031 H 
ENDBRANCH  14  15
BRANCH  14  19
ATOM     19  C2  BOC d   1       0.264 -23.591  37.271  0.00  0.00    -0.048 C 
ATOM     20  H   BOC d   1       0.920 -22.794  36.920  0.00  0.00     0.031 H 
ATOM     21  H   BOC d   1       0.842 -24.310  37.852  0.00  0.00     0.031 H 
ATOM     22  H   BOC d   1      -0.189 -24.093  36.416  0.00  0.00     0.031 H 
ENDBRANCH  14  19
BRANCH  14  23
ATOM     23  C3  BOC d   1      -0.258 -22.275  39.369  0.00  0.00    -0.048 C 
ATOM     24  H   BOC d   1       0.315 -22.982  39.969  0.00  0.00     0.031 H 
ATOM     25  H   BOC d   1       0.393 -21.466  39.037  0.00  0.00     0.031 H 
ATOM     26  H   BOC d   1      -1.072 -21.866  39.967  0.00  0.00     0.031 H 
ENDBRANCH  14  23
ENDBRANCH  13  14
ENDBRANCH  10  13
ENDBRANCH   7   9
BRANCH   7  27
ATOM     27  CB  ALA d   1      -2.913 -17.546  36.600  0.00  0.00    -0.049 C 
ATOM     28  H   ALA d   1      -3.431 -17.924  35.718  0.00  0.00     0.030 H 
ATOM     29  H   ALA d   1      -3.570 -17.615  37.467  0.00  0.00     0.030 H 
ATOM     30  H   ALA d   1      -2.630 -16.506  36.439  0.00  0.00     0.030 H 
ENDBRANCH   7  27
ENDBRANCH   4   7
ENDBRANCH   1   3
BRANCH   1  31
ATOM     31  C   VAL d   1       0.612 -15.048  39.102  0.00  0.00     0.241 C 
ATOM     32  O   VAL d   1       0.753 -14.326  38.125  0.00  0.00    -0.271 OA
ATOM     33  N   LEU d   1       0.245 -14.583  40.295  0.00  0.00    -0.346 N 
ATOM     34  H   LEU d   1       0.122 -15.237  41.068  0.00  0.00     0.163 HD
BRANCH  33  35
ATOM     35  CA  LEU d   1       0.016 -13.166  40.522  0.00  0.00     0.089 C 
ATOM     36  H   LEU d   1      -0.690 -12.723  39.820  0.00  0.00     0.087 H 
BRANCH  35  37
ATOM     37  C   LEU d   1       1.354 -12.492  40.406  0.00  0.00     0.241 C 
ATOM     38  O   LEU d   1       2.218 -12.672  41.255  0.00  0.00    -0.271 OA
ATOM     39  N   0JU d   1       1.562 -11.722  39.343  0.00  0.00    -0.350 N 
ATOM     40  H   0JU d   1       0.817 -11.588  38.659  0.00  0.00     0.163 HD
BRANCH  39  41
ATOM     41  CA  0JU d   1       2.856 -11.065  39.149  0.00  0.00     0.044 C 
ATOM     42  H   0JU d   1       3.562 -11.487  39.864  0.00  0.00     0.081 H 
BRANCH  41  43
ATOM     43  C   0JU d   1       2.905  -9.592  39.426  0.00  0.00    -0.005 C 
ATOM     44  NF  0JU d   1       3.924  -9.171  40.034  0.00  0.00    -0.314 NA
ATOM     45  H   0JU d   1       4.659  -9.822  40.310  0.00  0.00     0.185 HD
ATOM     46  H   0JU d   1       2.102  -8.922  39.118  0.00  0.00     0.110 H 
ENDBRANCH  41  43
BRANCH  41  47
ATOM     47  CB  0JU d   1       3.177 -11.295  37.677  0.00  0.00    -0.034 C 
ATOM     48  H   0JU d   1       2.854 -10.418  37.116  0.00  0.00     0.037 H 
ATOM     49  H   0JU d   1       2.661 -12.198  37.352  0.00  0.00     0.037 H 
BRANCH  47  50
ATOM     50  CG  0JU d   1       4.666 -11.487  37.445  0.00  0.00     0.011 C 
ATOM     51  H   0JU d   1       5.061 -12.267  38.095  0.00  0.00     0.047 H 
ATOM     52  H   0JU d   1       5.215 -10.574  37.677  0.00  0.00     0.047 H 
BRANCH  50  53
ATOM     53  CD  0JU d   1       4.838 -11.861  35.993  0.00  0.00     0.215 C 
ATOM     54  OE  0JU d   1       4.071 -11.428  35.140  0.00  0.00    -0.274 OA
ATOM     55  NE  0JU d   1       5.841 -12.672  35.718  0.00  0.00    -0.370 N 
ATOM     56  H   0JU d   1       6.008 -12.968  34.757  0.00  0.00     0.159 HD
ATOM     57  H   0JU d   1       6.449 -13.003  36.467  0.00  0.00     0.159 HD
ENDBRANCH  50  53
ENDBRANCH  47  50
ENDBRANCH  41  47
ENDBRANCH  39  41
ENDBRANCH  35  37
BRANCH  35  58
ATOM     58  CB  LEU d   1      -0.505 -13.040  41.955  0.00  0.00    -0.035 C 
ATOM     59  H   LEU d   1      -0.584 -11.977  42.182  0.00  0.00     0.037 H 
ATOM     60  H   LEU d   1       0.190 -13.574  42.603  0.00  0.00     0.037 H 
BRANCH  58  61
ATOM     61  CG  LEU d   1      -1.892 -13.658  42.160  0.00  0.00    -0.059 C 
ATOM     62  H   LEU d   1      -1.765 -14.740  42.115  0.00  0.00     0.038 H 
BRANCH  61  63
ATOM     63  CD1 LEU d   1      -2.469 -13.326  43.537  0.00  0.00    -0.073 C 
ATOM     64  H   LEU d   1      -1.806 -13.713  44.310  0.00  0.00     0.028 H 
ATOM     65  H   LEU d   1      -2.559 -12.245  43.641  0.00  0.00     0.028 H 
ATOM     66  H   LEU d   1      -3.453 -13.785  43.638  0.00  0.00     0.028 H 
ENDBRANCH  61  63
BRANCH  61  67
ATOM     67  CD2 LEU d   1      -2.856 -13.260  41.046  0.00  0.00    -0.073 C 
ATOM     68  H   LEU d   1      -2.962 -12.175  41.029  0.00  0.00     0.028 H 
ATOM     69  H   LEU d   1      -2.464 -13.603  40.089  0.00  0.00     0.028 H 
ATOM     70  H   LEU d   1      -3.828 -13.718  41.228  0.00  0.00     0.028 H 
ENDBRANCH  61  67
ENDBRANCH  58  61
ENDBRANCH  35  58
ENDBRANCH  33  35
ENDBRANCH   1  31
BRANCH   1  71
ATOM     71  CB  VAL d   1       2.272 -16.827  38.536  0.00  0.00    -0.033 C 
ATOM     72  H   VAL d   1       2.352 -16.529  37.490  0.00  0.00     0.042 H 
BRANCH  71  73
ATOM     73  CG1 VAL d   1       3.320 -15.999  39.277  0.00  0.00    -0.071 C 
ATOM     74  H   VAL d   1       3.134 -14.939  39.103  0.00  0.00     0.028 H 
ATOM     75  H   VAL d   1       3.259 -16.209  40.345  0.00  0.00     0.028 H 
ATOM     76  H   VAL d   1       4.313 -16.260  38.910  0.00  0.00     0.028 H 
ENDBRANCH  71  73
BRANCH  71  77
ATOM     77  CG2 VAL d   1       2.554 -18.323  38.657  0.00  0.00    -0.071 C 
ATOM     78  H   VAL d   1       2.429 -18.632  39.695  0.00  0.00     0.028 H 
ATOM     79  H   VAL d   1       1.858 -18.875  38.026  0.00  0.00     0.028 H 
ATOM     80  H   VAL d   1       3.576 -18.526  38.337  0.00  0.00     0.028 H 
ENDBRANCH  71  77
ENDBRANCH   1  71
TORSDOF 24
