REMARK  22 active torsions:
REMARK  status: ('A' for Active; 'I' for Inactive)
REMARK    1  A    between atoms: C1_1  and  O2_3 
REMARK       I    between atoms: N_11  and  C1_1 
REMARK    2  A    between atoms: O2_3  and  C2_4 
REMARK    3  A    between atoms: C2_4  and  C3_5 
REMARK    4  A    between atoms: CA_12  and  N_11 
REMARK    5  A    between atoms: C_13  and  CA_12 
REMARK    6  A    between atoms: CA_12  and  CB_15 
REMARK       I    between atoms: N_16  and  C_13 
REMARK    7  A    between atoms: CA_17  and  N_16 
REMARK    8  A    between atoms: C_18  and  CA_17 
REMARK    9  A    between atoms: CA_17  and  CB_20 
REMARK       I    between atoms: N_23  and  C_18 
REMARK   10  A    between atoms: CB_20  and  CG1_21 
REMARK   11  A    between atoms: CB_20  and  CG2_22 
REMARK   12  A    between atoms: CA_24  and  N_23 
REMARK   13  A    between atoms: C_25  and  CA_24 
REMARK   14  A    between atoms: CA_24  and  CB_27 
REMARK       I    between atoms: N_34  and  C_25 
REMARK   15  A    between atoms: CB_27  and  CG_28 
REMARK   16  A    between atoms: CG_28  and  CD1_29 
REMARK   17  A    between atoms: CG_28  and  CD2_30 
REMARK   18  A    between atoms: CA_33  and  C_31 
REMARK   19  A    between atoms: CA_33  and  N_34 
REMARK   20  A    between atoms: CA_33  and  CB_35 
REMARK   21  A    between atoms: CB_35  and  CG_36 
REMARK   22  A    between atoms: CG_36  and  CD_37 
REMARK       I    between atoms: CD_37  and  NE_39 
ROOT
ATOM      1  CA  VAL d   1       0.387 -16.748  38.537  0.00  0.00     0.092 C 
ATOM      2  H   VAL d   1       0.183 -17.255  39.480  0.00  0.00     0.088 H 
ENDROOT
BRANCH   1   3
ATOM      3  N   VAL d   1      -0.588 -17.190  37.542  0.00  0.00    -0.346 N 
ATOM      4  C   ALA d   1      -1.460 -18.179  37.763  0.00  0.00     0.240 C 
ATOM      5  O   ALA d   1      -1.472 -18.791  38.823  0.00  0.00    -0.271 OA
ATOM      6  H   VAL d   1      -0.604 -16.722  36.636  0.00  0.00     0.163 HD
BRANCH   4   7
ATOM      7  CA  ALA d   1      -2.431 -18.501  36.640  0.00  0.00     0.088 C 
ATOM      8  H   ALA d   1      -1.876 -18.376  35.710  0.00  0.00     0.087 H 
BRANCH   7   9
ATOM      9  N   ALA d   1      -2.908 -19.895  36.634  0.00  0.00    -0.324 N 
ATOM     10  C1  PHQ d   1      -2.055 -20.883  36.345  0.00  0.00     0.361 C 
ATOM     11  O1  PHQ d   1      -2.375 -22.059  36.319  0.00  0.00    -0.238 OA
ATOM     12  H   ALA d   1      -3.883 -20.105  36.849  0.00  0.00     0.165 HD
BRANCH  10  13
ATOM     13  O2  PHQ d   1      -0.688 -20.493  36.052  0.00  0.00    -0.299 OA
BRANCH  13  14
ATOM     14  C2  PHQ d   1       0.277 -21.511  35.702  0.00  0.00     0.054 C 
ATOM     15  H   PHQ d   1      -0.203 -22.235  35.043  0.00  0.00     0.082 H 
ATOM     16  H   PHQ d   1       0.629 -21.987  36.617  0.00  0.00     0.082 H 
BRANCH  14  17
ATOM     17  C3  PHQ d   1       1.431 -20.927  35.000  0.00  0.00    -0.034 A 
ATOM     18  C4  PHQ d   1       2.488 -21.719  34.573  0.00  0.00    -0.075 A 
ATOM     19  C5  PHQ d   1       3.550 -21.114  33.912  0.00  0.00    -0.082 A 
ATOM     20  H   PHQ d   1       2.485 -22.794  34.753  0.00  0.00     0.084 H 
ATOM     21  C6  PHQ d   1       3.556 -19.740  33.682  0.00  0.00    -0.083 A 
ATOM     22  H   PHQ d   1       4.388 -21.721  33.570  0.00  0.00     0.083 H 
ATOM     23  C7  PHQ d   1       2.498 -18.946  34.114  0.00  0.00    -0.082 A 
ATOM     24  H   PHQ d   1       4.396 -19.283  33.159  0.00  0.00     0.083 H 
ATOM     25  C8  PHQ d   1       1.431 -19.548  34.774  0.00  0.00    -0.075 A 
ATOM     26  H   PHQ d   1       2.505 -17.870  33.938  0.00  0.00     0.083 H 
ATOM     27  H   PHQ d   1       0.592 -18.942  35.116  0.00  0.00     0.084 H 
ENDBRANCH  14  17
ENDBRANCH  13  14
ENDBRANCH  10  13
ENDBRANCH   7   9
BRANCH   7  28
ATOM     28  CB  ALA d   1      -3.620 -17.534  36.695  0.00  0.00    -0.049 C 
ATOM     29  H   ALA d   1      -4.255 -17.691  35.823  0.00  0.00     0.030 H 
ATOM     30  H   ALA d   1      -4.195 -17.719  37.602  0.00  0.00     0.030 H 
ATOM     31  H   ALA d   1      -3.252 -16.508  36.699  0.00  0.00     0.030 H 
ENDBRANCH   7  28
ENDBRANCH   4   7
ENDBRANCH   1   3
BRANCH   1  32
ATOM     32  C   VAL d   1       0.282 -15.257  38.685  0.00  0.00     0.241 C 
ATOM     33  O   VAL d   1       0.656 -14.530  37.774  0.00  0.00    -0.271 OA
ATOM     34  N   LEU d   1      -0.241 -14.793  39.825  0.00  0.00    -0.346 N 
ATOM     35  H   LEU d   1      -0.555 -15.456  40.534  0.00  0.00     0.163 HD
BRANCH  34  36
ATOM     36  CA  LEU d   1      -0.373 -13.365  40.079  0.00  0.00     0.089 C 
ATOM     37  H   LEU d   1      -0.994 -12.841  39.352  0.00  0.00     0.087 H 
BRANCH  36  38
ATOM     38  C   LEU d   1       0.996 -12.750  40.016  0.00  0.00     0.241 C 
ATOM     39  O   LEU d   1       1.882 -13.084  40.788  0.00  0.00    -0.271 OA
ATOM     40  N   0JU d   1       1.200 -11.852  39.051  0.00  0.00    -0.350 N 
ATOM     41  H   0JU d   1       0.433 -11.604  38.425  0.00  0.00     0.163 HD
BRANCH  40  42
ATOM     42  CA  0JU d   1       2.509 -11.216  38.876  0.00  0.00     0.044 C 
ATOM     43  H   0JU d   1       3.236 -11.627  39.576  0.00  0.00     0.081 H 
BRANCH  42  44
ATOM     44  C   0JU d   1       2.546  -9.736  39.167  0.00  0.00    -0.005 C 
ATOM     45  NF  0JU d   1       3.585  -9.233  39.670  0.00  0.00    -0.314 NA
ATOM     46  H   0JU d   1       4.390  -9.825  39.876  0.00  0.00     0.185 HD
ATOM     47  H   0JU d   1       1.683  -9.109  38.944  0.00  0.00     0.110 H 
ENDBRANCH  42  44
BRANCH  42  48
ATOM     48  CB  0JU d   1       2.792 -11.462  37.398  0.00  0.00    -0.034 C 
ATOM     49  H   0JU d   1       2.353 -10.646  36.823  0.00  0.00     0.037 H 
ATOM     50  H   0JU d   1       2.363 -12.425  37.121  0.00  0.00     0.037 H 
BRANCH  48  51
ATOM     51  CG  0JU d   1       4.281 -11.502  37.113  0.00  0.00     0.011 C 
ATOM     52  H   0JU d   1       4.801 -12.053  37.897  0.00  0.00     0.047 H 
ATOM     53  H   0JU d   1       4.688 -10.491  37.088  0.00  0.00     0.047 H 
BRANCH  51  54
ATOM     54  CD  0JU d   1       4.480 -12.179  35.778  0.00  0.00     0.215 C 
ATOM     55  OE  0JU d   1       3.932 -11.752  34.775  0.00  0.00    -0.274 OA
ATOM     56  NE  0JU d   1       5.253 -13.263  35.754  0.00  0.00    -0.370 N 
ATOM     57  H   0JU d   1       5.402 -13.764  34.878  0.00  0.00     0.159 HD
ATOM     58  H   0JU d   1       5.696 -13.593  36.612  0.00  0.00     0.159 HD
ENDBRANCH  51  54
ENDBRANCH  48  51
ENDBRANCH  42  48
ENDBRANCH  40  42
ENDBRANCH  36  38
BRANCH  36  59
ATOM     59  CB  LEU d   1      -1.000 -13.255  41.465  0.00  0.00    -0.035 C 
ATOM     60  H   LEU d   1      -1.018 -12.210  41.775  0.00  0.00     0.037 H 
ATOM     61  H   LEU d   1      -0.412 -13.834  42.178  0.00  0.00     0.037 H 
BRANCH  59  62
ATOM     62  CG  LEU d   1      -2.427 -13.798  41.420  0.00  0.00    -0.059 C 
ATOM     63  H   LEU d   1      -2.355 -14.858  41.175  0.00  0.00     0.038 H 
BRANCH  62  64
ATOM     64  CD1 LEU d   1      -3.121 -13.679  42.773  0.00  0.00    -0.073 C 
ATOM     65  H   LEU d   1      -2.562 -14.245  43.518  0.00  0.00     0.028 H 
ATOM     66  H   LEU d   1      -3.162 -12.630  43.068  0.00  0.00     0.028 H 
ATOM     67  H   LEU d   1      -4.133 -14.076  42.697  0.00  0.00     0.028 H 
ENDBRANCH  62  64
BRANCH  62  68
ATOM     68  CD2 LEU d   1      -3.252 -13.110  40.331  0.00  0.00    -0.073 C 
ATOM     69  H   LEU d   1      -3.295 -12.039  40.531  0.00  0.00     0.028 H 
ATOM     70  H   LEU d   1      -2.785 -13.281  39.361  0.00  0.00     0.028 H 
ATOM     71  H   LEU d   1      -4.262 -13.521  40.328  0.00  0.00     0.028 H 
ENDBRANCH  62  68
ENDBRANCH  59  62
ENDBRANCH  36  59
ENDBRANCH  34  36
ENDBRANCH   1  32
BRANCH   1  72
ATOM     72  CB  VAL d   1       1.806 -17.075  38.073  0.00  0.00    -0.033 C 
ATOM     73  H   VAL d   1       1.803 -16.941  36.991  0.00  0.00     0.042 H 
BRANCH  72  74
ATOM     74  CG1 VAL d   1       2.830 -16.154  38.726  0.00  0.00    -0.071 C 
ATOM     75  H   VAL d   1       2.608 -15.120  38.461  0.00  0.00     0.028 H 
ATOM     76  H   VAL d   1       2.784 -16.271  39.809  0.00  0.00     0.028 H 
ATOM     77  H   VAL d   1       3.828 -16.415  38.374  0.00  0.00     0.028 H 
ENDBRANCH  72  74
BRANCH  72  78
ATOM     78  CG2 VAL d   1       2.200 -18.500  38.423  0.00  0.00    -0.071 C 
ATOM     79  H   VAL d   1       2.154 -18.633  39.504  0.00  0.00     0.028 H 
ATOM     80  H   VAL d   1       1.513 -19.195  37.940  0.00  0.00     0.028 H 
ATOM     81  H   VAL d   1       3.215 -18.691  38.075  0.00  0.00     0.028 H 
ENDBRANCH  72  78
ENDBRANCH   1  72
TORSDOF 22
