REMARK  19 active torsions:
REMARK  status: ('A' for Active; 'I' for Inactive)
REMARK    1  A    between atoms: CA_2  and  N_1 
REMARK    2  A    between atoms: C_3  and  CA_2 
REMARK    3  A    between atoms: CA_2  and  CB_5 
REMARK       I    between atoms: N_6  and  C_3 
REMARK    4  A    between atoms: CA_7  and  N_6 
REMARK    5  A    between atoms: C_8  and  CA_7 
REMARK    6  A    between atoms: CA_7  and  CB_10 
REMARK       I    between atoms: N_13  and  C_8 
REMARK    7  A    between atoms: CB_10  and  CG1_11 
REMARK    8  A    between atoms: CB_10  and  CG2_12 
REMARK    9  A    between atoms: CA_14  and  N_13 
REMARK   10  A    between atoms: C_15  and  CA_14 
REMARK   11  A    between atoms: CA_14  and  CB_17 
REMARK       I    between atoms: N_24  and  C_15 
REMARK   12  A    between atoms: CB_17  and  CG_18 
REMARK   13  A    between atoms: CG_18  and  CD1_19 
REMARK   14  A    between atoms: CG_18  and  CD2_20 
REMARK   15  A    between atoms: CA_23  and  C_21 
REMARK   16  A    between atoms: CA_23  and  N_24 
REMARK   17  A    between atoms: CA_23  and  CB_25 
REMARK   18  A    between atoms: CB_25  and  CG_26 
REMARK   19  A    between atoms: CG_26  and  CD_27 
REMARK       I    between atoms: CD_27  and  NE_29 
ROOT
ATOM      1  CA  LEU d   1      -0.589 -13.430  39.882  0.00  0.00     0.089 C 
ATOM      2  H   LEU d   1      -1.079 -12.999  39.009  0.00  0.00     0.087 H 
ENDROOT
BRANCH   1   3
ATOM      3  N   LEU d   1      -0.344 -14.863  39.698  0.00  0.00    -0.346 N 
ATOM      4  C   VAL d   1       0.539 -15.348  38.814  0.00  0.00     0.241 C 
ATOM      5  O   VAL d   1       1.216 -14.638  38.079  0.00  0.00    -0.271 OA
ATOM      6  H   LEU d   1      -0.871 -15.523  40.270  0.00  0.00     0.163 HD
BRANCH   4   7
ATOM      7  CA  VAL d   1       0.687 -16.850  38.752  0.00  0.00     0.092 C 
ATOM      8  H   VAL d   1       0.420 -17.210  39.745  0.00  0.00     0.088 H 
BRANCH   7   9
ATOM      9  N   VAL d   1      -0.183 -17.496  37.762  0.00  0.00    -0.346 N 
ATOM     10  C   ALA d   1      -1.216 -18.274  38.112  0.00  0.00     0.248 C 
ATOM     11  O   ALA d   1      -1.493 -18.492  39.282  0.00  0.00    -0.271 OA
ATOM     12  H   VAL d   1       0.006 -17.347  36.771  0.00  0.00     0.163 HD
BRANCH  10  13
ATOM     13  CA  ALA d   1      -2.029 -18.891  36.994  0.00  0.00     0.172 C 
ATOM     14  H   ALA d   1      -1.660 -18.490  36.050  0.00  0.00     0.098 H 
BRANCH  13  15
ATOM     15  N   ALA d   1      -1.872 -20.341  36.997  0.00  0.00    -0.067 N 
ATOM     16  H   ALA d   1      -0.883 -20.575  36.908  0.00  0.00     0.275 HD
ATOM     17  H   ALA d   1      -2.235 -20.719  37.872  0.00  0.00     0.275 HD
ATOM     18  H   ALA d   1      -2.389 -20.739  36.213  0.00  0.00     0.275 HD
ENDBRANCH  13  15
BRANCH  13  19
ATOM     19  CB  ALA d   1      -3.509 -18.531  37.127  0.00  0.00    -0.042 C 
ATOM     20  H   ALA d   1      -3.888 -18.901  38.080  0.00  0.00     0.030 H 
ATOM     21  H   ALA d   1      -3.623 -17.448  37.086  0.00  0.00     0.030 H 
ATOM     22  H   ALA d   1      -4.068 -18.988  36.310  0.00  0.00     0.030 H 
ENDBRANCH  13  19
ENDBRANCH  10  13
ENDBRANCH   7   9
BRANCH   7  23
ATOM     23  CB  VAL d   1       2.119 -17.195  38.332  0.00  0.00    -0.033 C 
ATOM     24  H   VAL d   1       2.236 -16.873  37.297  0.00  0.00     0.042 H 
BRANCH  23  25
ATOM     25  CG1 VAL d   1       3.147 -16.438  39.172  0.00  0.00    -0.071 C 
ATOM     26  H   VAL d   1       2.999 -15.366  39.046  0.00  0.00     0.028 H 
ATOM     27  H   VAL d   1       3.022 -16.702  40.222  0.00  0.00     0.028 H 
ATOM     28  H   VAL d   1       4.151 -16.708  38.845  0.00  0.00     0.028 H 
ENDBRANCH  23  25
BRANCH  23  29
ATOM     29  CG2 VAL d   1       2.373 -18.703  38.377  0.00  0.00    -0.071 C 
ATOM     30  H   VAL d   1       2.215 -19.067  39.392  0.00  0.00     0.028 H 
ATOM     31  H   VAL d   1       1.685 -19.206  37.698  0.00  0.00     0.028 H 
ATOM     32  H   VAL d   1       3.400 -18.907  38.072  0.00  0.00     0.028 H 
ENDBRANCH  23  29
ENDBRANCH   7  23
ENDBRANCH   4   7
ENDBRANCH   1   3
BRANCH   1  33
ATOM     33  C   LEU d   1       0.700 -12.654  40.061  0.00  0.00     0.241 C 
ATOM     34  O   LEU d   1       1.226 -12.541  41.166  0.00  0.00    -0.271 OA
ATOM     35  N   0JU d   1       1.216 -12.113  38.958  0.00  0.00    -0.350 N 
ATOM     36  H   0JU d   1       0.701 -12.241  38.087  0.00  0.00     0.163 HD
BRANCH  35  37
ATOM     37  CA  0JU d   1       2.467 -11.347  38.896  0.00  0.00     0.044 C 
ATOM     38  H   0JU d   1       3.148 -11.759  39.640  0.00  0.00     0.081 H 
BRANCH  37  39
ATOM     39  C   0JU d   1       2.439  -9.878  39.255  0.00  0.00    -0.005 C 
ATOM     40  NF  0JU d   1       3.415  -9.421  39.910  0.00  0.00    -0.314 NA
ATOM     41  H   0JU d   1       4.183 -10.037  40.177  0.00  0.00     0.185 HD
ATOM     42  H   0JU d   1       1.607  -9.239  38.959  0.00  0.00     0.110 H 
ENDBRANCH  37  39
BRANCH  37  43
ATOM     43  CB  0JU d   1       2.832 -11.450  37.421  0.00  0.00    -0.034 C 
ATOM     44  H   0JU d   1       2.496 -10.540  36.923  0.00  0.00     0.037 H 
ATOM     45  H   0JU d   1       2.354 -12.341  37.014  0.00  0.00     0.037 H 
BRANCH  43  46
ATOM     46  CG  0JU d   1       4.329 -11.579  37.212  0.00  0.00     0.011 C 
ATOM     47  H   0JU d   1       4.816 -12.090  38.043  0.00  0.00     0.047 H 
ATOM     48  H   0JU d   1       4.821 -10.607  37.165  0.00  0.00     0.047 H 
BRANCH  46  49
ATOM     49  CD  0JU d   1       4.463 -12.341  35.925  0.00  0.00     0.215 C 
ATOM     50  OE  0JU d   1       3.626 -12.172  35.054  0.00  0.00    -0.274 OA
ATOM     51  NE  0JU d   1       5.497 -13.177  35.828  0.00  0.00    -0.370 N 
ATOM     52  H   0JU d   1       5.628 -13.730  34.981  0.00  0.00     0.159 HD
ATOM     53  H   0JU d   1       6.157 -13.264  36.601  0.00  0.00     0.159 HD
ENDBRANCH  46  49
ENDBRANCH  43  46
ENDBRANCH  37  43
ENDBRANCH  35  37
ENDBRANCH   1  33
BRANCH   1  54
ATOM     54  CB  LEU d   1      -1.444 -13.338  41.154  0.00  0.00    -0.035 C 
ATOM     55  H   LEU d   1      -1.353 -12.320  41.533  0.00  0.00     0.037 H 
ATOM     56  H   LEU d   1      -1.082 -14.100  41.844  0.00  0.00     0.037 H 
BRANCH  54  57
ATOM     57  CG  LEU d   1      -2.937 -13.606  40.921  0.00  0.00    -0.059 C 
ATOM     58  H   LEU d   1      -3.096 -14.652  41.185  0.00  0.00     0.038 H 
BRANCH  57  59
ATOM     59  CD1 LEU d   1      -3.774 -12.687  41.799  0.00  0.00    -0.073 C 
ATOM     60  H   LEU d   1      -3.535 -12.871  42.846  0.00  0.00     0.028 H 
ATOM     61  H   LEU d   1      -3.552 -11.649  41.551  0.00  0.00     0.028 H 
ATOM     62  H   LEU d   1      -4.832 -12.885  41.626  0.00  0.00     0.028 H 
ENDBRANCH  57  59
BRANCH  57  63
ATOM     63  CD2 LEU d   1      -3.378 -13.444  39.464  0.00  0.00    -0.073 C 
ATOM     64  H   LEU d   1      -3.178 -12.424  39.137  0.00  0.00     0.028 H 
ATOM     65  H   LEU d   1      -2.823 -14.143  38.838  0.00  0.00     0.028 H 
ATOM     66  H   LEU d   1      -4.445 -13.650  39.384  0.00  0.00     0.028 H 
ENDBRANCH  57  63
ENDBRANCH  54  57
ENDBRANCH   1  54
TORSDOF 19
