REMARK  19 active torsions:
REMARK  status: ('A' for Active; 'I' for Inactive)
REMARK    1  A    between atoms: CA_2  and  N_1 
REMARK    2  A    between atoms: C_3  and  CA_2 
REMARK    3  A    between atoms: CA_2  and  CB_5 
REMARK       I    between atoms: N_6  and  C_3 
REMARK    4  A    between atoms: CA_7  and  N_6 
REMARK    5  A    between atoms: C_8  and  CA_7 
REMARK    6  A    between atoms: CA_7  and  CB_10 
REMARK       I    between atoms: N_13  and  C_8 
REMARK    7  A    between atoms: CB_10  and  CG1_11 
REMARK    8  A    between atoms: CB_10  and  CG2_12 
REMARK    9  A    between atoms: CA_14  and  N_13 
REMARK   10  A    between atoms: C_15  and  CA_14 
REMARK   11  A    between atoms: CA_14  and  CB_17 
REMARK       I    between atoms: N_24  and  C_15 
REMARK   12  A    between atoms: CB_17  and  CG_18 
REMARK   13  A    between atoms: CG_18  and  CD1_19 
REMARK   14  A    between atoms: CG_18  and  CD2_20 
REMARK   15  A    between atoms: CA_23  and  C_21 
REMARK   16  A    between atoms: CA_23  and  N_24 
REMARK   17  A    between atoms: CA_23  and  CB_25 
REMARK   18  A    between atoms: CB_25  and  CG_26 
REMARK   19  A    between atoms: CG_26  and  CD_27 
REMARK       I    between atoms: CD_27  and  NE_29 
ROOT
ATOM      1  CA  LEU d   1      -0.388 -13.307  40.103  0.00  0.00     0.089 C 
ATOM      2  H   LEU d   1      -0.906 -12.872  39.248  0.00  0.00     0.087 H 
ENDROOT
BRANCH   1   3
ATOM      3  N   LEU d   1      -0.178 -14.746  39.939  0.00  0.00    -0.346 N 
ATOM      4  C   VAL d   1       0.222 -15.231  38.765  0.00  0.00     0.241 C 
ATOM      5  O   VAL d   1       0.419 -14.500  37.808  0.00  0.00    -0.271 OA
ATOM      6  H   LEU d   1      -0.338 -15.377  40.724  0.00  0.00     0.163 HD
BRANCH   4   7
ATOM      7  CA  VAL d   1       0.435 -16.717  38.646  0.00  0.00     0.092 C 
ATOM      8  H   VAL d   1       0.189 -17.170  39.606  0.00  0.00     0.088 H 
BRANCH   7   9
ATOM      9  N   VAL d   1      -0.385 -17.273  37.574  0.00  0.00    -0.346 N 
ATOM     10  C   ALA d   1      -1.149 -18.353  37.752  0.00  0.00     0.248 C 
ATOM     11  O   ALA d   1      -1.221 -18.944  38.817  0.00  0.00    -0.271 OA
ATOM     12  H   VAL d   1      -0.374 -16.822  36.659  0.00  0.00     0.163 HD
BRANCH  10  13
ATOM     13  CA  ALA d   1      -1.956 -18.817  36.568  0.00  0.00     0.172 C 
ATOM     14  H   ALA d   1      -1.516 -18.417  35.654  0.00  0.00     0.098 H 
BRANCH  13  15
ATOM     15  N   ALA d   1      -1.942 -20.268  36.473  0.00  0.00    -0.067 N 
ATOM     16  H   ALA d   1      -0.980 -20.592  36.377  0.00  0.00     0.275 HD
ATOM     17  H   ALA d   1      -2.354 -20.667  37.317  0.00  0.00     0.275 HD
ATOM     18  H   ALA d   1      -2.483 -20.559  35.659  0.00  0.00     0.275 HD
ENDBRANCH  13  15
BRANCH  13  19
ATOM     19  CB  ALA d   1      -3.389 -18.308  36.712  0.00  0.00    -0.042 C 
ATOM     20  H   ALA d   1      -3.823 -18.703  37.631  0.00  0.00     0.030 H 
ATOM     21  H   ALA d   1      -3.384 -17.219  36.750  0.00  0.00     0.030 H 
ATOM     22  H   ALA d   1      -3.979 -18.640  35.858  0.00  0.00     0.030 H 
ENDBRANCH  13  19
ENDBRANCH  10  13
ENDBRANCH   7   9
BRANCH   7  23
ATOM     23  CB  VAL d   1       1.879 -16.965  38.209  0.00  0.00    -0.033 C 
ATOM     24  H   VAL d   1       1.954 -16.645  37.170  0.00  0.00     0.042 H 
BRANCH  23  25
ATOM     25  CG1 VAL d   1       2.855 -16.137  39.035  0.00  0.00    -0.071 C 
ATOM     26  H   VAL d   1       2.630 -15.078  38.908  0.00  0.00     0.028 H 
ATOM     27  H   VAL d   1       2.758 -16.406  40.087  0.00  0.00     0.028 H 
ATOM     28  H   VAL d   1       3.873 -16.336  38.700  0.00  0.00     0.028 H 
ENDBRANCH  23  25
BRANCH  23  29
ATOM     29  CG2 VAL d   1       2.249 -18.447  38.253  0.00  0.00    -0.071 C 
ATOM     30  H   VAL d   1       2.134 -18.819  39.271  0.00  0.00     0.028 H 
ATOM     31  H   VAL d   1       1.592 -19.004  37.585  0.00  0.00     0.028 H 
ATOM     32  H   VAL d   1       3.284 -18.571  37.934  0.00  0.00     0.028 H 
ENDBRANCH  23  29
ENDBRANCH   7  23
ENDBRANCH   4   7
ENDBRANCH   1   3
BRANCH   1  33
ATOM     33  C   LEU d   1       0.927 -12.576  40.194  0.00  0.00     0.241 C 
ATOM     34  O   LEU d   1       1.564 -12.515  41.238  0.00  0.00    -0.271 OA
ATOM     35  N   0JU d   1       1.337 -12.020  39.059  0.00  0.00    -0.350 N 
ATOM     36  H   0JU d   1       0.734 -12.100  38.240  0.00  0.00     0.163 HD
BRANCH  35  37
ATOM     37  CA  0JU d   1       2.600 -11.301  38.914  0.00  0.00     0.044 C 
ATOM     38  H   0JU d   1       3.329 -11.697  39.621  0.00  0.00     0.081 H 
BRANCH  37  39
ATOM     39  C   0JU d   1       2.582  -9.831  39.223  0.00  0.00    -0.005 C 
ATOM     40  NF  0JU d   1       3.588  -9.338  39.799  0.00  0.00    -0.314 NA
ATOM     41  H   0JU d   1       4.380  -9.933  40.040  0.00  0.00     0.185 HD
ATOM     42  H   0JU d   1       1.726  -9.211  38.957  0.00  0.00     0.110 H 
ENDBRANCH  37  39
BRANCH  37  43
ATOM     43  CB  0JU d   1       2.880 -11.469  37.428  0.00  0.00    -0.034 C 
ATOM     44  H   0JU d   1       2.649 -10.533  36.919  0.00  0.00     0.037 H 
ATOM     45  H   0JU d   1       2.263 -12.282  37.044  0.00  0.00     0.037 H 
BRANCH  43  46
ATOM     46  CG  0JU d   1       4.340 -11.808  37.189  0.00  0.00     0.011 C 
ATOM     47  H   0JU d   1       4.654 -12.629  37.833  0.00  0.00     0.047 H 
ATOM     48  H   0JU d   1       4.976 -10.954  37.423  0.00  0.00     0.047 H 
BRANCH  46  49
ATOM     49  CD  0JU d   1       4.475 -12.189  35.740  0.00  0.00     0.215 C 
ATOM     50  OE  0JU d   1       3.704 -11.723  34.906  0.00  0.00    -0.274 OA
ATOM     51  NE  0JU d   1       5.457 -13.045  35.456  0.00  0.00    -0.370 N 
ATOM     52  H   0JU d   1       5.604 -13.352  34.494  0.00  0.00     0.159 HD
ATOM     53  H   0JU d   1       6.061 -13.393  36.200  0.00  0.00     0.159 HD
ENDBRANCH  46  49
ENDBRANCH  43  46
ENDBRANCH  37  43
ENDBRANCH  35  37
ENDBRANCH   1  33
BRANCH   1  54
ATOM     54  CB  LEU d   1      -1.212 -13.156  41.376  0.00  0.00    -0.035 C 
ATOM     55  H   LEU d   1      -1.151 -12.123  41.720  0.00  0.00     0.037 H 
ATOM     56  H   LEU d   1      -0.820 -13.831  42.137  0.00  0.00     0.037 H 
BRANCH  54  57
ATOM     57  CG  LEU d   1      -2.678 -13.507  41.103  0.00  0.00    -0.059 C 
ATOM     58  H   LEU d   1      -2.786 -14.570  41.318  0.00  0.00     0.038 H 
BRANCH  57  59
ATOM     59  CD1 LEU d   1      -3.583 -12.681  42.001  0.00  0.00    -0.073 C 
ATOM     60  H   LEU d   1      -3.350 -12.894  43.044  0.00  0.00     0.028 H 
ATOM     61  H   LEU d   1      -3.423 -11.622  41.800  0.00  0.00     0.028 H 
ATOM     62  H   LEU d   1      -4.623 -12.937  41.800  0.00  0.00     0.028 H 
ENDBRANCH  57  59
BRANCH  57  63
ATOM     63  CD2 LEU d   1      -3.089 -13.298  39.643  0.00  0.00    -0.073 C 
ATOM     64  H   LEU d   1      -2.945 -12.252  39.373  0.00  0.00     0.028 H 
ATOM     65  H   LEU d   1      -2.475 -13.928  39.000  0.00  0.00     0.028 H 
ATOM     66  H   LEU d   1      -4.138 -13.566  39.520  0.00  0.00     0.028 H 
ENDBRANCH  57  63
ENDBRANCH  54  57
ENDBRANCH   1  54
TORSDOF 19
