REMARK  5 active torsions:
REMARK  status: ('A' for Active; 'I' for Inactive)
REMARK    1  A    between atoms: C10_5  and  C7_3 
REMARK    2  A    between atoms: C11_18  and  C10_5 
REMARK    3  A    between atoms: C3_15  and  C27_27 
REMARK    4  A    between atoms: C18_22  and  N14_19 
REMARK    5  A    between atoms: C18_22  and  C19_23 
ROOT
ATOM      1  N12 03M d   1      14.420 -22.613  -5.977  0.00  0.00    -0.304 N 
ATOM      2  C13 03M d   1      14.174 -23.638  -5.092  0.00  0.00     0.330 A 
ATOM      3  C15 03M d   1      12.232 -22.943  -5.430  0.00  0.00     0.278 A 
ATOM      4  C11 03M d   1      13.138 -22.167  -6.206  0.00  0.00     0.106 A 
ATOM      5  N14 03M d   1      12.936 -23.854  -4.772  0.00  0.00    -0.260 N 
ATOM      6  O16 03M d   1      15.022 -24.411  -4.492  0.00  0.00    -0.246 OA
ATOM      7  O17 03M d   1      10.958 -22.777  -5.409  0.00  0.00    -0.265 OA
ATOM      8  H   03M d   1      15.305 -22.277  -6.357  0.00  0.00     0.171 HD
ENDROOT
BRANCH   4   9
ATOM      9  C10 03M d   1      12.721 -21.089  -7.114  0.00  0.00    -0.040 C 
ATOM     10  H   03M d   1      11.670 -20.803  -7.163  0.00  0.00     0.088 H 
BRANCH   9  11
ATOM     11  C7  03M d   1      13.713 -20.384  -7.966  0.00  0.00    -0.006 A 
ATOM     12  C6  03M d   1      15.081 -20.642  -8.075  0.00  0.00    -0.012 A 
ATOM     13  N5  03M d   1      15.499 -19.778  -9.102  0.00  0.00    -0.364 N 
ATOM     14  H   03M d   1      15.682 -21.346  -7.500  0.00  0.00     0.112 H 
ATOM     15  C9  03M d   1      14.412 -19.063  -9.626  0.00  0.00     0.051 A 
ATOM     16  H   03M d   1      16.463 -19.684  -9.423  0.00  0.00     0.165 HD
ATOM     17  C8  03M d   1      13.285 -19.468  -8.905  0.00  0.00     0.003 A 
ATOM     18  C3  03M d   1      14.241 -18.106 -10.651  0.00  0.00    -0.013 A 
ATOM     19  C4  03M d   1      12.019 -19.031  -9.174  0.00  0.00    -0.068 A 
ATOM     20  C1  03M d   1      11.896 -18.109 -10.193  0.00  0.00    -0.060 A 
ATOM     21  H   03M d   1      11.155 -19.390  -8.615  0.00  0.00     0.085 H 
ATOM     22  C2  03M d   1      12.973 -17.641 -10.910  0.00  0.00     0.042 A 
ATOM     23  H   03M d   1      10.902 -17.735 -10.441  0.00  0.00     0.086 H 
ATOM     24 CL   03M d   1      12.607 -16.385 -12.164  0.00  0.00    -0.084 Cl
BRANCH  18  25
ATOM     25  C27 03M d   1      15.403 -17.549 -11.470  0.00  0.00    -0.047 C 
ATOM     26  H   03M d   1      16.111 -17.055 -10.805  0.00  0.00     0.033 H 
ATOM     27  H   03M d   1      15.902 -18.365 -11.992  0.00  0.00     0.033 H 
ATOM     28  H   03M d   1      15.023 -16.830 -12.196  0.00  0.00     0.033 H 
ENDBRANCH  18  25
ENDBRANCH   9  11
ENDBRANCH   4   9
BRANCH   5  29
ATOM     29  C18 03M d   1      12.497 -24.860  -3.832  0.00  0.00     0.031 C 
ATOM     30  H   03M d   1      13.324 -25.561  -3.720  0.00  0.00     0.072 H 
ATOM     31  H   03M d   1      11.575 -25.279  -4.235  0.00  0.00     0.072 H 
BRANCH  29  32
ATOM     32  C19 03M d   1      12.173 -24.364  -2.460  0.00  0.00    -0.037 A 
ATOM     33  C20 03M d   1      10.869 -23.977  -2.065  0.00  0.00    -0.072 A 
ATOM     34  C21 03M d   1      10.724 -23.579  -0.752  0.00  0.00    -0.042 A 
ATOM     35  H   03M d   1      10.028 -23.993  -2.759  0.00  0.00     0.084 H 
ATOM     36  C22 03M d   1      11.870 -23.575   0.079  0.00  0.00     0.154 A 
ATOM     37  H   03M d   1       9.752 -23.275  -0.364  0.00  0.00     0.088 H 
ATOM     38  C23 03M d   1      13.106 -23.943  -0.335  0.00  0.00     0.155 A 
ATOM     39  F26 03M d   1      11.814 -23.223   1.337  0.00  0.00    -0.203 F 
ATOM     40  C24 03M d   1      13.280 -24.372  -1.626  0.00  0.00    -0.035 A 
ATOM     41  F25 03M d   1      14.144 -23.912   0.499  0.00  0.00    -0.203 F 
ATOM     42  H   03M d   1      14.254 -24.707  -1.983  0.00  0.00     0.089 H 
ENDBRANCH  29  32
ENDBRANCH   5  29
TORSDOF 5
