REMARK  6 active torsions:
REMARK  status: ('A' for Active; 'I' for Inactive)
REMARK    1  A    between atoms: C13_2  and  C14_13 
REMARK    2  A    between atoms: C12_14  and  C13_2 
REMARK    3  A    between atoms: N28_25  and  C21_5 
REMARK    4  A    between atoms: C24_7  and  N27_27 
REMARK    5  A    between atoms: C03_19  and  C07_18 
REMARK    6  A    between atoms: C04_24  and  N28_25 
ROOT
ATOM      1  C03 0F5 d   1     -23.575 -36.999  -1.677  0.00  0.00     0.086 A 
ATOM      2  N02 0F5 d   1     -23.219 -35.876  -2.355  0.00  0.00    -0.228 NA
ATOM      3  C01 0F5 d   1     -23.896 -38.115  -2.463  0.00  0.00     0.030 A 
ATOM      4  N05 0F5 d   1     -23.887 -38.065  -3.830  0.00  0.00    -0.267 NA
ATOM      5  C06 0F5 d   1     -23.509 -36.905  -4.546  0.00  0.00     0.046 A 
ATOM      6  C04 0F5 d   1     -23.181 -35.830  -3.713  0.00  0.00     0.142 A 
ATOM      7  H13 0F5 d   1     -24.159 -39.045  -1.973  0.00  0.00     0.118 H 
ATOM      8  H14 0F5 d   1     -23.477 -36.854  -5.628  0.00  0.00     0.120 H 
ENDROOT
BRANCH   6   9
ATOM      9  N28 0F5 d   1     -22.831 -34.709  -4.278  0.00  0.00    -0.369 N 
ATOM     10  H15 0F5 d   1     -22.806 -34.650  -5.306  0.00  0.00     0.161 HD
BRANCH   9  11
ATOM     11  C21 0F5 d   1     -22.473 -33.534  -3.488  0.00  0.00     0.011 C 
ATOM     12  C22 0F5 d   1     -21.285 -32.799  -4.143  0.00  0.00    -0.044 C 
ATOM     13  C23 0F5 d   1     -21.121 -31.478  -3.334  0.00  0.00    -0.037 C 
ATOM     14  H4  0F5 d   1     -21.503 -32.580  -5.199  0.00  0.00     0.036 H 
ATOM     15  H5  0F5 d   1     -20.371 -33.408  -4.076  0.00  0.00     0.036 H 
ATOM     16  C24 0F5 d   1     -22.438 -30.629  -3.261  0.00  0.00     0.100 C 
ATOM     17  H16 0F5 d   1     -20.339 -30.870  -3.813  0.00  0.00     0.036 H 
ATOM     18  H17 0F5 d   1     -20.812 -31.732  -2.309  0.00  0.00     0.036 H 
ATOM     19  C25 0F5 d   1     -23.373 -31.483  -2.565  0.00  0.00    -0.037 C 
ATOM     20  H6  0F5 d   1     -22.789 -30.384  -4.274  0.00  0.00     0.083 H 
ATOM     21  C26 0F5 d   1     -23.714 -32.623  -3.542  0.00  0.00    -0.044 C 
ATOM     22  H21 0F5 d   1     -24.281 -30.921  -2.301  0.00  0.00     0.036 H 
ATOM     23  H22 0F5 d   1     -22.914 -31.887  -1.651  0.00  0.00     0.036 H 
ATOM     24  H7  0F5 d   1     -24.613 -33.165  -3.214  0.00  0.00     0.036 H 
ATOM     25  H8  0F5 d   1     -23.871 -32.234  -4.559  0.00  0.00     0.036 H 
ATOM     26  H3  0F5 d   1     -22.226 -33.813  -2.453  0.00  0.00     0.072 H 
BRANCH  16  27
ATOM     27  N27 0F5 d   1     -22.306 -29.390  -2.467  0.00  0.00    -0.075 N 
ATOM     28  H18 0F5 d   1     -23.186 -28.898  -2.464  0.00  0.00     0.274 HD
ATOM     29  H19 0F5 d   1     -21.595 -28.804  -2.875  0.00  0.00     0.274 HD
ATOM     30  H20 0F5 d   1     -22.048 -29.623  -1.521  0.00  0.00     0.274 HD
ENDBRANCH  16  27
ENDBRANCH   9  11
ENDBRANCH   6   9
BRANCH   1  31
ATOM     31  C07 0F5 d   1     -23.576 -36.999  -0.237  0.00  0.00    -0.005 A 
ATOM     32  C11 0F5 d   1     -23.420 -35.765   0.494  0.00  0.00    -0.061 A 
ATOM     33  C12 0F5 d   1     -23.499 -35.717   1.879  0.00  0.00    -0.034 A 
ATOM     34  H10 0F5 d   1     -23.236 -34.848  -0.054  0.00  0.00     0.086 H 
ATOM     35  C10 0F5 d   1     -23.734 -36.895   2.649  0.00  0.00    -0.073 A 
ATOM     36  C08 0F5 d   1     -23.915 -38.091   1.940  0.00  0.00    -0.081 A 
ATOM     37  H1  0F5 d   1     -23.771 -36.867   3.732  0.00  0.00     0.084 H 
ATOM     38  C09 0F5 d   1     -23.837 -38.135   0.524  0.00  0.00    -0.071 A 
ATOM     39  H11 0F5 d   1     -24.119 -39.004   2.487  0.00  0.00     0.083 H 
ATOM     40  H12 0F5 d   1     -23.985 -39.083   0.019  0.00  0.00     0.084 H 
BRANCH  33  41
ATOM     41  C13 0F5 d   1     -23.365 -34.449   2.599  0.00  0.00    -0.051 C 
ATOM     42  H2  0F5 d   1     -23.837 -34.360   3.576  0.00  0.00     0.087 H 
BRANCH  41  43
ATOM     43  C14 0F5 d   1     -22.658 -33.337   2.096  0.00  0.00     0.079 A 
ATOM     44  C15 0F5 d   1     -22.647 -32.129   2.812  0.00  0.00     0.266 A 
ATOM     45  O19 0F5 d   1     -23.208 -31.997   3.920  0.00  0.00    -0.267 OA
ATOM     46  N16 0F5 d   1     -22.015 -31.044   2.290  0.00  0.00    -0.283 N 
ATOM     47  C17 0F5 d   1     -21.480 -31.388   1.098  0.00  0.00     0.291 A 
ATOM     48  H9  0F5 d   1     -21.956 -30.142   2.717  0.00  0.00     0.172 HD
ATOM     49  O20 0F5 d   1     -20.864 -30.636   0.357  0.00  0.00    -0.260 OA
ATOM     50  S18 0F5 d   1     -21.856 -33.074   0.612  0.00  0.00    -0.024 SA
ENDBRANCH  41  43
ENDBRANCH  33  41
ENDBRANCH   1  31
TORSDOF 6
