REMARK  2 active torsions:
REMARK  status: ('A' for Active; 'I' for Inactive)
REMARK    1  A    between atoms: CAB_5  and  CAA_6 
REMARK    2  A    between atoms: CAG_12  and  OAM_13 
ROOT
ATOM      1  CAA 0F9 d   1     -18.962 -36.975  -0.092  0.00  0.00     0.029 A 
ATOM      2  CAK 0F9 d   1     -19.938 -37.810   0.436  0.00  0.00    -0.047 A 
ATOM      3  CAJ 0F9 d   1     -20.623 -38.726  -0.346  0.00  0.00     0.035 A 
ATOM      4 CL1  0F9 d   1     -21.786 -39.780   0.439  0.00  0.00    -0.084 Cl
ATOM      5  CAI 0F9 d   1     -20.363 -38.860  -1.691  0.00  0.00    -0.059 A 
ATOM      6  CAH 0F9 d   1     -19.387 -38.008  -2.212  0.00  0.00    -0.049 A 
ATOM      7  CAG 0F9 d   1     -18.680 -37.105  -1.440  0.00  0.00     0.078 A 
ATOM      8  H4  0F9 d   1     -20.171 -37.743   1.492  0.00  0.00     0.087 H 
ATOM      9  H5  0F9 d   1     -20.884 -39.583  -2.308  0.00  0.00     0.086 H 
ATOM     10  H6  0F9 d   1     -19.173 -38.057  -3.274  0.00  0.00     0.087 H 
ENDROOT
BRANCH   1  11
ATOM     11  CAB 0F9 d   1     -18.304 -36.090   0.712  0.00  0.00     0.091 A 
ATOM     12  CAC 0F9 d   1     -18.500 -35.901   2.047  0.00  0.00    -0.036 A 
ATOM     13  CAD 0F9 d   1     -17.620 -34.958   2.490  0.00  0.00    -0.002 A 
ATOM     14  H1  0F9 d   1     -19.238 -36.418   2.659  0.00  0.00     0.089 H 
ATOM     15  NAE 0F9 d   1     -16.848 -34.557   1.457  0.00  0.00    -0.289 N 
ATOM     16  H2  0F9 d   1     -17.551 -34.588   3.512  0.00  0.00     0.113 H 
ATOM     17  NAF 0F9 d   1     -17.327 -35.277   0.284  0.00  0.00    -0.175 NA
ATOM     18  H3  0F9 d   1     -16.075 -33.878   1.491  0.00  0.00     0.188 HD
ENDBRANCH   1  11
BRANCH   7  19
ATOM     19  OAM 0F9 d   1     -17.718 -36.235  -1.977  0.00  0.00    -0.360 OA
ATOM     20  H7  0F9 d   1     -17.352 -35.701  -1.282  0.00  0.00     0.217 HD
ENDBRANCH   7  19
TORSDOF 2
