REMARK  2 active torsions:
REMARK  status: ('A' for Active; 'I' for Inactive)
REMARK    1  A    between atoms: CAE_7  and  OAK_8 
REMARK    2  A    between atoms: CAC_11  and  CAD_12 
REMARK       I    between atoms: CAD_12  and  NAJ_14 
ROOT
ATOM      1  CAG 0FK d   1      22.978  34.202   3.201  0.00  0.00    -0.049 A 
ATOM      2  CAI 0FK d   1      23.188  35.536   2.738  0.00  0.00    -0.068 A 
ATOM      3  CAH 0FK d   1      22.952  35.813   1.388  0.00  0.00    -0.004 A 
ATOM      4  CAN 0FK d   1      23.235  37.121   0.945  0.00  0.00    -0.071 A 
ATOM      5  CAL 0FK d   1      23.014  37.426  -0.404  0.00  0.00    -0.079 A 
ATOM      6  CAM 0FK d   1      22.577  36.441  -1.345  0.00  0.00    -0.049 A 
ATOM      7  CAE 0FK d   1      22.324  35.164  -0.846  0.00  0.00     0.095 A 
ATOM      8  CAB 0FK d   1      22.521  34.803   0.525  0.00  0.00     0.101 A 
ATOM      9  NAA 0FK d   1      22.280  33.511   1.024  0.00  0.00    -0.240 NA
ATOM     10  CAC 0FK d   1      22.481  33.181   2.339  0.00  0.00     0.124 A 
ATOM     11  H1  0FK d   1      23.202  33.959   4.234  0.00  0.00     0.087 H 
ATOM     12  H2  0FK d   1      23.522  36.314   3.415  0.00  0.00     0.085 H 
ATOM     13  H3  0FK d   1      23.614  37.871   1.630  0.00  0.00     0.084 H 
ATOM     14  H4  0FK d   1      23.179  38.441  -0.746  0.00  0.00     0.083 H 
ATOM     15  H5  0FK d   1      22.449  36.676  -2.395  0.00  0.00     0.087 H 
ENDROOT
BRANCH  10  16
ATOM     16  CAD 0FK d   1      22.307  31.846   2.783  0.00  0.00     0.268 C 
ATOM     17  OAF 0FK d   1      21.737  31.142   1.942  0.00  0.00    -0.266 OA
ATOM     18  NAJ 0FK d   1      23.039  31.314   3.972  0.00  0.00    -0.365 N 
ATOM     19  H7  0FK d   1      22.898  30.368   4.264  0.00  0.00     0.159 HD
ATOM     20  H8  0FK d   1      23.670  31.904   4.476  0.00  0.00     0.159 HD
ENDBRANCH  10  16
BRANCH   7  21
ATOM     21  OAK 0FK d   1      21.878  34.207  -1.745  0.00  0.00    -0.358 OA
ATOM     22  H6  0FK d   1      21.742  33.385  -1.289  0.00  0.00     0.217 HD
ENDBRANCH   7  21
TORSDOF 2
