REMARK  0 active torsions:
REMARK  status: ('A' for Active; 'I' for Inactive)
ROOT
ATOM      1  OAH 0FN d   1      23.171  33.573   3.393  0.00  0.00    -0.290 OA
ATOM      2  CAC 0FN d   1      22.725  33.947   2.288  0.00  0.00     0.184 C 
ATOM      3  CAD 0FN d   1      22.904  35.172   1.691  0.00  0.00     0.025 A 
ATOM      4  CAK 0FN d   1      23.382  36.330   2.193  0.00  0.00    -0.069 A 
ATOM      5  CAL 0FN d   1      23.493  37.462   1.367  0.00  0.00    -0.082 A 
ATOM      6  CAM 0FN d   1      23.068  37.374   0.028  0.00  0.00    -0.082 A 
ATOM      7  CAJ 0FN d   1      22.543  36.141  -0.434  0.00  0.00    -0.069 A 
ATOM      8  CAE 0FN d   1      22.493  35.086   0.381  0.00  0.00     0.025 A 
ATOM      9  CAB 0FN d   1      22.029  33.829   0.172  0.00  0.00     0.184 C 
ATOM     10  OAI 0FN d   1      21.614  33.357  -0.900  0.00  0.00    -0.290 OA
ATOM     11  CAA 0FN d   1      21.846  33.234   1.462  0.00  0.00     0.141 C 
ATOM     12  CAF 0FN d   1      21.741  31.736   1.512  0.00  0.00     0.001 C 
ATOM     13  NAG 0FN d   1      21.552  30.540   1.547  0.00  0.00    -0.100 N 
ATOM     14  H   0FN d   1      23.682  36.388   3.239  0.00  0.00     0.085 H 
ATOM     15  H   0FN d   1      23.902  38.394   1.758  0.00  0.00     0.083 H 
ATOM     16  H   0FN d   1      23.141  38.234  -0.638  0.00  0.00     0.083 H 
ATOM     17  H   0FN d   1      22.179  36.055  -1.458  0.00  0.00     0.085 H 
ATOM     18  H   0FN d   1      20.841  33.341   1.870  0.00  0.00     0.086 H 
ENDROOT
TORSDOF 0
