REMARK  0 active torsions:
REMARK  status: ('A' for Active; 'I' for Inactive)
ROOT
ATOM      1  CAD 0FO d   1     -17.429 -35.173  -0.659  0.00  0.00     0.064 A 
ATOM      2  CAE 0FO d   1     -17.364 -35.554  -2.007  0.00  0.00     0.270 A 
ATOM      3  OAG 0FO d   1     -16.607 -34.958  -2.794  0.00  0.00    -0.264 OA
ATOM      4  OAF 0FO d   1     -18.131 -36.562  -2.500  0.00  0.00    -0.278 OA
ATOM      5  CAA 0FO d   1     -19.035 -37.265  -1.761  0.00  0.00     0.092 A 
ATOM      6  CAL 0FO d   1     -19.743 -38.244  -2.432  0.00  0.00    -0.048 A 
ATOM      7  CAK 0FO d   1     -20.602 -39.033  -1.708  0.00  0.00    -0.064 A 
ATOM      8  CAJ 0FO d   1     -20.723 -38.715  -0.357  0.00  0.00     0.012 A 
ATOM      9 BR1  0FO d   1     -21.787 -39.743   0.611  0.00  0.00    -0.051 Br
ATOM     10  CAI 0FO d   1     -19.972 -37.752   0.334  0.00  0.00    -0.051 A 
ATOM     11  CAB 0FO d   1     -19.074 -37.003  -0.397  0.00  0.00     0.032 A 
ATOM     12  CAC 0FO d   1     -18.268 -35.956   0.126  0.00  0.00     0.107 A 
ATOM     13  OAH 0FO d   1     -18.346 -35.652   1.396  0.00  0.00    -0.195 OA
ATOM     14  H1  0FO d   1     -17.788 -34.134  -0.613  0.00  0.00     0.058 H 
ATOM     15  H2  0FO d   1     -16.415 -35.229  -0.238  0.00  0.00     0.058 H 
ATOM     16  H3  0FO d   1     -19.623 -38.385  -3.500  0.00  0.00     0.087 H 
ATOM     17  H4  0FO d   1     -21.151 -39.852  -2.159  0.00  0.00     0.085 H 
ATOM     18  H5  0FO d   1     -20.093 -37.603   1.401  0.00  0.00     0.087 H 
ENDROOT
TORSDOF 0
