REMARK  3 active torsions:
REMARK  status: ('A' for Active; 'I' for Inactive)
REMARK    1  A    between atoms: C04_4  and  C12_12 
REMARK    2  A    between atoms: C13_13  and  C05_5 
REMARK    3  A    between atoms: C11_11  and  C13_13 
ROOT
ATOM      1  C01 0FS d   1      42.228  -2.076  -2.070  0.00  0.00    -0.073 A 
ATOM      2  C02 0FS d   1      44.532  -1.805  -1.663  0.00  0.00    -0.068 A 
ATOM      3  C03 0FS d   1      43.478  -1.943  -2.587  0.00  0.00    -0.081 A 
ATOM      4  C04 0FS d   1      44.254  -1.831  -0.249  0.00  0.00     0.048 A 
ATOM      5  C05 0FS d   1      41.951  -2.107  -0.581  0.00  0.00    -0.034 A 
ATOM      6  C06 0FS d   1      42.963  -1.966   0.307  0.00  0.00    -0.058 A 
ATOM      7  H   0FS d   1      41.392  -2.164  -2.754  0.00  0.00     0.084 H 
ATOM      8  H   0FS d   1      45.550  -1.679  -2.014  0.00  0.00     0.084 H 
ATOM      9  H   0FS d   1      43.655  -1.943  -3.656  0.00  0.00     0.083 H 
ATOM     10  H   0FS d   1      42.793  -1.957   1.378  0.00  0.00     0.086 H 
ENDROOT
BRANCH   5  11
ATOM     11  C13 0FS d   1      40.522  -2.208  -0.134  0.00  0.00    -0.051 C 
ATOM     12  H   0FS d   1      39.791  -1.752  -0.801  0.00  0.00     0.087 H 
BRANCH  11  13
ATOM     13  C11 0FS d   1      40.013  -2.782   0.975  0.00  0.00     0.079 A 
ATOM     14  C07 0FS d   1      38.564  -2.971   1.070  0.00  0.00     0.266 A 
ATOM     15  N08 0FS d   1      38.214  -3.668   2.442  0.00  0.00    -0.283 N 
ATOM     16  O14 0FS d   1      37.721  -2.647   0.279  0.00  0.00    -0.267 OA
ATOM     17  C09 0FS d   1      39.420  -3.929   3.111  0.00  0.00     0.291 A 
ATOM     18  H   0FS d   1      37.297  -3.885   2.775  0.00  0.00     0.172 HD
ATOM     19  S10 0FS d   1      40.692  -3.346   2.242  0.00  0.00    -0.024 SA
ATOM     20  O15 0FS d   1      39.431  -4.469   4.185  0.00  0.00    -0.260 OA
ENDBRANCH  11  13
ENDBRANCH   5  11
BRANCH   4  21
ATOM     21  C12 0FS d   1      45.383  -1.655   0.681  0.00  0.00     0.417 C 
ATOM     22  F16 0FS d   1      46.503  -2.236   0.220  0.00  0.00    -0.166 F 
ATOM     23  F17 0FS d   1      45.054  -2.031   1.939  0.00  0.00    -0.166 F 
ATOM     24  F18 0FS d   1      45.547  -0.338   0.569  0.00  0.00    -0.166 F 
ENDBRANCH   4  21
TORSDOF 3
