REMARK  5 active torsions:
REMARK  status: ('A' for Active; 'I' for Inactive)
REMARK    1  A    between atoms: C2_2  and  O2_8 
REMARK    2  A    between atoms: C3_3  and  O3_9 
REMARK    3  A    between atoms: C4_4  and  O4_10 
REMARK    4  A    between atoms: C5_5  and  C6_6 
REMARK    5  A    between atoms: C6_6  and  O6_12 
ROOT
ATOM      1  C1  GTZ d   1      53.799 -11.754  27.899  0.00  0.00     0.168 A 
ATOM      2  C2  GTZ d   1      54.339 -10.404  27.597  0.00  0.00     0.122 C 
ATOM      3  C3  GTZ d   1      53.389  -9.261  28.016  0.00  0.00     0.094 C 
ATOM      4  C4  GTZ d   1      51.906  -9.650  28.179  0.00  0.00     0.086 C 
ATOM      5  C5  GTZ d   1      51.658 -10.940  28.985  0.00  0.00     0.080 C 
ATOM      6  N1  GTZ d   1      54.349 -12.968  27.634  0.00  0.00    -0.144 NA
ATOM      7  N5  GTZ d   1      52.634 -11.960  28.502  0.00  0.00    -0.251 N 
ATOM      8  NA  GTZ d   1      52.366 -13.330  28.662  0.00  0.00    -0.003 NA
ATOM      9  NB  GTZ d   1      53.479 -13.979  28.098  0.00  0.00     0.018 NA
ATOM     10  H   GTZ d   1      54.463 -10.320  26.517  0.00  0.00     0.099 H 
ATOM     11  H   GTZ d   1      53.720  -8.966  29.012  0.00  0.00     0.091 H 
ATOM     12  H   GTZ d   1      51.431  -8.859  28.760  0.00  0.00     0.090 H 
ATOM     13  H   GTZ d   1      51.812 -10.757  30.049  0.00  0.00     0.082 H 
ENDROOT
BRANCH   5  14
ATOM     14  C6  GTZ d   1      50.206 -11.416  28.878  0.00  0.00     0.040 C 
ATOM     15  H   GTZ d   1      50.147 -12.476  29.126  0.00  0.00     0.077 H 
ATOM     16  H   GTZ d   1      49.845 -11.270  27.860  0.00  0.00     0.077 H 
BRANCH  14  17
ATOM     17  O6  GTZ d   1      49.400 -10.661  29.790  0.00  0.00    -0.399 OA
ATOM     18  H   GTZ d   1      49.720 -10.795  30.685  0.00  0.00     0.209 HD
ENDBRANCH  14  17
ENDBRANCH   5  14
BRANCH   4  19
ATOM     19  O4  GTZ d   1      51.340  -9.782  26.869  0.00  0.00    -0.391 OA
ATOM     20  H   GTZ d   1      50.395  -9.934  26.944  0.00  0.00     0.210 HD
ENDBRANCH   4  19
BRANCH   3  21
ATOM     21  O3  GTZ d   1      53.493  -8.182  27.065  0.00  0.00    -0.390 OA
ATOM     22  H   GTZ d   1      53.139  -8.467  26.219  0.00  0.00     0.210 HD
ENDBRANCH   3  21
BRANCH   2  23
ATOM     23  O2  GTZ d   1      55.580 -10.269  28.292  0.00  0.00    -0.385 OA
ATOM     24  H   GTZ d   1      55.978  -9.424  28.072  0.00  0.00     0.210 HD
ENDBRANCH   2  23
TORSDOF 5
