REMARK  9 active torsions:
REMARK  status: ('A' for Active; 'I' for Inactive)
REMARK    1  A    between atoms: C1_1  and  S1_12 
REMARK    2  A    between atoms: C2_2  and  O2_3 
REMARK    3  A    between atoms: C3_4  and  O3_5 
REMARK    4  A    between atoms: C4_6  and  O4_7 
REMARK    5  A    between atoms: C5_8  and  C6_10 
REMARK    6  A    between atoms: C6_10  and  O6_11 
REMARK    7  A    between atoms: S1_12  and  C1'_13 
REMARK    8  A    between atoms: C1'_13  and  C2'_14 
REMARK    9  A    between atoms: C1'_13  and  C3'_15 
ROOT
ATOM      1  C1  IPT d   1     -14.305 -27.614 -26.370  0.00  0.00     0.110 C 
ATOM      2  C2  IPT d   1     -13.001 -27.415 -25.602  0.00  0.00     0.096 C 
ATOM      3  C3  IPT d   1     -11.791 -27.296 -26.540  0.00  0.00     0.090 C 
ATOM      4  C4  IPT d   1     -11.820 -28.271 -27.724  0.00  0.00     0.089 C 
ATOM      5  C5  IPT d   1     -13.224 -28.327 -28.322  0.00  0.00     0.087 C 
ATOM      6  O5  IPT d   1     -14.117 -28.696 -27.277  0.00  0.00    -0.363 OA
ATOM      7  H   IPT d   1     -14.572 -26.717 -26.928  0.00  0.00     0.104 H 
ATOM      8  H   IPT d   1     -12.835 -28.279 -24.959  0.00  0.00     0.092 H 
ATOM      9  H   IPT d   1     -11.845 -26.294 -26.966  0.00  0.00     0.091 H 
ATOM     10  H   IPT d   1     -11.127 -27.931 -28.494  0.00  0.00     0.091 H 
ATOM     11  H   IPT d   1     -13.427 -27.340 -28.738  0.00  0.00     0.090 H 
ENDROOT
BRANCH   1  12
ATOM     12  S1  IPT d   1     -15.620 -27.949 -25.232  0.00  0.00    -0.131 SA
BRANCH  12  13
ATOM     13  C1' IPT d   1     -17.244 -28.226 -25.902  0.00  0.00    -0.014 C 
ATOM     14  H   IPT d   1     -17.494 -29.268 -25.704  0.00  0.00     0.055 H 
BRANCH  13  15
ATOM     15  C2' IPT d   1     -18.255 -27.310 -25.214  0.00  0.00    -0.065 C 
ATOM     16  H   IPT d   1     -18.266 -27.521 -24.145  0.00  0.00     0.028 H 
ATOM     17  H   IPT d   1     -17.971 -26.270 -25.377  0.00  0.00     0.028 H 
ATOM     18  H   IPT d   1     -19.246 -27.487 -25.631  0.00  0.00     0.028 H 
ENDBRANCH  13  15
BRANCH  13  19
ATOM     19  C3' IPT d   1     -17.309 -28.051 -27.416  0.00  0.00    -0.065 C 
ATOM     20  H   IPT d   1     -17.015 -27.034 -27.676  0.00  0.00     0.028 H 
ATOM     21  H   IPT d   1     -16.631 -28.760 -27.892  0.00  0.00     0.028 H 
ATOM     22  H   IPT d   1     -18.328 -28.235 -27.758  0.00  0.00     0.028 H 
ENDBRANCH  13  19
ENDBRANCH  12  13
ENDBRANCH   1  12
BRANCH   2  23
ATOM     23  O2  IPT d   1     -13.124 -26.202 -24.856  0.00  0.00    -0.389 OA
ATOM     24  H   IPT d   1     -12.316 -26.049 -24.360  0.00  0.00     0.210 HD
ENDBRANCH   2  23
BRANCH   3  25
ATOM     25  O3  IPT d   1     -10.571 -27.458 -25.806  0.00  0.00    -0.390 OA
ATOM     26  H   IPT d   1      -9.825 -27.381 -26.406  0.00  0.00     0.210 HD
ENDBRANCH   3  25
BRANCH   5  27
ATOM     27  C6  IPT d   1     -13.400 -29.296 -29.487  0.00  0.00     0.043 C 
ATOM     28  H   IPT d   1     -14.326 -29.059 -30.011  0.00  0.00     0.078 H 
ATOM     29  H   IPT d   1     -13.434 -30.315 -29.101  0.00  0.00     0.078 H 
BRANCH  27  30
ATOM     30  O6  IPT d   1     -12.304 -29.179 -30.400  0.00  0.00    -0.398 OA
ATOM     31  H   IPT d   1     -12.267 -28.282 -30.740  0.00  0.00     0.209 HD
ENDBRANCH  27  30
ENDBRANCH   5  27
BRANCH   4  32
ATOM     32  O4  IPT d   1     -11.436 -29.565 -27.267  0.00  0.00    -0.390 OA
ATOM     33  H   IPT d   1     -12.049 -29.859 -26.589  0.00  0.00     0.210 HD
ENDBRANCH   4  32
TORSDOF 9
