REMARK  18 active torsions:
REMARK  status: ('A' for Active; 'I' for Inactive)
REMARK    1  A    between atoms: N1_1  and  C15_15 
REMARK    2  A    between atoms: N8_8  and  C11_11 
REMARK    3  A    between atoms: C11_11  and  C12_12 
REMARK    4  A    between atoms: C11_11  and  C18_18 
REMARK       I    between atoms: C12_12  and  N13_13 
REMARK    5  A    between atoms: N13_13  and  C19_19 
REMARK    6  A    between atoms: C15_15  and  C16_16 
REMARK    7  A    between atoms: C16_16  and  C17_17 
REMARK    8  A    between atoms: C19_19  and  C20_20 
REMARK    9  A    between atoms: C19_19  and  C24_24 
REMARK   10  A    between atoms: C20_20  and  C21_21 
REMARK   11  A    between atoms: C20_20  and  O31_31 
REMARK   12  A    between atoms: C21_21  and  N22_22 
REMARK   13  A    between atoms: N22_22  and  C23_23 
REMARK   14  A    between atoms: C23_23  and  C32_32 
REMARK   15  A    between atoms: C24_24  and  C25_25 
REMARK   16  A    between atoms: C36_36  and  C38_38 
REMARK   17  A    between atoms: C38_38  and  C39_39 
REMARK   18  A    between atoms: C38_38  and  C40_40 
ROOT
ATOM      1  C19 0GO d   1      29.328  72.253  18.447  0.00  0.00     0.042 C 
ATOM      2  H24 0GO d   1      30.277  71.829  18.806  0.00  0.00     0.077 H 
ENDROOT
BRANCH   1   3
ATOM      3  N13 0GO d   1      29.615  73.078  17.259  0.00  0.00    -0.352 N 
ATOM      4  C12 0GO d   1      30.784  73.002  16.554  0.00  0.00     0.240 C 
ATOM      5  O14 0GO d   1      31.699  72.232  16.841  0.00  0.00    -0.271 OA
ATOM      6  H13 0GO d   1      28.918  73.727  16.953  0.00  0.00     0.163 HD
BRANCH   4   7
ATOM      7  C11 0GO d   1      30.932  73.925  15.362  0.00  0.00     0.088 C 
ATOM      8  H12 0GO d   1      29.951  73.935  14.864  0.00  0.00     0.087 H 
BRANCH   7   9
ATOM      9  N8  0GO d   1      31.212  75.311  15.765  0.00  0.00    -0.337 N 
ATOM     10  C7  0GO d   1      32.103  75.683  16.859  0.00  0.00     0.001 C 
ATOM     11  C6  0GO d   1      31.820  77.191  17.020  0.00  0.00    -0.010 C 
ATOM     12  H10 0GO d   1      31.856  75.132  17.778  0.00  0.00     0.064 H 
ATOM     13  H11 0GO d   1      33.155  75.502  16.594  0.00  0.00     0.064 H 
ATOM     14  C2  0GO d   1      31.162  77.662  15.687  0.00  0.00     0.209 C 
ATOM     15  H8  0GO d   1      31.134  77.361  17.863  0.00  0.00     0.039 H 
ATOM     16  H9  0GO d   1      32.759  77.737  17.195  0.00  0.00     0.039 H 
ATOM     17  N1  0GO d   1      30.130  78.734  15.871  0.00  0.00    -0.053 N 
ATOM     18  C3  0GO d   1      32.188  78.342  14.744  0.00  0.00    -0.023 C 
ATOM     19  C9  0GO d   1      30.650  76.359  15.123  0.00  0.00     0.257 C 
ATOM     20  C5  0GO d   1      30.702  80.021  15.399  0.00  0.00     0.085 C 
ATOM     21  H1  0GO d   1      29.464  78.501  15.152  0.00  0.00     0.281 HD
ATOM     22  C4  0GO d   1      32.221  79.775  15.304  0.00  0.00    -0.040 C 
ATOM     23  H6  0GO d   1      30.485  80.826  16.117  0.00  0.00     0.076 H 
ATOM     24  H7  0GO d   1      30.292  80.288  14.414  0.00  0.00     0.076 H 
ATOM     25  H4  0GO d   1      32.712  80.478  14.615  0.00  0.00     0.035 H 
ATOM     26  H5  0GO d   1      32.711  79.824  16.288  0.00  0.00     0.035 H 
ATOM     27  H2  0GO d   1      31.844  78.327  13.699  0.00  0.00     0.037 H 
ATOM     28  H3  0GO d   1      33.175  77.862  14.812  0.00  0.00     0.037 H 
ATOM     29  O10 0GO d   1      29.843  76.314  14.203  0.00  0.00    -0.270 OA
BRANCH  17  30
ATOM     30  C15 0GO d   1      29.228  78.816  17.051  0.00  0.00     0.085 C 
ATOM     31  H14 0GO d   1      29.039  79.874  17.285  0.00  0.00     0.076 H 
ATOM     32  H15 0GO d   1      29.716  78.332  17.910  0.00  0.00     0.076 H 
BRANCH  30  33
ATOM     33  C16 0GO d   1      27.875  78.110  16.775  0.00  0.00    -0.046 C 
ATOM     34  H16 0GO d   1      28.062  77.047  16.563  0.00  0.00     0.034 H 
ATOM     35  H17 0GO d   1      27.397  78.579  15.902  0.00  0.00     0.034 H 
BRANCH  33  36
ATOM     36  C17 0GO d   1      26.924  78.222  17.992  0.00  0.00    -0.075 C 
ATOM     37  H18 0GO d   1      25.976  77.713  17.765  0.00  0.00     0.027 H 
ATOM     38  H19 0GO d   1      26.728  79.283  18.208  0.00  0.00     0.027 H 
ATOM     39  H20 0GO d   1      27.393  77.750  18.868  0.00  0.00     0.027 H 
ENDBRANCH  33  36
ENDBRANCH  30  33
ENDBRANCH  17  30
ENDBRANCH   7   9
BRANCH   7  40
ATOM     40  C18 0GO d   1      31.953  73.435  14.295  0.00  0.00    -0.049 C 
ATOM     41  H21 0GO d   1      31.719  72.398  14.013  0.00  0.00     0.030 H 
ATOM     42  H22 0GO d   1      32.970  73.482  14.712  0.00  0.00     0.030 H 
ATOM     43  H23 0GO d   1      31.892  74.079  13.405  0.00  0.00     0.030 H 
ENDBRANCH   7  40
ENDBRANCH   4   7
ENDBRANCH   1   3
BRANCH   1  44
ATOM     44  C20 0GO d   1      28.384  71.068  18.073  0.00  0.00     0.078 C 
ATOM     45  H25 0GO d   1      27.462  71.512  17.670  0.00  0.00     0.088 H 
BRANCH  44  46
ATOM     46  C21 0GO d   1      28.970  70.147  16.975  0.00  0.00     0.107 C 
ATOM     47  H26 0GO d   1      29.985  69.841  17.267  0.00  0.00     0.079 H 
ATOM     48  H27 0GO d   1      29.013  70.702  16.026  0.00  0.00     0.079 H 
BRANCH  46  49
ATOM     49  N22 0GO d   1      28.137  68.940  16.791  0.00  0.00    -0.069 N 
ATOM     50  H28 0GO d   1      27.353  69.189  16.208  0.00  0.00     0.277 HD
ATOM     51  H29 0GO d   1      27.803  68.651  17.697  0.00  0.00     0.277 HD
BRANCH  49  52
ATOM     52  C23 0GO d   1      28.824  67.781  16.165  0.00  0.00     0.105 C 
ATOM     53  H30 0GO d   1      29.253  68.100  15.204  0.00  0.00     0.083 H 
ATOM     54  H31 0GO d   1      28.087  66.984  15.991  0.00  0.00     0.083 H 
BRANCH  52  55
ATOM     55  C32 0GO d   1      29.955  67.226  17.054  0.00  0.00    -0.032 A 
ATOM     56  C33 0GO d   1      31.287  67.234  16.570  0.00  0.00    -0.075 A 
ATOM     57  C34 0GO d   1      32.333  66.730  17.379  0.00  0.00    -0.082 A 
ATOM     58  H40 0GO d   1      31.504  67.625  15.583  0.00  0.00     0.084 H 
ATOM     59  C35 0GO d   1      32.059  66.215  18.667  0.00  0.00    -0.076 A 
ATOM     60  H41 0GO d   1      33.352  66.739  17.009  0.00  0.00     0.083 H 
ATOM     61  C36 0GO d   1      30.732  66.194  19.170  0.00  0.00    -0.054 A 
ATOM     62  H42 0GO d   1      32.870  65.833  19.276  0.00  0.00     0.084 H 
ATOM     63  C37 0GO d   1      29.688  66.707  18.349  0.00  0.00    -0.069 A 
ATOM     64  H43 0GO d   1      28.669  66.701  18.720  0.00  0.00     0.085 H 
BRANCH  61  65
ATOM     65  C38 0GO d   1      30.466  65.617  20.582  0.00  0.00    -0.036 C 
ATOM     66  H44 0GO d   1      31.350  65.013  20.835  0.00  0.00     0.046 H 
BRANCH  65  67
ATOM     67  C39 0GO d   1      30.368  66.723  21.660  0.00  0.00    -0.069 C 
ATOM     68  H45 0GO d   1      30.179  66.263  22.641  0.00  0.00     0.028 H 
ATOM     69  H46 0GO d   1      29.543  67.406  21.410  0.00  0.00     0.028 H 
ATOM     70  H47 0GO d   1      31.312  67.286  21.695  0.00  0.00     0.028 H 
ENDBRANCH  65  67
BRANCH  65  71
ATOM     71  C40 0GO d   1      29.250  64.650  20.644  0.00  0.00    -0.069 C 
ATOM     72  H48 0GO d   1      29.354  63.880  19.866  0.00  0.00     0.028 H 
ATOM     73  H49 0GO d   1      28.322  65.217  20.477  0.00  0.00     0.028 H 
ATOM     74  H50 0GO d   1      29.214  64.169  21.633  0.00  0.00     0.028 H 
ENDBRANCH  65  71
ENDBRANCH  61  65
ENDBRANCH  52  55
ENDBRANCH  49  52
ENDBRANCH  46  49
ENDBRANCH  44  46
BRANCH  44  75
ATOM     75  O31 0GO d   1      28.019  70.277  19.218  0.00  0.00    -0.392 OA
ATOM     76  H39 0GO d   1      27.660  70.843  19.891  0.00  0.00     0.210 HD
ENDBRANCH  44  75
ENDBRANCH   1  44
BRANCH   1  77
ATOM     77  C24 0GO d   1      28.731  73.127  19.592  0.00  0.00    -0.020 C 
ATOM     78  H32 0GO d   1      28.609  72.486  20.478  0.00  0.00     0.043 H 
ATOM     79  H33 0GO d   1      27.746  73.489  19.262  0.00  0.00     0.043 H 
BRANCH  77  80
ATOM     80  C25 0GO d   1      29.570  74.348  20.004  0.00  0.00    -0.056 A 
ATOM     81  C26 0GO d   1      28.905  75.581  20.218  0.00  0.00    -0.077 A 
ATOM     82  C27 0GO d   1      29.632  76.734  20.603  0.00  0.00    -0.082 A 
ATOM     83  H34 0GO d   1      27.831  75.642  20.086  0.00  0.00     0.084 H 
ATOM     84  C28 0GO d   1      31.035  76.659  20.776  0.00  0.00    -0.083 A 
ATOM     85  H35 0GO d   1      29.115  77.673  20.765  0.00  0.00     0.083 H 
ATOM     86  C29 0GO d   1      31.707  75.431  20.563  0.00  0.00    -0.082 A 
ATOM     87  H36 0GO d   1      31.594  77.540  21.071  0.00  0.00     0.083 H 
ATOM     88  C30 0GO d   1      30.980  74.278  20.178  0.00  0.00    -0.077 A 
ATOM     89  H37 0GO d   1      32.781  75.373  20.695  0.00  0.00     0.083 H 
ATOM     90  H38 0GO d   1      31.499  73.340  20.016  0.00  0.00     0.084 H 
ENDBRANCH  77  80
ENDBRANCH   1  77
TORSDOF 18
