REMARK  9 active torsions:
REMARK  status: ('A' for Active; 'I' for Inactive)
REMARK    1  A    between atoms: C3_3  and  N53_31 
REMARK    2  A    between atoms: C7_6  and  C10_8 
REMARK    3  A    between atoms: C10_8  and  C13_9 
REMARK    4  A    between atoms: C15_10  and  O50_29 
REMARK    5  A    between atoms: C17_11  and  N28_17 
REMARK    6  A    between atoms: N28_17  and  C30_18 
REMARK    7  A    between atoms: C30_18  and  C33_19 
REMARK    8  A    between atoms: C36_21  and  C43_25 
REMARK    9  A    between atoms: C43_25  and  C46_28 
ROOT
ATOM      1  C13 0GS d   1      29.723  72.721  19.281  0.00  0.00    -0.011 C 
ATOM      2  C15 0GS d   1      28.846  71.513  18.807  0.00  0.00     0.068 C 
ATOM      3  C17 0GS d   1      29.595  70.551  17.827  0.00  0.00     0.139 C 
ATOM      4  C19 0GS d   1      30.143  71.246  16.549  0.00  0.00     0.058 C 
ATOM      5  S22 0GS d   1      31.273  72.568  17.007  0.00  0.00     0.147 S 
ATOM      6  C23 0GS d   1      30.191  73.554  18.041  0.00  0.00     0.035 C 
ATOM      7  O26 0GS d   1      31.600  73.334  15.818  0.00  0.00    -0.228 OA
ATOM      8  O27 0GS d   1      32.376  72.031  17.783  0.00  0.00    -0.228 OA
ATOM      9  H5  0GS d   1      30.624  72.296  19.747  0.00  0.00     0.045 H 
ATOM     10  H6  0GS d   1      27.948  71.917  18.316  0.00  0.00     0.086 H 
ATOM     11  H7  0GS d   1      30.474  70.181  18.375  0.00  0.00     0.089 H 
ATOM     12  H8  0GS d   1      29.304  71.666  15.974  0.00  0.00     0.059 H 
ATOM     13  H9  0GS d   1      30.677  70.507  15.933  0.00  0.00     0.059 H 
ATOM     14  H10 0GS d   1      30.733  74.447  18.386  0.00  0.00     0.056 H 
ATOM     15  H11 0GS d   1      29.311  73.862  17.457  0.00  0.00     0.056 H 
ENDROOT
BRANCH   3  16
ATOM     16  N28 0GS d   1      28.771  69.358  17.488  0.00  0.00    -0.064 N 
ATOM     17  H12 0GS d   1      28.089  69.663  16.812  0.00  0.00     0.278 HD
ATOM     18  H13 0GS d   1      28.303  69.082  18.337  0.00  0.00     0.278 HD
BRANCH  16  19
ATOM     19  C30 0GS d   1      29.398  68.127  16.931  0.00  0.00     0.106 C 
ATOM     20  H14 0GS d   1      29.872  68.366  15.967  0.00  0.00     0.083 H 
ATOM     21  H15 0GS d   1      28.622  67.363  16.778  0.00  0.00     0.083 H 
BRANCH  19  22
ATOM     22  C33 0GS d   1      30.466  67.579  17.899  0.00  0.00    -0.032 A 
ATOM     23  C34 0GS d   1      30.070  67.021  19.138  0.00  0.00    -0.063 A 
ATOM     24  C36 0GS d   1      31.020  66.508  20.057  0.00  0.00     0.013 A 
ATOM     25  H16 0GS d   1      29.016  66.985  19.390  0.00  0.00     0.085 H 
ATOM     26  C37 0GS d   1      32.402  66.586  19.722  0.00  0.00    -0.071 A 
ATOM     27  C39 0GS d   1      32.814  67.140  18.484  0.00  0.00    -0.082 A 
ATOM     28  H17 0GS d   1      33.145  66.218  20.420  0.00  0.00     0.084 H 
ATOM     29  C41 0GS d   1      31.848  67.646  17.579  0.00  0.00    -0.075 A 
ATOM     30  H18 0GS d   1      33.867  67.177  18.230  0.00  0.00     0.083 H 
ATOM     31  H19 0GS d   1      32.165  68.085  16.640  0.00  0.00     0.084 H 
BRANCH  24  32
ATOM     32  C43 0GS d   1      30.537  65.902  21.396  0.00  0.00     0.267 C 
ATOM     33  F44 0GS d   1      29.178  65.811  21.437  0.00  0.00    -0.201 F 
ATOM     34  F45 0GS d   1      30.925  66.679  22.447  0.00  0.00    -0.201 F 
BRANCH  32  35
ATOM     35  C46 0GS d   1      31.087  64.469  21.592  0.00  0.00    -0.012 C 
ATOM     36  H20 0GS d   1      30.727  64.066  22.550  0.00  0.00     0.036 H 
ATOM     37  H21 0GS d   1      32.187  64.496  21.595  0.00  0.00     0.036 H 
ATOM     38  H22 0GS d   1      30.738  63.827  20.770  0.00  0.00     0.036 H 
ENDBRANCH  32  35
ENDBRANCH  24  32
ENDBRANCH  19  22
ENDBRANCH  16  19
ENDBRANCH   3  16
BRANCH   2  39
ATOM     39  O50 0GS d   1      28.464  70.654  19.896  0.00  0.00    -0.393 OA
ATOM     40  H23 0GS d   1      27.996  71.161  20.549  0.00  0.00     0.210 HD
ENDBRANCH   2  39
BRANCH   1  41
ATOM     41  C10 0GS d   1      29.040  73.626  20.377  0.00  0.00    -0.034 C 
ATOM     42  H3  0GS d   1      28.045  73.929  20.019  0.00  0.00     0.040 H 
ATOM     43  H4  0GS d   1      28.935  73.044  21.304  0.00  0.00     0.040 H 
BRANCH  41  44
ATOM     44  C7  0GS d   1      29.870  74.892  20.674  0.00  0.00    -0.053 A 
ATOM     45  C5  0GS d   1      31.114  74.806  21.348  0.00  0.00    -0.037 A 
ATOM     46  C4  0GS d   1      31.864  75.977  21.594  0.00  0.00     0.144 A 
ATOM     47  H1  0GS d   1      31.489  73.843  21.674  0.00  0.00     0.089 H 
ATOM     48  C3  0GS d   1      31.393  77.254  21.181  0.00  0.00     0.082 A 
ATOM     49  F52 0GS d   1      33.033  75.863  22.224  0.00  0.00    -0.204 F 
ATOM     50  C2  0GS d   1      30.139  77.337  20.505  0.00  0.00     0.040 A 
ATOM     51 BR1  0GS d   1      29.381  78.918  19.894  0.00  0.00    -0.049 Br
ATOM     52  C8  0GS d   1      29.393  76.163  20.263  0.00  0.00    -0.058 A 
ATOM     53  H2  0GS d   1      28.439  76.234  19.754  0.00  0.00     0.086 H 
BRANCH  48  54
ATOM     54  N53 0GS d   1      32.163  78.341  21.446  0.00  0.00    -0.396 N 
ATOM     55  H24 0GS d   1      31.847  79.278  21.159  0.00  0.00     0.156 HD
ATOM     56  H25 0GS d   1      33.063  78.228  21.934  0.00  0.00     0.156 HD
ENDBRANCH  48  54
ENDBRANCH  41  44
ENDBRANCH   1  41
TORSDOF 9
