REMARK  9 active torsions:
REMARK  status: ('A' for Active; 'I' for Inactive)
REMARK    1  A    between atoms: CAZ_1  and  CAY_2 
REMARK    2  A    between atoms: CAY_2  and  OAX_3 
REMARK    3  A    between atoms: OAX_3  and  CAB_4 
REMARK    4  A    between atoms: CAF_13  and  CAJ_14 
REMARK    5  A    between atoms: CAN_18  and  NAO_19 
REMARK       I    between atoms: NAO_19  and  CAP_20 
REMARK       I    between atoms: CAP_20  and  NAQ_22 
REMARK    6  A    between atoms: NAQ_22  and  CAU_23 
REMARK    7  A    between atoms: NAQ_22  and  CAS_25 
REMARK    8  A    between atoms: CAU_23  and  CAV_24 
REMARK    9  A    between atoms: CAS_25  and  CAT_26 
ROOT
ATOM      1  CAJ 0JE d   1      -3.403  -0.821 -15.542  0.00  0.00     0.124 A 
ATOM      2  NAK 0JE d   1      -4.312  -1.419 -16.309  0.00  0.00    -0.272 N 
ATOM      3  NAL 0JE d   1      -5.406  -0.853 -16.172  0.00  0.00    -0.184 NA
ATOM      4  CAM 0JE d   1      -5.323   0.170 -15.310  0.00  0.00     0.050 A 
ATOM      5  CAN 0JE d   1      -4.063   0.205 -14.886  0.00  0.00     0.087 A 
ATOM      6  H   0JE d   1      -4.135  -2.220 -16.916  0.00  0.00     0.189 HD
ATOM      7  H   0JE d   1      -6.130   0.841 -15.015  0.00  0.00     0.121 H 
ENDROOT
BRANCH   1   8
ATOM      8  CAF 0JE d   1      -2.047  -1.115 -15.393  0.00  0.00     0.159 A 
ATOM      9  NAG 0JE d   1      -1.206  -0.505 -14.558  0.00  0.00    -0.227 NA
ATOM     10  CAH 0JE d   1       0.001  -1.036 -14.706  0.00  0.00     0.089 A 
ATOM     11  CAD 0JE d   1       1.231  -0.767 -14.104  0.00  0.00    -0.013 A 
ATOM     12  CAI 0JE d   1      -0.104  -2.030 -15.674  0.00  0.00     0.065 A 
ATOM     13  CAA 0JE d   1       2.354  -1.514 -14.461  0.00  0.00     0.151 A 
ATOM     14  H   0JE d   1       1.314   0.023 -13.358  0.00  0.00     0.092 H 
ATOM     15  CAB 0JE d   1       2.255  -2.523 -15.421  0.00  0.00     0.109 A 
ATOM     16  FAW 0JE d   1       3.542  -1.264 -13.874  0.00  0.00    -0.203 F 
ATOM     17  CAC 0JE d   1       1.020  -2.780 -16.033  0.00  0.00    -0.020 A 
ATOM     18  H   0JE d   1       0.936  -3.563 -16.787  0.00  0.00     0.091 H 
ATOM     19  NAE 0JE d   1      -1.373  -2.045 -16.076  0.00  0.00    -0.337 N 
ATOM     20  H   0JE d   1      -1.765  -2.663 -16.786  0.00  0.00     0.167 HD
BRANCH  15  21
ATOM     21  OAX 0JE d   1       3.393  -3.197 -15.765  0.00  0.00    -0.348 OA
BRANCH  21  22
ATOM     22  CAY 0JE d   1       3.222  -4.553 -16.205  0.00  0.00     0.023 C 
ATOM     23  H   0JE d   1       2.909  -5.193 -15.380  0.00  0.00     0.074 H 
ATOM     24  H   0JE d   1       2.444  -4.620 -16.965  0.00  0.00     0.074 H 
BRANCH  22  25
ATOM     25  CAZ 0JE d   1       4.572  -5.006 -16.765  0.00  0.00    -0.056 C 
ATOM     26  H   0JE d   1       4.854  -4.360 -17.596  0.00  0.00     0.030 H 
ATOM     27  H   0JE d   1       5.328  -4.944 -15.982  0.00  0.00     0.030 H 
ATOM     28  H   0JE d   1       4.492  -6.036 -17.114  0.00  0.00     0.030 H 
ENDBRANCH  22  25
ENDBRANCH  21  22
ENDBRANCH  15  21
ENDBRANCH   1   8
BRANCH   5  29
ATOM     29  NAO 0JE d   1      -3.479   1.091 -14.062  0.00  0.00    -0.305 N 
ATOM     30  CAP 0JE d   1      -3.844   2.367 -13.843  0.00  0.00     0.323 C 
ATOM     31  OAR 0JE d   1      -4.856   2.866 -14.339  0.00  0.00    -0.247 OA
ATOM     32  NAQ 0JE d   1      -3.063   3.081 -13.018  0.00  0.00    -0.335 N 
ATOM     33  H   0JE d   1      -2.666   0.758 -13.543  0.00  0.00     0.171 HD
BRANCH  32  34
ATOM     34  CAU 0JE d   1      -1.847   2.514 -12.407  0.00  0.00    -0.004 C 
ATOM     35  H   0JE d   1      -1.912   1.426 -12.402  0.00  0.00     0.063 H 
ATOM     36  H   0JE d   1      -1.752   2.870 -11.381  0.00  0.00     0.063 H 
BRANCH  34  37
ATOM     37  CAV 0JE d   1      -0.628   2.953 -13.220  0.00  0.00    -0.061 C 
ATOM     38  H   0JE d   1      -0.727   2.593 -14.244  0.00  0.00     0.029 H 
ATOM     39  H   0JE d   1      -0.566   4.041 -13.220  0.00  0.00     0.029 H 
ATOM     40  H   0JE d   1       0.275   2.537 -12.773  0.00  0.00     0.029 H 
ENDBRANCH  34  37
ENDBRANCH  32  34
BRANCH  32  41
ATOM     41  CAS 0JE d   1      -3.385   4.480 -12.683  0.00  0.00    -0.004 C 
ATOM     42  H   0JE d   1      -2.869   4.762 -11.765  0.00  0.00     0.063 H 
ATOM     43  H   0JE d   1      -4.461   4.581 -12.541  0.00  0.00     0.063 H 
BRANCH  41  44
ATOM     44  CAT 0JE d   1      -2.933   5.395 -13.824  0.00  0.00    -0.061 C 
ATOM     45  H   0JE d   1      -1.857   5.293 -13.965  0.00  0.00     0.029 H 
ATOM     46  H   0JE d   1      -3.450   5.112 -14.741  0.00  0.00     0.029 H 
ATOM     47  H   0JE d   1      -3.172   6.429 -13.575  0.00  0.00     0.029 H 
ENDBRANCH  41  44
ENDBRANCH  32  41
ENDBRANCH   5  29
TORSDOF 9
