REMARK  5 active torsions:
REMARK  status: ('A' for Active; 'I' for Inactive)
REMARK    1  A    between atoms: CAT_1  and  CAR_2 
REMARK    2  A    between atoms: CAR_2  and  CAW_3 
REMARK    3  A    between atoms: CAR_2  and  OAS_4 
REMARK    4  A    between atoms: CAR_2  and  CAJ_5 
REMARK    5  A    between atoms: CAD_13  and  CAC_14 
ROOT
ATOM      1  CAJ 477 d   1       2.221  -2.720 -15.570  0.00  0.00    -0.023 A 
ATOM      2  CAI 477 d   1       0.957  -2.949 -16.123  0.00  0.00    -0.047 A 
ATOM      3  CAK 477 d   1       2.394  -1.661 -14.671  0.00  0.00    -0.073 A 
ATOM      4  CAL 477 d   1       1.321  -0.835 -14.333  0.00  0.00    -0.070 A 
ATOM      5  CAG 477 d   1       0.065  -1.069 -14.893  0.00  0.00    -0.007 A 
ATOM      6  CAF 477 d   1      -1.110  -0.462 -14.759  0.00  0.00    -0.043 A 
ATOM      7  CAH 477 d   1      -0.115  -2.118 -15.788  0.00  0.00     0.043 A 
ATOM      8  NAE 477 d   1      -1.391  -2.096 -16.158  0.00  0.00    -0.354 N 
ATOM      9  CAD 477 d   1      -2.002  -1.091 -15.527  0.00  0.00     0.063 A 
ATOM     10  H   477 d   1       0.808  -3.777 -16.816  0.00  0.00     0.088 H 
ATOM     11  H   477 d   1       3.375  -1.480 -14.231  0.00  0.00     0.084 H 
ATOM     12  H   477 d   1       1.464  -0.011 -13.634  0.00  0.00     0.084 H 
ATOM     13  H   477 d   1      -1.311   0.404 -14.128  0.00  0.00     0.088 H 
ATOM     14  H   477 d   1      -1.831  -2.740 -16.815  0.00  0.00     0.166 HD
ENDROOT
BRANCH   1  15
ATOM     15  CAR 477 d   1       3.394  -3.647 -15.946  0.00  0.00     0.078 C 
BRANCH  15  16
ATOM     16  CAT 477 d   1       4.687  -3.181 -15.269  0.00  0.00    -0.044 C 
ATOM     17  H   477 d   1       4.920  -2.167 -15.592  0.00  0.00     0.032 H 
ATOM     18  H   477 d   1       4.556  -3.197 -14.187  0.00  0.00     0.032 H 
ATOM     19  H   477 d   1       5.502  -3.849 -15.547  0.00  0.00     0.032 H 
ENDBRANCH  15  16
BRANCH  15  20
ATOM     20  CAW 477 d   1       3.056  -5.067 -15.483  0.00  0.00    -0.044 C 
ATOM     21  H   477 d   1       2.909  -5.070 -14.403  0.00  0.00     0.032 H 
ATOM     22  H   477 d   1       2.143  -5.401 -15.976  0.00  0.00     0.032 H 
ATOM     23  H   477 d   1       3.876  -5.737 -15.741  0.00  0.00     0.032 H 
ENDBRANCH  15  20
BRANCH  15  24
ATOM     24  OAS 477 d   1       3.557  -3.626 -17.367  0.00  0.00    -0.386 OA
ATOM     25  H   477 d   1       2.742  -3.911 -17.786  0.00  0.00     0.211 HD
ENDBRANCH  15  24
ENDBRANCH   1  15
BRANCH   9  26
ATOM     26  CAC 477 d   1      -3.350  -0.765 -15.667  0.00  0.00     0.096 A 
ATOM     27  NAB 477 d   1      -4.252  -1.315 -16.476  0.00  0.00    -0.274 N 
ATOM     28  NAA 477 d   1      -5.352  -0.767 -16.328  0.00  0.00    -0.173 NA
ATOM     29  H   477 d   1      -4.064  -2.079 -17.125  0.00  0.00     0.189 HD
ATOM     30  CAM 477 d   1      -5.320   0.191 -15.393  0.00  0.00     0.097 A 
ATOM     31  CAQ 477 d   1      -6.111   1.102 -14.784  0.00  0.00    -0.046 A 
ATOM     32  CAN 477 d   1      -4.008   0.202 -14.928  0.00  0.00     0.065 A 
ATOM     33  CAP 477 d   1      -5.533   1.875 -13.851  0.00  0.00    -0.042 A 
ATOM     34  H   477 d   1      -7.166   1.204 -15.038  0.00  0.00     0.087 H 
ATOM     35  SAO 477 d   1      -3.910   1.413 -13.765  0.00  0.00    -0.097 SA
ATOM     36  H   477 d   1      -6.018   2.653 -13.261  0.00  0.00     0.095 H 
ENDBRANCH   9  26
TORSDOF 5
