REMARK  24 active torsions:
REMARK  status: ('A' for Active; 'I' for Inactive)
REMARK    1  A    between atoms: CA_2  and  N_1 
REMARK    2  A    between atoms: C4_8  and  O4_9 
REMARK    3  A    between atoms: CD2_30  and  OD2_31 
REMARK    4  A    between atoms: O4_45  and  C4_44 
REMARK    5  A    between atoms: C1_85  and  O4_45 
REMARK    6  A    between atoms: C4_55  and  O4_56 
REMARK    7  A    between atoms: CB_63  and  OC_64 
REMARK    8  A    between atoms: CD1_74  and  OD1_73 
REMARK    9  A    between atoms: CD2_77  and  OD2_78 
REMARK   10  A    between atoms: CA_81  and  C_82 
REMARK   11  A    between atoms: N2_91  and  C2_86 
REMARK   12  A    between atoms: C3_87  and  O3_92 
REMARK   13  A    between atoms: C4_88  and  O4_93 
REMARK   14  A    between atoms: C5_89  and  C6_90 
REMARK   15  A    between atoms: C6_90  and  O6_95 
REMARK       I    between atoms: C_105  and  N2_91 
REMARK   16  A    between atoms: CAE_97  and  CAD_96 
REMARK   17  A    between atoms: CAG_98  and  CAE_97 
REMARK   18  A    between atoms: CAE_97  and  CAF_104 
REMARK   19  A    between atoms: CAH_99  and  CAG_98 
REMARK   20  A    between atoms: CAI_100  and  CAH_99 
REMARK   21  A    between atoms: CAJ_101  and  CAI_100 
REMARK   22  A    between atoms: CAK_102  and  CAJ_101 
REMARK   23  A    between atoms: CAL_103  and  CAK_102 
REMARK   24  A    between atoms: CAL_103  and  C_105 
ROOT
ATOM      1  CA  GHP d   1       8.062  35.624  10.023  0.00  0.00     0.201 C 
ATOM      2  C   GHP d   1       7.860  36.867  10.926  0.00  0.00     0.253 C 
ATOM      3  O   GHP d   1       8.647  37.811  10.911  0.00  0.00    -0.271 OA
ATOM      4  C1  GHP d   1       7.454  35.861   8.646  0.00  0.00    -0.016 A 
ATOM      5  C2  GHP d   1       7.164  34.750   7.860  0.00  0.00    -0.072 A 
ATOM      6  C3  GHP d   1       6.600  34.915   6.606  0.00  0.00    -0.048 A 
ATOM      7  C4  GHP d   1       6.324  36.191   6.139  0.00  0.00     0.099 A 
ATOM      8  C5  GHP d   1       6.602  37.304   6.923  0.00  0.00     0.109 A 
ATOM      9  C6  GHP d   1       7.172  37.145   8.186  0.00  0.00    -0.039 A 
ATOM     10  N   GHP d   1       2.091  37.934  10.144  0.00  0.00    -0.342 N 
ATOM     11  CA  GHP d   1       0.687  37.527  10.004  0.00  0.00     0.115 C 
ATOM     12  C   GHP d   1       0.375  37.212   8.538  0.00  0.00     0.246 C 
ATOM     13  O   GHP d   1       1.176  36.513   7.898  0.00  0.00    -0.271 OA
ATOM     14  C1  GHP d   1       0.393  36.298  10.890  0.00  0.00    -0.021 A 
ATOM     15  C2  GHP d   1       1.032  36.166  12.123  0.00  0.00    -0.039 A 
ATOM     16  C3  GHP d   1       0.773  35.062  12.936  0.00  0.00     0.113 A 
ATOM     17  C4  GHP d   1      -0.122  34.086  12.518  0.00  0.00     0.139 A 
ATOM     18  C5  GHP d   1      -0.772  34.206  11.291  0.00  0.00     0.113 A 
ATOM     19  C6  GHP d   1      -0.514  35.314  10.478  0.00  0.00    -0.039 A 
ATOM     20  N   GHP d   1      -0.729  37.733   8.014  0.00  0.00    -0.342 N 
ATOM     21  CA  GHP d   1      -1.323  37.181   6.785  0.00  0.00     0.115 C 
ATOM     22  C   GHP d   1      -2.832  37.189   6.984  0.00  0.00     0.245 C 
ATOM     23  O   GHP d   1      -3.320  37.994   7.803  0.00  0.00    -0.271 OA
ATOM     24  C1  GHP d   1      -1.082  37.963   5.492  0.00  0.00    -0.025 A 
ATOM     25  C2  GHP d   1      -0.575  37.276   4.393  0.00  0.00    -0.061 A 
ATOM     26  C3  GHP d   1      -0.386  37.926   3.182  0.00  0.00     0.011 A 
ATOM     27  C4  GHP d   1      -0.698  39.280   3.073  0.00  0.00     0.076 A 
ATOM     28  C5  GHP d   1      -1.216  39.969   4.168  0.00  0.00    -0.050 A 
ATOM     29  C6  GHP d   1      -1.417  39.311   5.381  0.00  0.00    -0.072 A 
ATOM     30  H4  GHP d   1       7.548  34.774  10.495  0.00  0.00     0.107 H 
ATOM     31  H5  GHP d   1       7.380  33.754   8.230  0.00  0.00     0.084 H 
ATOM     32  H6  GHP d   1       6.375  34.050   5.992  0.00  0.00     0.087 H 
ATOM     33  H8  GHP d   1       7.393  38.010   8.802  0.00  0.00     0.088 H 
ATOM     34  H22 GHP d   1       2.819  37.250  10.092  0.00  0.00     0.163 HD
ATOM     35  H23 GHP d   1       0.045  38.358  10.331  0.00  0.00     0.095 H 
ATOM     36  H24 GHP d   1       1.733  36.925  12.451  0.00  0.00     0.088 H 
ATOM     37  H25 GHP d   1      -1.019  35.412   9.524  0.00  0.00     0.088 H 
ATOM     38  H26 GHP d   1      -1.164  38.514   8.462  0.00  0.00     0.163 HD
ATOM     39  H27 GHP d   1      -0.953  36.154   6.651  0.00  0.00     0.095 H 
ATOM     40  H28 GHP d   1      -0.326  36.225   4.484  0.00  0.00     0.085 H 
ATOM     41  H30 GHP d   1      -1.464  41.020   4.077  0.00  0.00     0.087 H 
ATOM     42  H31 GHP d   1      -1.830  39.843   6.230  0.00  0.00     0.084 H 
ATOM     43  OBD 3MY d   1       1.411  34.936  14.158  0.00  0.00    -0.306 OA
ATOM     44  CZ  3MY d   1       2.641  35.510  14.141  0.00  0.00     0.098 A 
ATOM     45  CE2 3MY d   1       2.727  36.824  14.589  0.00  0.00     0.068 A 
ATOM     46  CD2 3MY d   1       3.948  37.476  14.573  0.00  0.00    -0.053 A 
ATOM     47 CL   3MY d   1       1.354  37.648  15.155  0.00  0.00    -0.081 Cl
ATOM     48  CE1 3MY d   1       3.751  34.831  13.670  0.00  0.00    -0.048 A 
ATOM     49  CD1 3MY d   1       4.973  35.489  13.665  0.00  0.00    -0.074 A 
ATOM     50  CG  3MY d   1       5.066  36.804  14.106  0.00  0.00    -0.054 A 
ATOM     51  CB  3MY d   1       6.288  37.457  14.084  0.00  0.00    -0.014 C 
ATOM     52  CA  3MY d   1       6.591  37.976  12.664  0.00  0.00     0.093 C 
ATOM     53  C   3MY d   1       5.572  38.993  12.107  0.00  0.00     0.241 C 
ATOM     54  O   3MY d   1       5.624  40.164  12.533  0.00  0.00    -0.271 OA
ATOM     55  N   3MY d   1       6.787  36.873  11.708  0.00  0.00    -0.345 N 
ATOM     56  H9  3MY d   1       4.028  38.499  14.921  0.00  0.00     0.087 H 
ATOM     57  H10 3MY d   1       3.668  33.810  13.314  0.00  0.00     0.087 H 
ATOM     58  H11 3MY d   1       5.861  34.974  13.315  0.00  0.00     0.084 H 
ATOM     59  H12 3MY d   1       7.079  36.757  14.391  0.00  0.00     0.043 H 
ATOM     60  H13 3MY d   1       6.258  38.306  14.782  0.00  0.00     0.043 H 
ATOM     61  H14 3MY d   1       7.550  38.510  12.736  0.00  0.00     0.088 H 
ATOM     62  H15 3MY d   1       6.116  36.133  11.648  0.00  0.00     0.163 HD
ATOM     63  N   3FG d   1       4.707  38.607  11.175  0.00  0.00    -0.342 N 
ATOM     64  OD1 3FG d   1       6.314  38.534   6.402  0.00  0.00    -0.308 OA
ATOM     65  CD1 3FG d   1       5.602  39.451   7.156  0.00  0.00     0.079 A 
ATOM     66  CG1 3FG d   1       5.034  39.078   8.372  0.00  0.00    -0.042 A 
ATOM     67  CZ  3FG d   1       5.567  40.784   6.757  0.00  0.00    -0.018 A 
ATOM     68  CD2 3FG d   1       4.985  41.744   7.571  0.00  0.00     0.069 A 
ATOM     69  CG2 3FG d   1       4.424  41.376   8.792  0.00  0.00    -0.042 A 
ATOM     70  CB  3FG d   1       4.456  40.036   9.188  0.00  0.00    -0.021 A 
ATOM     71  CA  3FG d   1       3.853  39.621  10.528  0.00  0.00     0.115 C 
ATOM     72  C   3FG d   1       2.392  39.212  10.339  0.00  0.00     0.246 C 
ATOM     73  O   3FG d   1       1.539  40.122  10.364  0.00  0.00    -0.271 OA
ATOM     74  N   3FG d   1      -2.356  35.472   3.009  0.00  0.00    -0.341 N 
ATOM     75  CD1 3FG d   1       1.281  37.243   1.609  0.00  0.00     0.080 A 
ATOM     76  CG1 3FG d   1      -0.020  37.183   2.053  0.00  0.00     0.019 A 
ATOM     77  CZ  3FG d   1       1.857  36.582   0.538  0.00  0.00    -0.018 A 
ATOM     78  CD2 3FG d   1       1.008  35.741  -0.170  0.00  0.00     0.069 A 
ATOM     79  CG2 3FG d   1      -0.330  35.619   0.223  0.00  0.00    -0.041 A 
ATOM     80  CB  3FG d   1      -0.842  36.329   1.315  0.00  0.00    -0.009 A 
ATOM     81  CA  3FG d   1      -2.310  36.164   1.709  0.00  0.00     0.123 C 
ATOM     82  H16 3FG d   1       4.636  37.644  10.916  0.00  0.00     0.163 HD
ATOM     83  H17 3FG d   1       5.044  38.038   8.679  0.00  0.00     0.088 H 
ATOM     84  H18 3FG d   1       5.997  41.073   5.805  0.00  0.00     0.092 H 
ATOM     85  H20 3FG d   1       3.966  42.123   9.430  0.00  0.00     0.088 H 
ATOM     86  H21 3FG d   1       3.854  40.503  11.185  0.00  0.00     0.095 H 
ATOM     87  H40 3FG d   1      -1.715  34.726   3.190  0.00  0.00     0.163 HD
ATOM     88  H42 3FG d   1       2.899  36.712   0.270  0.00  0.00     0.092 H 
ATOM     89  H44 3FG d   1      -0.986  34.958  -0.332  0.00  0.00     0.088 H 
ATOM     90  H45 3FG d   1      -2.766  37.158   1.823  0.00  0.00     0.097 H 
ATOM     91  N   OMX d   1      -3.556  36.338   6.271  0.00  0.00    -0.343 N 
ATOM     92  CA  OMX d   1      -2.955  35.346   5.372  0.00  0.00     0.118 C 
ATOM     93  C   OMX d   1      -3.232  35.820   3.945  0.00  0.00     0.244 C 
ATOM     94  O   OMX d   1      -4.242  36.523   3.723  0.00  0.00    -0.271 OA
ATOM     95  CB  OMX d   1      -3.601  34.024   5.724  0.00  0.00     0.089 C 
ATOM     96  CG  OMX d   1      -3.161  33.803   7.032  0.00  0.00    -0.027 A 
ATOM     97  CD1 OMX d   1      -1.899  33.242   7.213  0.00  0.00    -0.072 A 
ATOM     98  CD2 OMX d   1      -3.901  34.181   8.150  0.00  0.00    -0.072 A 
ATOM     99  CE1 OMX d   1      -1.388  33.028   8.490  0.00  0.00    -0.050 A 
ATOM    100  CE2 OMX d   1      -3.393  33.969   9.434  0.00  0.00    -0.050 A 
ATOM    101  CZ  OMX d   1      -2.130  33.400   9.608  0.00  0.00     0.076 A 
ATOM    102  OH  OMX d   1      -1.618  33.189  10.862  0.00  0.00    -0.308 OA
ATOM    103  H32 OMX d   1      -4.552  36.373   6.349  0.00  0.00     0.163 HD
ATOM    104  H33 OMX d   1      -1.868  35.277   5.529  0.00  0.00     0.092 H 
ATOM    105  H34 OMX d   1      -3.338  33.197   5.048  0.00  0.00     0.094 H 
ATOM    106  H36 OMX d   1      -1.307  32.968   6.347  0.00  0.00     0.084 H 
ATOM    107  H37 OMX d   1      -4.874  34.641   8.023  0.00  0.00     0.084 H 
ATOM    108  H38 OMX d   1      -0.412  32.572   8.614  0.00  0.00     0.087 H 
ATOM    109  H39 OMX d   1      -3.983  34.248  10.300  0.00  0.00     0.087 H 
ENDROOT
BRANCH  17 110
ATOM    110  O4  GHP d   1      -0.381  33.020  13.325  0.00  0.00    -0.312 OA
BRANCH 110 111
ATOM    111  C1  GCS d   1       0.545  32.001  13.465  0.00  0.00     0.159 C 
ATOM    112  C2  GCS d   1       0.188  31.204  14.716  0.00  0.00     0.087 C 
ATOM    113  C3  GCS d   1       1.205  30.100  14.863  0.00  0.00     0.086 C 
ATOM    114  H47 GHP d   1      -0.837  30.805  14.691  0.00  0.00     0.084 H 
ATOM    115  C4  GCS d   1       1.141  29.226  13.614  0.00  0.00     0.089 C 
ATOM    116  H48 GHP d   1       2.216  30.511  14.999  0.00  0.00     0.090 H 
ATOM    117  C5  GCS d   1       1.485  30.081  12.391  0.00  0.00     0.089 C 
ATOM    118  H49 GHP d   1       0.130  28.807  13.506  0.00  0.00     0.091 H 
ATOM    119  O5  GCS d   1       0.526  31.176  12.280  0.00  0.00    -0.349 OA
ATOM    120  H50 GHP d   1       2.497  30.495  12.513  0.00  0.00     0.090 H 
ATOM    121  H46 GHP d   1       1.551  32.429  13.585  0.00  0.00     0.133 H 
BRANCH 112 122
ATOM    122  N2  GCS d   1       0.379  32.196  15.781  0.00  0.00    -0.349 N 
ATOM    123  C   T55 d   1      -0.794  32.561  16.453  0.00  0.00     0.218 C 
ATOM    124  O   T55 d   1      -1.849  31.976  16.213  0.00  0.00    -0.274 OA
ATOM    125  H53 GHP d   1       1.274  32.580  16.008  0.00  0.00     0.163 HD
BRANCH 123 126
ATOM    126  CAL T55 d   1      -0.819  33.910  17.188  0.00  0.00     0.009 C 
ATOM    127  H71 GHP d   1      -1.322  33.834  18.163  0.00  0.00     0.047 H 
ATOM    128  H72 GHP d   1       0.193  34.317  17.328  0.00  0.00     0.047 H 
BRANCH 126 129
ATOM    129  CAK T55 d   1      -1.637  34.746  16.188  0.00  0.00    -0.057 C 
ATOM    130  H69 GHP d   1      -1.126  34.679  15.216  0.00  0.00     0.033 H 
ATOM    131  H70 GHP d   1      -2.631  34.280  16.113  0.00  0.00     0.033 H 
BRANCH 129 132
ATOM    132  CAJ T55 d   1      -1.855  36.222  16.479  0.00  0.00    -0.065 C 
ATOM    133  H67 GHP d   1      -2.369  36.360  17.442  0.00  0.00     0.033 H 
ATOM    134  H68 GHP d   1      -0.898  36.764  16.493  0.00  0.00     0.033 H 
BRANCH 132 135
ATOM    135  CAI T55 d   1      -2.735  36.697  15.317  0.00  0.00    -0.065 C 
ATOM    136  H65 GHP d   1      -3.692  36.155  15.330  0.00  0.00     0.033 H 
ATOM    137  H66 GHP d   1      -2.924  37.777  15.411  0.00  0.00     0.033 H 
BRANCH 135 138
ATOM    138  CAH T55 d   1      -1.999  36.413  14.011  0.00  0.00    -0.065 C 
ATOM    139  H63 GHP d   1      -1.077  37.011  13.984  0.00  0.00     0.033 H 
ATOM    140  H64 GHP d   1      -1.744  35.344  13.971  0.00  0.00     0.033 H 
BRANCH 138 141
ATOM    141  CAG T55 d   1      -2.859  36.767  12.787  0.00  0.00    -0.062 C 
ATOM    142  H61 GHP d   1      -2.297  36.501  11.879  0.00  0.00     0.033 H 
ATOM    143  H62 GHP d   1      -3.785  36.176  12.831  0.00  0.00     0.033 H 
BRANCH 141 144
ATOM    144  CAE T55 d   1      -3.231  38.233  12.707  0.00  0.00    -0.061 C 
ATOM    145  H60 GHP d   1      -3.732  38.568  13.627  0.00  0.00     0.038 H 
BRANCH 144 146
ATOM    146  CAD T55 d   1      -4.127  38.409  11.485  0.00  0.00    -0.073 C 
ATOM    147  H57 GHP d   1      -4.419  39.466  11.393  0.00  0.00     0.028 H 
ATOM    148  H58 GHP d   1      -5.028  37.788  11.598  0.00  0.00     0.028 H 
ATOM    149  H59 GHP d   1      -3.580  38.100  10.582  0.00  0.00     0.028 H 
ENDBRANCH 144 146
BRANCH 144 150
ATOM    150  CAF T55 d   1      -1.963  39.036  12.443  0.00  0.00    -0.073 C 
ATOM    151  H73 GHP d   1      -2.212  40.105  12.381  0.00  0.00     0.028 H 
ATOM    152  H74 GHP d   1      -1.513  38.709  11.494  0.00  0.00     0.028 H 
ATOM    153  H75 GHP d   1      -1.248  38.873  13.263  0.00  0.00     0.028 H 
ENDBRANCH 144 150
ENDBRANCH 141 144
ENDBRANCH 138 141
ENDBRANCH 135 138
ENDBRANCH 132 135
ENDBRANCH 129 132
ENDBRANCH 126 129
ENDBRANCH 123 126
ENDBRANCH 112 122
BRANCH 113 154
ATOM    154  O3  GCS d   1       0.817  29.311  15.994  0.00  0.00    -0.391 OA
ATOM    155  H54 GHP d   1       1.410  28.575  16.084  0.00  0.00     0.210 HD
ENDBRANCH 113 154
BRANCH 115 156
ATOM    156  O4  GCS d   1       2.091  28.171  13.717  0.00  0.00    -0.390 OA
ATOM    157  H55 GHP d   1       2.962  28.539  13.815  0.00  0.00     0.210 HD
ENDBRANCH 115 156
BRANCH 117 158
ATOM    158  C6  GCS d   1       1.440  29.230  11.116  0.00  0.00     0.043 C 
ATOM    159  H51 GHP d   1       2.159  28.402  11.201  0.00  0.00     0.078 H 
ATOM    160  H52 GHP d   1       1.699  29.854  10.248  0.00  0.00     0.078 H 
BRANCH 158 161
ATOM    161  O6  GCS d   1       0.120  28.702  10.949  0.00  0.00    -0.398 OA
ATOM    162  H56 GHP d   1      -0.500  29.418  10.877  0.00  0.00     0.209 HD
ENDBRANCH 158 161
ENDBRANCH 117 158
ENDBRANCH 110 111
ENDBRANCH  17 110
BRANCH  95 163
ATOM    163  OC  OMX d   1      -4.984  34.338   5.685  0.00  0.00    -0.388 OA
ATOM    164  H35 OMX d   1      -5.214  34.641   4.815  0.00  0.00     0.210 HD
ENDBRANCH  95 163
BRANCH  68 165
ATOM    165  OD2 3FG d   1       4.969  43.040   7.164  0.00  0.00    -0.361 OA
ATOM    166  H19 3FG d   1       4.540  43.572   7.823  0.00  0.00     0.217 HD
ENDBRANCH  68 165
BRANCH   1 167
ATOM    167  N   GHP d   1       9.481  35.272   9.857  0.00  0.00    -0.062 N 
ATOM    168  H1  GHP d   1       9.896  35.112  10.762  0.00  0.00     0.275 HD
ATOM    169  H2  GHP d   1       9.963  36.027   9.395  0.00  0.00     0.275 HD
ATOM    170  H3  GHP d   1       9.557  34.435   9.300  0.00  0.00     0.275 HD
ENDBRANCH   1 167
BRANCH  27 171
ATOM    171  O4  GHP d   1      -0.505  39.927   1.897  0.00  0.00    -0.360 OA
ATOM    172  H29 GHP d   1      -0.765  40.836   1.990  0.00  0.00     0.217 HD
ENDBRANCH  27 171
BRANCH  81 173
ATOM    173  C   3FG d   1      -3.076  35.408   0.615  0.00  0.00     0.201 C 
ATOM    174  O   3FG d   1      -3.493  36.094  -0.345  0.00  0.00    -0.646 OA
ATOM    175  OXT 3FG d   1      -3.237  34.176   0.767  0.00  0.00    -0.646 OA
ENDBRANCH  81 173
BRANCH  75 176
ATOM    176  OD1 3FG d   1       2.115  38.056   2.352  0.00  0.00    -0.360 OA
ATOM    177  H41 3FG d   1       1.782  38.946   2.340  0.00  0.00     0.217 HD
ENDBRANCH  75 176
BRANCH   7 178
ATOM    178  O4  GHP d   1       5.771  36.354   4.907  0.00  0.00    -0.358 OA
ATOM    179  H7  GHP d   1       5.646  37.280   4.737  0.00  0.00     0.217 HD
ENDBRANCH   7 178
BRANCH  78 180
ATOM    180  OD2 3FG d   1       1.489  35.041  -1.235  0.00  0.00    -0.361 OA
ATOM    181  H43 3FG d   1       0.791  34.516  -1.609  0.00  0.00     0.217 HD
ENDBRANCH  78 180
TORSDOF 24
