REMARK  15 active torsions:
REMARK  status: ('A' for Active; 'I' for Inactive)
REMARK    1  A    between atoms: C6_6  and  N6_7 
REMARK    2  A    between atoms: C1'_13  and  N9_10 
REMARK    3  A    between atoms: O3A_26  and  PA_11 
REMARK    4  A    between atoms: PA_11  and  O5'_34 
REMARK    5  A    between atoms: PB_12  and  O3A_26 
REMARK    6  A    between atoms: O5D_36  and  PB_12 
REMARK    7  A    between atoms: C1D_16  and  O1D_17 
REMARK    8  A    between atoms: C2'_18  and  O2'_19 
REMARK    9  A    between atoms: C2D_22  and  O2D_23 
REMARK   10  A    between atoms: C3'_24  and  O3'_25 
REMARK   11  A    between atoms: C3D_27  and  O3D_28 
REMARK   12  A    between atoms: C5'_33  and  C4'_29 
REMARK   13  A    between atoms: C5D_35  and  C4D_31 
REMARK   14  A    between atoms: O5'_34  and  C5'_33 
REMARK   15  A    between atoms: C5D_35  and  O5D_36 
ROOT
ATOM      1  C5' AR6 d   1      19.012   0.230  12.108  0.00  0.00     0.058 C 
ATOM      2  H18 AR6 d   1      18.051   0.751  11.986  0.00  0.00     0.079 H 
ATOM      3  H19 AR6 d   1      18.840  -0.755  12.567  0.00  0.00     0.079 H 
ENDROOT
BRANCH   1   4
ATOM      4  C4' AR6 d   1      19.977   1.101  13.056  0.00  0.00     0.089 C 
ATOM      5  C3' AR6 d   1      20.633   2.363  12.455  0.00  0.00     0.091 C 
ATOM      6  C2' AR6 d   1      22.131   2.101  12.643  0.00  0.00     0.105 C 
ATOM      7  H12 AR6 d   1      20.360   2.529  11.402  0.00  0.00     0.091 H 
ATOM      8  C1' AR6 d   1      22.156   1.210  13.878  0.00  0.00     0.139 C 
ATOM      9  H8  AR6 d   1      22.582   1.609  11.768  0.00  0.00     0.093 H 
ATOM     10  O4' AR6 d   1      21.124   0.307  13.610  0.00  0.00    -0.353 OA
ATOM     11  H5  AR6 d   1      22.091   1.780  14.816  0.00  0.00     0.122 H 
ATOM     12  H16 AR6 d   1      19.348   1.430  13.896  0.00  0.00     0.090 H 
BRANCH   5  13
ATOM     13  O3' AR6 d   1      20.260   3.466  13.283  0.00  0.00    -0.390 OA
ATOM     14  H13 AR6 d   1      19.332   3.641  13.177  0.00  0.00     0.210 HD
ENDBRANCH   5  13
BRANCH   6  15
ATOM     15  O2' AR6 d   1      22.790   3.344  12.924  0.00  0.00    -0.388 OA
ATOM     16  H9  AR6 d   1      22.343   3.784  13.637  0.00  0.00     0.210 HD
ENDBRANCH   6  15
BRANCH   8  17
ATOM     17  N9  AR6 d   1      23.182   0.210  13.866  0.00  0.00    -0.294 N 
ATOM     18  C4  AR6 d   1      23.693  -0.396  14.938  0.00  0.00     0.167 A 
ATOM     19  N3  AR6 d   1      23.485  -0.290  16.280  0.00  0.00    -0.222 NA
ATOM     20  C5  AR6 d   1      24.647  -1.283  14.452  0.00  0.00     0.149 A 
ATOM     21  C2  AR6 d   1      24.193  -1.049  17.120  0.00  0.00     0.091 A 
ATOM     22  N1  AR6 d   1      25.104  -1.913  16.672  0.00  0.00    -0.222 NA
ATOM     23  H1  AR6 d   1      24.024  -0.961  18.187  0.00  0.00     0.146 H 
ATOM     24  C6  AR6 d   1      25.351  -2.035  15.350  0.00  0.00     0.155 A 
ATOM     25  N7  AR6 d   1      24.684  -1.218  13.126  0.00  0.00    -0.236 NA
ATOM     26  C8  AR6 d   1      23.779  -0.292  12.772  0.00  0.00     0.071 A 
ATOM     27  H4  AR6 d   1      23.561   0.008  11.748  0.00  0.00     0.144 H 
BRANCH  24  28
ATOM     28  N6  AR6 d   1      26.248  -2.878  14.857  0.00  0.00    -0.382 N 
ATOM     29  H2  AR6 d   1      26.399  -2.933  13.839  0.00  0.00     0.157 HD
ATOM     30  H3  AR6 d   1      26.794  -3.478  15.492  0.00  0.00     0.157 HD
ENDBRANCH  24  28
ENDBRANCH   8  17
ENDBRANCH   1   4
BRANCH   1  31
ATOM     31  O5' AR6 d   1      19.623   0.059  10.835  0.00  0.00    -0.287 OA
BRANCH  31  32
ATOM     32  PA  AR6 d   1      19.094  -0.954   9.709  0.00  0.00     0.417 P 
ATOM     33  O1A AR6 d   1      20.105  -2.055   9.775  0.00  0.00    -0.624 OA
ATOM     34  O2A AR6 d   1      18.875  -0.206   8.436  0.00  0.00    -0.624 OA
BRANCH  32  35
ATOM     35  O3A AR6 d   1      17.717  -1.532  10.203  0.00  0.00    -0.180 OA
BRANCH  35  36
ATOM     36  PB  AR6 d   1      16.359  -0.749  10.086  0.00  0.00     0.417 P 
ATOM     37  O1B AR6 d   1      15.605  -1.126  11.293  0.00  0.00    -0.624 OA
ATOM     38  O2B AR6 d   1      16.505   0.677   9.695  0.00  0.00    -0.624 OA
BRANCH  36  39
ATOM     39  O5D AR6 d   1      15.626  -1.457   8.930  0.00  0.00    -0.287 OA
BRANCH  39  40
ATOM     40  C5D AR6 d   1      16.424  -1.766   7.826  0.00  0.00     0.058 C 
ATOM     41  H20 AR6 d   1      15.978  -1.343   6.914  0.00  0.00     0.079 H 
ATOM     42  H21 AR6 d   1      17.433  -1.351   7.968  0.00  0.00     0.079 H 
BRANCH  40  43
ATOM     43  C4D AR6 d   1      16.502  -3.283   7.707  0.00  0.00     0.090 C 
ATOM     44  C3D AR6 d   1      16.969  -3.772   6.329  0.00  0.00     0.092 C 
ATOM     45  C2D AR6 d   1      15.743  -3.536   5.459  0.00  0.00     0.110 C 
ATOM     46  H14 AR6 d   1      17.846  -3.221   5.958  0.00  0.00     0.091 H 
ATOM     47  C1D AR6 d   1      14.569  -3.593   6.450  0.00  0.00     0.156 C 
ATOM     48  H10 AR6 d   1      15.789  -2.556   4.961  0.00  0.00     0.094 H 
ATOM     49  O4D AR6 d   1      15.137  -3.767   7.784  0.00  0.00    -0.349 OA
ATOM     50  H6  AR6 d   1      13.947  -2.688   6.379  0.00  0.00     0.133 H 
ATOM     51  H17 AR6 d   1      17.138  -3.695   8.504  0.00  0.00     0.090 H 
BRANCH  44  52
ATOM     52  O3D AR6 d   1      17.259  -5.170   6.454  0.00  0.00    -0.390 OA
ATOM     53  H15 AR6 d   1      17.424  -5.536   5.593  0.00  0.00     0.210 HD
ENDBRANCH  44  52
BRANCH  45  54
ATOM     54  O2D AR6 d   1      15.647  -4.572   4.480  0.00  0.00    -0.388 OA
ATOM     55  H11 AR6 d   1      15.657  -5.417   4.913  0.00  0.00     0.210 HD
ENDBRANCH  45  54
BRANCH  47  56
ATOM     56  O1D AR6 d   1      13.814  -4.759   6.229  0.00  0.00    -0.369 OA
ATOM     57  H7  AR6 d   1      14.384  -5.518   6.274  0.00  0.00     0.212 HD
ENDBRANCH  47  56
ENDBRANCH  40  43
ENDBRANCH  39  40
ENDBRANCH  36  39
ENDBRANCH  35  36
ENDBRANCH  32  35
ENDBRANCH  31  32
ENDBRANCH   1  31
TORSDOF 15
