REMARK  12 active torsions:
REMARK  status: ('A' for Active; 'I' for Inactive)
REMARK    1  A    between atoms: C2_2  and  C5_4 
REMARK    2  A    between atoms: C5_4  and  C8_5 
REMARK    3  A    between atoms: C17_11  and  C22_14 
REMARK    4  A    between atoms: C22_14  and  C25_15 
REMARK    5  A    between atoms: C27_16  and  O68_35 
REMARK    6  A    between atoms: C29_17  and  N40_23 
REMARK    7  A    between atoms: N40_23  and  C42_24 
REMARK    8  A    between atoms: C42_24  and  C45_25 
REMARK    9  A    between atoms: C48_27  and  C55_31 
REMARK   10  A    between atoms: C55_31  and  C56_32 
REMARK   11  A    between atoms: C55_31  and  C60_33 
REMARK   12  A    between atoms: C55_31  and  C64_34 
ROOT
ATOM      1  C25 0GT d   1      29.481  71.799  18.595  0.00  0.00    -0.011 C 
ATOM      2  C27 0GT d   1      28.755  70.474  18.184  0.00  0.00     0.068 C 
ATOM      3  C29 0GT d   1      29.639  69.529  17.304  0.00  0.00     0.139 C 
ATOM      4  C31 0GT d   1      30.176  70.162  15.990  0.00  0.00     0.058 C 
ATOM      5  S34 0GT d   1      31.156  71.608  16.404  0.00  0.00     0.147 S 
ATOM      6  C35 0GT d   1      29.953  72.570  17.321  0.00  0.00     0.035 C 
ATOM      7  O38 0GT d   1      32.243  71.226  17.286  0.00  0.00    -0.228 OA
ATOM      8  O39 0GT d   1      31.439  72.335  15.180  0.00  0.00    -0.228 OA
ATOM      9  H11 0GT d   1      30.376  71.525  19.172  0.00  0.00     0.045 H 
ATOM     10  H12 0GT d   1      27.842  70.732  17.627  0.00  0.00     0.086 H 
ATOM     11  H13 0GT d   1      30.533  69.322  17.910  0.00  0.00     0.089 H 
ATOM     12  H14 0GT d   1      29.332  70.458  15.350  0.00  0.00     0.059 H 
ATOM     13  H15 0GT d   1      30.802  69.431  15.456  0.00  0.00     0.059 H 
ATOM     14  H16 0GT d   1      30.410  73.523  17.625  0.00  0.00     0.056 H 
ATOM     15  H17 0GT d   1      29.084  72.769  16.677  0.00  0.00     0.056 H 
ENDROOT
BRANCH   3  16
ATOM     16  N40 0GT d   1      28.989  68.209  17.076  0.00  0.00    -0.064 N 
ATOM     17  H18 0GT d   1      28.207  68.377  16.463  0.00  0.00     0.278 HD
ATOM     18  H19 0GT d   1      28.651  67.897  17.973  0.00  0.00     0.278 HD
BRANCH  16  19
ATOM     19  C42 0GT d   1      29.751  67.067  16.489  0.00  0.00     0.106 C 
ATOM     20  H20 0GT d   1      30.090  67.331  15.476  0.00  0.00     0.083 H 
ATOM     21  H21 0GT d   1      29.105  66.178  16.440  0.00  0.00     0.083 H 
BRANCH  19  22
ATOM     22  C45 0GT d   1      30.969  66.770  17.379  0.00  0.00    -0.032 A 
ATOM     23  C46 0GT d   1      30.762  66.293  18.692  0.00  0.00    -0.069 A 
ATOM     24  C48 0GT d   1      31.827  65.999  19.588  0.00  0.00    -0.050 A 
ATOM     25  H22 0GT d   1      29.744  66.144  19.033  0.00  0.00     0.085 H 
ATOM     26  C49 0GT d   1      33.149  66.211  19.091  0.00  0.00    -0.076 A 
ATOM     27  C51 0GT d   1      33.385  66.687  17.775  0.00  0.00    -0.082 A 
ATOM     28  H23 0GT d   1      33.995  66.003  19.736  0.00  0.00     0.084 H 
ATOM     29  C53 0GT d   1      32.296  66.967  16.915  0.00  0.00    -0.075 A 
ATOM     30  H24 0GT d   1      34.401  66.836  17.428  0.00  0.00     0.083 H 
ATOM     31  H25 0GT d   1      32.474  67.329  15.909  0.00  0.00     0.084 H 
BRANCH  24  32
ATOM     32  C55 0GT d   1      31.468  65.481  21.028  0.00  0.00    -0.024 C 
BRANCH  32  33
ATOM     33  C56 0GT d   1      32.694  64.883  21.791  0.00  0.00    -0.066 C 
ATOM     34  H26 0GT d   1      32.375  64.541  22.787  0.00  0.00     0.028 H 
ATOM     35  H27 0GT d   1      33.470  65.655  21.900  0.00  0.00     0.028 H 
ATOM     36  H28 0GT d   1      33.100  64.032  21.224  0.00  0.00     0.028 H 
ENDBRANCH  32  33
BRANCH  32  37
ATOM     37  C60 0GT d   1      30.915  66.634  21.923  0.00  0.00    -0.066 C 
ATOM     38  H29 0GT d   1      30.045  67.094  21.432  0.00  0.00     0.028 H 
ATOM     39  H30 0GT d   1      31.698  67.393  22.069  0.00  0.00     0.028 H 
ATOM     40  H31 0GT d   1      30.612  66.227  22.899  0.00  0.00     0.028 H 
ENDBRANCH  32  37
BRANCH  32  41
ATOM     41  C64 0GT d   1      30.360  64.379  20.976  0.00  0.00    -0.066 C 
ATOM     42  H32 0GT d   1      30.706  63.541  20.353  0.00  0.00     0.028 H 
ATOM     43  H33 0GT d   1      29.442  64.803  20.544  0.00  0.00     0.028 H 
ATOM     44  H34 0GT d   1      30.154  64.018  21.994  0.00  0.00     0.028 H 
ENDBRANCH  32  41
ENDBRANCH  24  32
ENDBRANCH  19  22
ENDBRANCH  16  19
ENDBRANCH   3  16
BRANCH   2  45
ATOM     45  O68 0GT d   1      28.412  69.740  19.376  0.00  0.00    -0.393 OA
ATOM     46  H35 0GT d   1      27.873  70.284  19.938  0.00  0.00     0.210 HD
ENDBRANCH   2  45
BRANCH   1  47
ATOM     47  C22 0GT d   1      28.585  72.698  19.518  0.00  0.00    -0.034 C 
ATOM     48  H9  0GT d   1      27.667  72.964  18.974  0.00  0.00     0.040 H 
ATOM     49  H10 0GT d   1      28.323  72.131  20.423  0.00  0.00     0.040 H 
BRANCH  47  50
ATOM     50  C17 0GT d   1      29.313  73.989  19.931  0.00  0.00    -0.057 A 
ATOM     51  C15 0GT d   1      28.852  75.225  19.406  0.00  0.00    -0.064 A 
ATOM     52  C14 0GT d   1      29.540  76.397  19.779  0.00  0.00    -0.001 A 
ATOM     53  H6  0GT d   1      27.998  75.266  18.739  0.00  0.00     0.085 H 
ATOM     54  C8  0GT d   1      29.406  77.865  19.468  0.00  0.00    -0.025 A 
ATOM     55  C13 0GT d   1      30.640  76.363  20.639  0.00  0.00     0.043 A 
ATOM     56  C9  0GT d   1      30.394  78.484  20.141  0.00  0.00    -0.015 A 
ATOM     57  N11 0GT d   1      31.101  77.614  20.818  0.00  0.00    -0.365 N 
ATOM     58  H4  0GT d   1      30.579  79.557  20.125  0.00  0.00     0.112 H 
ATOM     59  H5  0GT d   1      31.907  77.857  21.412  0.00  0.00     0.165 HD
ATOM     60  C20 0GT d   1      31.113  75.146  21.179  0.00  0.00    -0.056 A 
ATOM     61  C18 0GT d   1      30.433  73.953  20.814  0.00  0.00    -0.075 A 
ATOM     62  H8  0GT d   1      31.965  75.123  21.849  0.00  0.00     0.087 H 
ATOM     63  H7  0GT d   1      30.770  73.003  21.212  0.00  0.00     0.084 H 
BRANCH  54  64
ATOM     64  C5  0GT d   1      28.365  78.497  18.577  0.00  0.00     0.016 C 
ATOM     65  H2  0GT d   1      27.366  78.254  18.969  0.00  0.00     0.048 H 
ATOM     66  H3  0GT d   1      28.506  79.588  18.584  0.00  0.00     0.048 H 
BRANCH  64  67
ATOM     67  C2  0GT d   1      28.468  77.988  17.119  0.00  0.00     0.212 C 
ATOM     68  F1  0GT d   1      27.278  78.181  16.487  0.00  0.00    -0.214 F 
ATOM     69  F4  0GT d   1      29.456  78.644  16.451  0.00  0.00    -0.214 F 
ATOM     70  H1  0GT d   1      28.700  76.913  17.131  0.00  0.00     0.145 H 
ENDBRANCH  64  67
ENDBRANCH  54  64
ENDBRANCH  47  50
ENDBRANCH   1  47
TORSDOF 12
