REMARK  6 active torsions:
REMARK  status: ('A' for Active; 'I' for Inactive)
REMARK    1  A    between atoms: C5_5  and  O17_11 
REMARK    2  A    between atoms: N8_7  and  C11_10 
REMARK    3  A    between atoms: O17_11  and  C18_12 
REMARK    4  A    between atoms: C21_15  and  N27_18 
REMARK       I    between atoms: N27_18  and  C28_19 
REMARK       I    between atoms: C28_19  and  N29_20 
REMARK    5  A    between atoms: N29_20  and  C30_21 
REMARK    6  A    between atoms: C38_27  and  C44_29 
ROOT
ATOM      1  C18 42Q d   1     -23.289  -1.209 -12.827  0.00  0.00     0.081 A 
ATOM      2  C19 42Q d   1     -23.163  -1.830 -11.521  0.00  0.00    -0.048 A 
ATOM      3  C20 42Q d   1     -24.306  -2.419 -10.889  0.00  0.00    -0.051 A 
ATOM      4  C21 42Q d   1     -25.580  -2.378 -11.567  0.00  0.00     0.075 A 
ATOM      5  C22 42Q d   1     -25.694  -1.752 -12.858  0.00  0.00     0.145 A 
ATOM      6  C23 42Q d   1     -24.582  -1.169 -13.498  0.00  0.00    -0.011 A 
ATOM      7  F34 42Q d   1     -26.909  -1.763 -13.412  0.00  0.00    -0.204 F 
ATOM      8  H7  42Q d   1     -22.201  -1.848 -11.022  0.00  0.00     0.087 H 
ATOM      9  H8  42Q d   1     -24.216  -2.889  -9.916  0.00  0.00     0.087 H 
ATOM     10  H9  42Q d   1     -24.686  -0.700 -14.470  0.00  0.00     0.092 H 
ENDROOT
BRANCH   4  11
ATOM     11  N27 42Q d   1     -26.679  -2.951 -11.004  0.00  0.00    -0.306 N 
ATOM     12  C28 42Q d   1     -26.974  -2.778  -9.705  0.00  0.00     0.325 C 
ATOM     13  N29 42Q d   1     -28.075  -3.503  -9.294  0.00  0.00    -0.309 N 
ATOM     14  O31 42Q d   1     -26.322  -2.040  -8.963  0.00  0.00    -0.247 OA
ATOM     15  H11 42Q d   1     -28.593  -3.996  -9.993  0.00  0.00     0.170 HD
ATOM     16  H10 42Q d   1     -27.281  -3.514 -11.571  0.00  0.00     0.171 HD
BRANCH  13  17
ATOM     17  C30 42Q d   1     -28.516  -3.597  -7.981  0.00  0.00     0.037 A 
ATOM     18  C35 42Q d   1     -29.382  -4.708  -7.621  0.00  0.00    -0.057 A 
ATOM     19  C36 42Q d   1     -29.910  -4.840  -6.285  0.00  0.00    -0.080 A 
ATOM     20  H12 42Q d   1     -29.635  -5.450  -8.370  0.00  0.00     0.086 H 
ATOM     21  C37 42Q d   1     -29.576  -3.865  -5.296  0.00  0.00    -0.068 A 
ATOM     22  H13 42Q d   1     -30.556  -5.673  -6.033  0.00  0.00     0.083 H 
ATOM     23  C38 42Q d   1     -28.700  -2.736  -5.629  0.00  0.00     0.050 A 
ATOM     24  H14 42Q d   1     -29.973  -3.960  -4.292  0.00  0.00     0.084 H 
ATOM     25  C39 42Q d   1     -28.169  -2.605  -6.988  0.00  0.00    -0.043 A 
ATOM     26  H15 42Q d   1     -27.523  -1.774  -7.246  0.00  0.00     0.088 H 
BRANCH  23  27
ATOM     27  C44 42Q d   1     -28.319  -1.697  -4.540  0.00  0.00     0.417 C 
ATOM     28  F45 42Q d   1     -28.814  -0.538  -4.904  0.00  0.00    -0.166 F 
ATOM     29  F46 42Q d   1     -26.999  -1.649  -4.465  0.00  0.00    -0.166 F 
ATOM     30  F47 42Q d   1     -28.828  -2.077  -3.396  0.00  0.00    -0.166 F 
ENDBRANCH  23  27
ENDBRANCH  13  17
ENDBRANCH   4  11
BRANCH   1  31
ATOM     31  O17 42Q d   1     -22.130  -0.760 -13.481  0.00  0.00    -0.290 OA
BRANCH  31  32
ATOM     32  C5  42Q d   1     -22.018   0.626 -13.641  0.00  0.00     0.201 A 
ATOM     33  N4  42Q d   1     -23.122   1.497 -13.487  0.00  0.00    -0.215 NA
ATOM     34  C3  42Q d   1     -22.985   2.890 -13.692  0.00  0.00     0.090 A 
ATOM     35  N2  42Q d   1     -21.727   3.478 -14.057  0.00  0.00    -0.240 NA
ATOM     36  H1  42Q d   1     -23.852   3.530 -13.570  0.00  0.00     0.146 H 
ATOM     37  C1  42Q d   1     -20.678   2.539 -14.185  0.00  0.00     0.090 A 
ATOM     38  C6  42Q d   1     -20.798   1.144 -13.982  0.00  0.00     0.117 A 
ATOM     39  C10 42Q d   1     -19.354   2.817 -14.513  0.00  0.00    -0.038 A 
ATOM     40  N8  42Q d   1     -19.529   0.586 -14.197  0.00  0.00    -0.356 N 
ATOM     41  C9  42Q d   1     -18.696   1.611 -14.509  0.00  0.00    -0.018 A 
ATOM     42  H2  42Q d   1     -17.636   1.492 -14.729  0.00  0.00     0.111 H 
ATOM     43  H3  42Q d   1     -18.926   3.795 -14.729  0.00  0.00     0.089 H 
BRANCH  40  44
ATOM     44  C11 42Q d   1     -19.169  -0.834 -14.103  0.00  0.00    -0.014 C 
ATOM     45  H4  42Q d   1     -20.059  -1.421 -13.832  0.00  0.00     0.057 H 
ATOM     46  H5  42Q d   1     -18.395  -0.966 -13.333  0.00  0.00     0.057 H 
ATOM     47  H6  42Q d   1     -18.784  -1.180 -15.073  0.00  0.00     0.057 H 
ENDBRANCH  40  44
ENDBRANCH  31  32
ENDBRANCH   1  31
TORSDOF 6
