REMARK  5 active torsions:
REMARK  status: ('A' for Active; 'I' for Inactive)
REMARK    1  A    between atoms: C5_3  and  C10_10 
REMARK    2  A    between atoms: C2_4  and  C11_11 
REMARK    3  A    between atoms: C16_16  and  C17_17 
REMARK    4  A    between atoms: S61_29  and  C16_16 
REMARK    5  A    between atoms: C22_22  and  S61_29 
ROOT
ATOM      1  C8  SNL d   1      20.406  11.141  -0.749  0.00  0.00    -0.034 C 
ATOM      2  C4  SNL d   1      17.359  13.288  -0.194  0.00  0.00    -0.055 C 
ATOM      3  C5  SNL d   1      18.759  12.937  -0.675  0.00  0.00    -0.008 C 
ATOM      4  C2  SNL d   1      18.313  16.281   2.104  0.00  0.00    -0.016 C 
ATOM      5  C6  SNL d   1      19.655  12.991   0.553  0.00  0.00    -0.039 C 
ATOM      6  C1  SNL d   1      16.906  16.519   2.623  0.00  0.00    -0.048 C 
ATOM      7  C3  SNL d   1      17.346  14.682   0.402  0.00  0.00    -0.059 C 
ATOM      8  C7  SNL d   1      20.911  12.248   0.159  0.00  0.00    -0.058 C 
ATOM      9  C9  SNL d   1      18.973  11.499  -1.129  0.00  0.00     0.079 C 
ATOM     10  C12 SNL d   1      16.824  17.824   3.391  0.00  0.00    -0.005 C 
ATOM     11  C13 SNL d   1      17.943  10.556  -0.540  0.00  0.00    -0.026 C 
ATOM     12  C14 SNL d   1      16.954  10.323  -1.641  0.00  0.00     0.018 C 
ATOM     13  C15 SNL d   1      17.671  10.822  -2.847  0.00  0.00     0.259 C 
ATOM     14  C18 SNL d   1      17.807  17.804   4.513  0.00  0.00     0.149 C 
ATOM     15  C19 SNL d   1      19.128  17.170   4.311  0.00  0.00    -0.036 C 
ATOM     16  C20 SNL d   1      19.329  16.463   3.189  0.00  0.00    -0.067 C 
ATOM     17  C21 SNL d   1      20.678  15.851   2.993  0.00  0.00    -0.031 C 
ATOM     18  C22 SNL d   1      20.681  14.460   2.375  0.00  0.00     0.006 C 
ATOM     19  C23 SNL d   1      19.757  14.382   1.165  0.00  0.00    -0.033 C 
ATOM     20  C24 SNL d   1      18.346  14.847   1.551  0.00  0.00    -0.038 C 
ATOM     21  O57 SNL d   1      17.245  10.761  -3.980  0.00  0.00    -0.265 OA
ATOM     22  O58 SNL d   1      18.875  11.350  -2.530  0.00  0.00    -0.309 OA
ATOM     23  O60 SNL d   1      17.568  18.357   5.573  0.00  0.00    -0.293 OA
ATOM     24  H1  SNL d   1      20.427  10.178  -0.219  0.00  0.00     0.037 H 
ATOM     25  H2  SNL d   1      21.032  11.077  -1.651  0.00  0.00     0.037 H 
ATOM     26  H3  SNL d   1      17.045  12.563   0.571  0.00  0.00     0.034 H 
ATOM     27  H4  SNL d   1      16.662  13.250  -1.044  0.00  0.00     0.034 H 
ATOM     28  H5  SNL d   1      19.176  12.382   1.334  0.00  0.00     0.042 H 
ATOM     29  H6  SNL d   1      16.623  15.691   3.290  0.00  0.00     0.035 H 
ATOM     30  H7  SNL d   1      16.210  16.558   1.772  0.00  0.00     0.035 H 
ATOM     31  H8  SNL d   1      16.336  14.892   0.783  0.00  0.00     0.033 H 
ATOM     32  H9  SNL d   1      17.597  15.404  -0.389  0.00  0.00     0.033 H 
ATOM     33  H10 SNL d   1      21.606  12.910  -0.379  0.00  0.00     0.033 H 
ATOM     34  H11 SNL d   1      21.413  11.831   1.044  0.00  0.00     0.033 H 
ATOM     35  H18 SNL d   1      15.809  17.948   3.796  0.00  0.00     0.044 H 
ATOM     36  H19 SNL d   1      17.055  18.662   2.716  0.00  0.00     0.044 H 
ATOM     37  H20 SNL d   1      17.451  11.015   0.330  0.00  0.00     0.038 H 
ATOM     38  H21 SNL d   1      18.414   9.609  -0.237  0.00  0.00     0.038 H 
ATOM     39  H22 SNL d   1      16.029  10.892  -1.468  0.00  0.00     0.048 H 
ATOM     40  H23 SNL d   1      16.715   9.254  -1.738  0.00  0.00     0.048 H 
ATOM     41  H27 SNL d   1      19.917  17.274   5.054  0.00  0.00     0.089 H 
ATOM     42  H28 SNL d   1      21.167  15.787   3.976  0.00  0.00     0.041 H 
ATOM     43  H29 SNL d   1      21.260  16.515   2.337  0.00  0.00     0.041 H 
ATOM     44  H30 SNL d   1      21.701  14.209   2.049  0.00  0.00     0.058 H 
ATOM     45  H31 SNL d   1      20.155  15.062   0.397  0.00  0.00     0.043 H 
ATOM     46  H32 SNL d   1      18.011  14.186   2.364  0.00  0.00     0.042 H 
ENDROOT
BRANCH   3  47
ATOM     47  C10 SNL d   1      19.193  13.880  -1.806  0.00  0.00    -0.066 C 
ATOM     48  H12 SNL d   1      19.044  14.923  -1.491  0.00  0.00     0.028 H 
ATOM     49  H13 SNL d   1      18.590  13.678  -2.704  0.00  0.00     0.028 H 
ATOM     50  H14 SNL d   1      20.256  13.714  -2.034  0.00  0.00     0.028 H 
ENDBRANCH   3  47
BRANCH  18  51
ATOM     51  S61 SNL d   1      20.168  13.311   3.674  0.00  0.00    -0.087 SA
BRANCH  51  52
ATOM     52  C16 SNL d   1      21.598  13.135   4.709  0.00  0.00     0.182 C 
ATOM     53  O59 SNL d   1      22.582  13.856   4.672  0.00  0.00    -0.286 OA
BRANCH  52  54
ATOM     54  C17 SNL d   1      21.509  12.023   5.700  0.00  0.00    -0.011 C 
ATOM     55  H24 SNL d   1      22.433  11.988   6.295  0.00  0.00     0.038 H 
ATOM     56  H25 SNL d   1      21.378  11.069   5.169  0.00  0.00     0.038 H 
ATOM     57  H26 SNL d   1      20.650  12.193   6.366  0.00  0.00     0.038 H 
ENDBRANCH  52  54
ENDBRANCH  51  52
ENDBRANCH  18  51
BRANCH   4  58
ATOM     58  C11 SNL d   1      18.660  17.323   1.051  0.00  0.00    -0.065 C 
ATOM     59  H15 SNL d   1      19.680  17.144   0.680  0.00  0.00     0.028 H 
ATOM     60  H16 SNL d   1      18.603  18.327   1.496  0.00  0.00     0.028 H 
ATOM     61  H17 SNL d   1      17.948  17.251   0.215  0.00  0.00     0.028 H 
ENDBRANCH   4  58
TORSDOF 5
