REMARK  2 active torsions:
REMARK  status: ('A' for Active; 'I' for Inactive)
REMARK    1  A    between atoms: C4_4  and  C12_12 
REMARK    2  A    between atoms: C13_13  and  C21_21 
ROOT
ATOM      1  C12 LD1 d   1      -4.168  16.049  -5.068  0.00  0.00     0.084 C 
ATOM      2  C13 LD1 d   1      -4.172  16.874  -3.787  0.00  0.00     0.068 C 
ATOM      3  S14 LD1 d   1      -5.605  16.557  -2.698  0.00  0.00    -0.072 SA
ATOM      4  C15 LD1 d   1      -5.834  14.880  -3.038  0.00  0.00     0.212 A 
ATOM      5  N16 LD1 d   1      -5.386  14.326  -4.194  0.00  0.00    -0.200 N 
ATOM      6  N17 LD1 d   1      -4.717  14.884  -5.218  0.00  0.00    -0.167 NA
ATOM      7  N18 LD1 d   1      -6.445  13.990  -2.298  0.00  0.00    -0.121 NA
ATOM      8  N19 LD1 d   1      -6.396  12.801  -2.986  0.00  0.00    -0.141 NA
ATOM      9  C20 LD1 d   1      -5.760  13.018  -4.118  0.00  0.00     0.112 A 
ATOM     10  H7  LD1 d   1      -4.281  17.921  -4.107  0.00  0.00     0.074 H 
ATOM     11  H8  LD1 d   1      -5.562  12.265  -4.880  0.00  0.00     0.149 H 
ENDROOT
BRANCH   1  12
ATOM     12  C4  LD1 d   1      -3.375  16.553  -6.207  0.00  0.00    -0.006 A 
ATOM     13  C3  LD1 d   1      -3.302  15.767  -7.337  0.00  0.00    -0.042 A 
ATOM     14  C2  LD1 d   1      -2.536  16.209  -8.392  0.00  0.00     0.069 A 
ATOM     15  H1  LD1 d   1      -3.834  14.824  -7.394  0.00  0.00     0.088 H 
ATOM     16  C1  LD1 d   1      -1.847  17.396  -8.303  0.00  0.00     0.096 A 
ATOM     17  N10 LD1 d   1      -2.435  15.453  -9.560  0.00  0.00    -0.323 N 
ATOM     18  C6  LD1 d   1      -1.916  18.185  -7.178  0.00  0.00    -0.048 A 
ATOM     19  O7  LD1 d   1      -1.081  17.815  -9.364  0.00  0.00    -0.340 OA
ATOM     20  C5  LD1 d   1      -2.689  17.749  -6.129  0.00  0.00    -0.068 A 
ATOM     21  H3  LD1 d   1      -1.376  19.123  -7.121  0.00  0.00     0.087 H 
ATOM     22  H2  LD1 d   1      -2.761  18.351  -5.230  0.00  0.00     0.085 H 
ATOM     23  C8  LD1 d   1      -0.422  16.709  -9.999  0.00  0.00     0.100 C 
ATOM     24  C9  LD1 d   1      -1.408  15.657 -10.436  0.00  0.00     0.246 C 
ATOM     25  H4  LD1 d   1       0.288  16.260  -9.289  0.00  0.00     0.089 H 
ATOM     26  H5  LD1 d   1       0.123  17.076 -10.881  0.00  0.00     0.089 H 
ATOM     27  O11 LD1 d   1      -1.280  15.015 -11.469  0.00  0.00    -0.271 OA
ATOM     28  H6  LD1 d   1      -3.122  14.754  -9.758  0.00  0.00     0.169 HD
ENDBRANCH   1  12
BRANCH   2  29
ATOM     29  C21 LD1 d   1      -2.835  16.796  -3.088  0.00  0.00    -0.038 A 
ATOM     30  C22 LD1 d   1      -1.873  15.863  -3.432  0.00  0.00    -0.075 A 
ATOM     31  C23 LD1 d   1      -0.654  15.834  -2.794  0.00  0.00    -0.082 A 
ATOM     32  H9  LD1 d   1      -2.083  15.144  -4.216  0.00  0.00     0.084 H 
ATOM     33  C24 LD1 d   1      -0.386  16.758  -1.807  0.00  0.00    -0.083 A 
ATOM     34  H10 LD1 d   1       0.088  15.092  -3.065  0.00  0.00     0.083 H 
ATOM     35  C25 LD1 d   1      -1.338  17.693  -1.464  0.00  0.00    -0.082 A 
ATOM     36  H11 LD1 d   1       0.573  16.749  -1.301  0.00  0.00     0.083 H 
ATOM     37  C26 LD1 d   1      -2.559  17.713  -2.096  0.00  0.00    -0.075 A 
ATOM     38  H12 LD1 d   1      -1.123  18.419  -0.689  0.00  0.00     0.083 H 
ATOM     39  H13 LD1 d   1      -3.304  18.449  -1.815  0.00  0.00     0.084 H 
ENDBRANCH   2  29
TORSDOF 2
