REMARK  7 active torsions:
REMARK  status: ('A' for Active; 'I' for Inactive)
REMARK    1  A    between atoms: OAK_11  and  CAA_1 
REMARK    2  A    between atoms: CAO_15  and  OAE_5 
REMARK    3  A    between atoms: CAJ_10  and  CAI_9 
REMARK    4  A    between atoms: CAI_9  and  CAL_12 
REMARK    5  A    between atoms: CAM_13  and  CAJ_10 
REMARK    6  A    between atoms: CAN_14  and  OAK_11 
REMARK    7  A    between atoms: CAM_13  and  CAP_16 
ROOT
ATOM      1  CAF HMZ d   1      19.835  32.902  12.483  0.00  0.00    -0.050 A 
ATOM      2  CAG HMZ d   1      20.815  33.027  13.441  0.00  0.00    -0.064 A 
ATOM      3  CAH HMZ d   1      19.174  35.113  12.952  0.00  0.00    -0.018 A 
ATOM      4  CAN HMZ d   1      19.009  33.957  12.214  0.00  0.00     0.070 A 
ATOM      5  CAO HMZ d   1      20.145  35.271  13.911  0.00  0.00     0.082 A 
ATOM      6  CAP HMZ d   1      20.983  34.200  14.180  0.00  0.00     0.043 A 
ATOM      7  H5  HMZ d   1      19.718  31.969  11.943  0.00  0.00     0.087 H 
ATOM      8  H6  HMZ d   1      21.477  32.189  13.628  0.00  0.00     0.085 H 
ATOM      9  H7  HMZ d   1      18.500  35.941  12.764  0.00  0.00     0.092 H 
ENDROOT
BRANCH   6  10
ATOM     10  CAM HMZ d   1      22.126  34.190  15.247  0.00  0.00     0.162 C 
ATOM     11  OAC HMZ d   1      22.188  33.269  16.068  0.00  0.00    -0.292 OA
BRANCH  10  12
ATOM     12  CAJ HMZ d   1      23.244  35.252  15.228  0.00  0.00     0.004 C 
ATOM     13  H10 HMZ d   1      22.932  36.100  15.855  0.00  0.00     0.045 H 
ATOM     14  H11 HMZ d   1      24.159  34.805  15.645  0.00  0.00     0.045 H 
BRANCH  12  15
ATOM     15  CAI HMZ d   1      23.556  35.777  13.811  0.00  0.00     0.022 C 
ATOM     16  H8  HMZ d   1      22.800  36.525  13.531  0.00  0.00     0.049 H 
ATOM     17  H9  HMZ d   1      23.521  34.937  13.101  0.00  0.00     0.049 H 
BRANCH  15  18
ATOM     18  CAL HMZ d   1      24.948  36.425  13.753  0.00  0.00     0.172 C 
ATOM     19  OAB HMZ d   1      25.222  37.035  12.710  0.00  0.00    -0.648 OA
ATOM     20  OAD HMZ d   1      25.719  36.293  14.727  0.00  0.00    -0.648 OA
ENDBRANCH  15  18
ENDBRANCH  12  15
ENDBRANCH  10  12
ENDBRANCH   6  10
BRANCH   5  21
ATOM     21  OAE HMZ d   1      20.283  36.462  14.609  0.00  0.00    -0.360 OA
ATOM     22  H4  HMZ d   1      19.479  36.647  15.080  0.00  0.00     0.217 HD
ENDBRANCH   5  21
BRANCH   4  23
ATOM     23  OAK HMZ d   1      17.999  33.790  11.201  0.00  0.00    -0.356 OA
BRANCH  23  24
ATOM     24  CAA HMZ d   1      18.418  33.858   9.876  0.00  0.00     0.010 C 
ATOM     25  H1  HMZ d   1      17.554  33.715   9.210  0.00  0.00     0.066 H 
ATOM     26  H2  HMZ d   1      19.162  33.070   9.686  0.00  0.00     0.066 H 
ATOM     27  H3  HMZ d   1      18.870  34.843   9.684  0.00  0.00     0.066 H 
ENDBRANCH  23  24
ENDBRANCH   4  23
TORSDOF 7
