REMARK  6 active torsions:
REMARK  status: ('A' for Active; 'I' for Inactive)
REMARK    1  A    between atoms: C9_21  and  N1_2 
REMARK    2  A    between atoms: C10_22  and  S1_4 
REMARK    3  A    between atoms: N2_6  and  C12_24 
REMARK    4  A    between atoms: C13_25  and  N2_6 
REMARK    5  A    between atoms: S2_8  and  N3_10 
REMARK    6  A    between atoms: C16_28  and  S2_8 
ROOT
ATOM      1  C1  M4M d   1      25.019   5.120  66.319  0.00  0.00     0.029 A 
ATOM      2  O1  M4M d   1      25.913   2.405  68.580  0.00  0.00    -0.286 OA
ATOM      3  C2  M4M d   1      24.787   6.504  66.301  0.00  0.00    -0.068 A 
ATOM      4  C3  M4M d   1      24.859   7.256  67.474  0.00  0.00    -0.082 A 
ATOM      5  C4  M4M d   1      25.222   6.639  68.680  0.00  0.00    -0.082 A 
ATOM      6  C5  M4M d   1      25.466   5.252  68.687  0.00  0.00    -0.068 A 
ATOM      7  C6  M4M d   1      25.360   4.482  67.517  0.00  0.00     0.029 A 
ATOM      8  C7  M4M d   1      25.609   3.003  67.532  0.00  0.00     0.196 A 
ATOM      9  O7  M4M d   1      24.646   5.012  64.005  0.00  0.00    -0.286 OA
ATOM     10  C8  M4M d   1      25.494   2.173  66.309  0.00  0.00     0.059 A 
ATOM     11  C9  M4M d   1      25.692   0.691  66.330  0.00  0.00     0.065 A 
ATOM     12  C10 M4M d   1      25.590  -0.100  65.180  0.00  0.00     0.110 A 
ATOM     13  C11 M4M d   1      25.261   0.570  63.984  0.00  0.00    -0.030 A 
ATOM     14  C12 M4M d   1      25.051   1.962  63.871  0.00  0.00     0.049 A 
ATOM     15  C19 M4M d   1      25.169   2.856  65.052  0.00  0.00     0.058 A 
ATOM     16  C20 M4M d   1      24.927   4.352  65.052  0.00  0.00     0.196 A 
ATOM     17  H3  M4M d   1      24.549   6.995  65.364  0.00  0.00     0.085 H 
ATOM     18  H5  M4M d   1      24.634   8.316  67.453  0.00  0.00     0.083 H 
ATOM     19  H8  M4M d   1      25.313   7.220  69.591  0.00  0.00     0.083 H 
ATOM     20  H9  M4M d   1      25.742   4.768  69.617  0.00  0.00     0.085 H 
ATOM     21  H10 M4M d   1      25.162  -0.027  63.085  0.00  0.00     0.089 H 
ENDROOT
BRANCH  14  22
ATOM     22  N2  M4M d   1      24.759   2.592  62.706  0.00  0.00    -0.355 N 
ATOM     23  H4  M4M d   1      25.022   3.587  62.672  0.00  0.00     0.166 HD
BRANCH  22  24
ATOM     24  C13 M4M d   1      24.179   2.119  61.588  0.00  0.00     0.032 A 
ATOM     25  C14 M4M d   1      23.486   3.095  60.864  0.00  0.00    -0.056 A 
ATOM     26  C15 M4M d   1      22.827   2.775  59.687  0.00  0.00    -0.058 A 
ATOM     27  H11 M4M d   1      23.464   4.116  61.228  0.00  0.00     0.087 H 
ATOM     28  C16 M4M d   1      22.872   1.449  59.222  0.00  0.00     0.079 A 
ATOM     29  H12 M4M d   1      22.286   3.535  59.134  0.00  0.00     0.086 H 
ATOM     30  C17 M4M d   1      23.583   0.458  59.955  0.00  0.00    -0.058 A 
ATOM     31  C18 M4M d   1      24.249   0.787  61.153  0.00  0.00    -0.056 A 
ATOM     32  H13 M4M d   1      23.613  -0.561  59.588  0.00  0.00     0.086 H 
ATOM     33  H14 M4M d   1      24.795   0.039  61.717  0.00  0.00     0.087 H 
BRANCH  28  34
ATOM     34  S2  M4M d   1      22.090   1.117  57.843  0.00  0.00     0.256 S 
ATOM     35  O6  M4M d   1      21.698   2.395  57.167  0.00  0.00    -0.201 OA
ATOM     36  O8  M4M d   1      22.993   0.369  56.919  0.00  0.00    -0.201 OA
BRANCH  34  37
ATOM     37  N3  M4M d   1      20.868   0.298  58.125  0.00  0.00    -0.324 N 
ATOM     38  H6  M4M d   1      20.156   0.654  58.730  0.00  0.00     0.169 HD
ATOM     39  H7  M4M d   1      20.764  -0.605  57.708  0.00  0.00     0.169 HD
ENDBRANCH  34  37
ENDBRANCH  28  34
ENDBRANCH  22  24
ENDBRANCH  14  22
BRANCH  12  40
ATOM     40  S1  M4M d   1      25.848  -1.748  65.201  0.00  0.00     0.140 S 
ATOM     41  O2  M4M d   1      27.099  -2.143  65.947  0.00  0.00    -0.591 OA
ATOM     42  O3  M4M d   1      24.821  -2.529  65.915  0.00  0.00    -0.591 OA
ATOM     43  O4  M4M d   1      25.796  -2.280  63.789  0.00  0.00    -0.591 OA
ENDBRANCH  12  40
BRANCH  11  44
ATOM     44  N1  M4M d   1      25.985   0.135  67.503  0.00  0.00    -0.397 N 
ATOM     45  H1  M4M d   1      26.059   0.721  68.347  0.00  0.00     0.156 HD
ATOM     46  H2  M4M d   1      26.138  -0.882  67.567  0.00  0.00     0.156 HD
ENDBRANCH  11  44
TORSDOF 6
