REMARK  10 active torsions:
REMARK  status: ('A' for Active; 'I' for Inactive)
REMARK    1  A    between atoms: C1_1  and  SA_2 
REMARK    2  A    between atoms: C2_6  and  N2_7 
REMARK    3  A    between atoms: C11_17  and  O11_18 
REMARK    4  A    between atoms: CB5_31  and  NB_22 
REMARK    5  A    between atoms: CB1_23  and  SB_24 
REMARK    6  A    between atoms: NC_33  and  CB2_28 
REMARK    7  A    between atoms: CC6_40  and  NC_33 
REMARK    8  A    between atoms: ND_41  and  CC4_38 
REMARK    9  A    between atoms: CD2_47  and  ND_41 
REMARK   10  A    between atoms: CD1_42  and  SD_43 
ROOT
ATOM      1  CB1 CBD d   1      14.958   2.443  76.050  0.00  0.00     0.110 A 
ATOM      2  CB2 CBD d   1      15.759   3.417  76.646  0.00  0.00     0.073 A 
ATOM      3  CB3 CBD d   1      15.209   4.389  77.480  0.00  0.00    -0.053 A 
ATOM      4  CB4 CBD d   1      13.839   4.394  77.708  0.00  0.00    -0.055 A 
ATOM      5  CB5 CBD d   1      13.043   3.423  77.117  0.00  0.00     0.034 A 
ATOM      6  CB6 CBD d   1      13.595   2.459  76.293  0.00  0.00    -0.031 A 
ATOM      7  H   CBD d   1      15.848   5.138  77.949  0.00  0.00     0.087 H 
ATOM      8  H   CBD d   1      13.392   5.156  78.347  0.00  0.00     0.087 H 
ATOM      9  H   CBD d   1      12.954   1.708  75.832  0.00  0.00     0.089 H 
ENDROOT
BRANCH   5  10
ATOM     10  NB  CBD d   1      11.728   3.408  77.337  0.00  0.00    -0.356 N 
ATOM     11  C13 CBD d   1      10.881   2.991  76.382  0.00  0.00     0.044 A 
ATOM     12  C12 CBD d   1       9.546   2.804  76.701  0.00  0.00     0.018 A 
ATOM     13  C14 CBD d   1      11.334   2.763  75.081  0.00  0.00    -0.031 A 
ATOM     14  C3  CBD d   1       8.657   2.381  75.702  0.00  0.00     0.054 A 
ATOM     15  C11 CBD d   1       9.103   3.042  78.007  0.00  0.00     0.090 A 
ATOM     16  C2  CBD d   1       9.127   2.151  74.378  0.00  0.00     0.065 A 
ATOM     17  C4  CBD d   1       7.312   2.190  76.059  0.00  0.00     0.196 A 
ATOM     18  C1  CBD d   1      10.476   2.343  74.060  0.00  0.00     0.110 A 
ATOM     19  O4  CBD d   1       6.492   1.814  75.196  0.00  0.00    -0.287 OA
ATOM     20  C5  CBD d   1       6.872   2.418  77.368  0.00  0.00     0.024 A 
ATOM     21  C6  CBD d   1       5.543   2.227  77.719  0.00  0.00    -0.069 A 
ATOM     22  C10 CBD d   1       7.760   2.845  78.341  0.00  0.00    -0.011 A 
ATOM     23  C7  CBD d   1       5.093   2.458  79.026  0.00  0.00    -0.082 A 
ATOM     24  H   CBD d   1       4.834   1.890  76.962  0.00  0.00     0.085 H 
ATOM     25  C8  CBD d   1       5.957   2.894  80.007  0.00  0.00    -0.082 A 
ATOM     26  H   CBD d   1       4.044   2.290  79.270  0.00  0.00     0.083 H 
ATOM     27  C9  CBD d   1       7.285   3.079  79.635  0.00  0.00    -0.073 A 
ATOM     28  H   CBD d   1       5.617   3.085  81.025  0.00  0.00     0.083 H 
ATOM     29  H   CBD d   1       7.991   3.424  80.391  0.00  0.00     0.084 H 
ATOM     30  H   CBD d   1       8.148   3.268  78.480  0.00  0.00     0.098 H 
ATOM     31  H   CBD d   1      12.389   2.917  74.854  0.00  0.00     0.089 H 
ATOM     32  H   CBD d   1      11.362   3.716  78.238  0.00  0.00     0.166 HD
BRANCH  16  33
ATOM     33  N2  CBD d   1       8.291   1.733  73.389  0.00  0.00    -0.397 N 
ATOM     34  H   CBD d   1       8.654   1.569  72.450  0.00  0.00     0.156 HD
ATOM     35  H   CBD d   1       7.302   1.583  73.587  0.00  0.00     0.156 HD
ENDBRANCH  16  33
BRANCH  18  36
ATOM     36  SA  CBD d   1      11.028   2.069  72.556  0.00  0.00     0.140 S 
ATOM     37  O1A CBD d   1      10.358   3.012  71.635  0.00  0.00    -0.591 OA
ATOM     38  O2A CBD d   1      10.610   0.664  72.232  0.00  0.00    -0.591 OA
ATOM     39  O3A CBD d   1      12.518   2.230  72.429  0.00  0.00    -0.591 OA
ENDBRANCH  18  36
BRANCH  15  40
ATOM     40  O11 CBD d   1       9.998   3.461  78.943  0.00  0.00    -0.386 OA
ATOM     41  H   CBD d   1      10.034   2.822  79.658  0.00  0.00     0.210 HD
ENDBRANCH  15  40
ENDBRANCH   5  10
BRANCH   1  42
ATOM     42  SB  CBD d   1      15.527   1.287  75.084  0.00  0.00     0.140 S 
ATOM     43  O1B CBD d   1      14.915  -0.008  75.468  0.00  0.00    -0.591 OA
ATOM     44  O2B CBD d   1      15.137   1.643  73.688  0.00  0.00    -0.591 OA
ATOM     45  O3B CBD d   1      17.004   1.110  75.194  0.00  0.00    -0.591 OA
ENDBRANCH   1  42
BRANCH   2  46
ATOM     46  NC  CBD d   1      17.085   3.379  76.421  0.00  0.00    -0.186 N 
ATOM     47  H   CBD d   1      17.507   2.458  76.298  0.00  0.00     0.184 HD
BRANCH  46  48
ATOM     48  CC6 CBD d   1      17.904   4.438  76.343  0.00  0.00     0.745 A 
ATOM     49  NC1 CBD d   1      18.189   4.953  75.126  0.00  0.00    -0.030 NA
ATOM     50  CC2 CBD d   1      19.033   6.003  75.043  0.00  0.00     0.259 A 
ATOM     51 CL   CBD d   1      19.397   6.690  73.427  0.00  0.00    -0.040 Cl
ATOM     52  NC3 CBD d   1      19.591   6.530  76.166  0.00  0.00    -0.030 NA
ATOM     53  CC4 CBD d   1      19.311   6.001  77.390  0.00  0.00     0.745 A 
ATOM     54  NC5 CBD d   1      18.461   4.945  77.470  0.00  0.00     0.131 NA
BRANCH  53  55
ATOM     55  ND  CBD d   1      19.876   6.524  78.513  0.00  0.00    -0.186 N 
ATOM     56  H   CBD d   1      20.591   7.246  78.419  0.00  0.00     0.184 HD
BRANCH  55  57
ATOM     57  CD2 CBD d   1      19.513   6.110  79.758  0.00  0.00     0.073 A 
ATOM     58  CD1 CBD d   1      18.605   6.866  80.535  0.00  0.00     0.107 A 
ATOM     59  CD6 CBD d   1      18.268   6.378  81.810  0.00  0.00    -0.057 A 
ATOM     60  CD5 CBD d   1      18.820   5.182  82.292  0.00  0.00    -0.081 A 
ATOM     61  H   CBD d   1      17.569   6.936  82.432  0.00  0.00     0.086 H 
ATOM     62  CD4 CBD d   1      19.716   4.440  81.517  0.00  0.00    -0.081 A 
ATOM     63  H   CBD d   1      18.546   4.826  83.285  0.00  0.00     0.083 H 
ATOM     64  CD3 CBD d   1      20.063   4.910  80.251  0.00  0.00    -0.055 A 
ATOM     65  H   CBD d   1      20.137   3.509  81.896  0.00  0.00     0.083 H 
ATOM     66  H   CBD d   1      20.765   4.345  79.638  0.00  0.00     0.087 H 
BRANCH  58  67
ATOM     67  SD  CBD d   1      17.962   8.260  79.991  0.00  0.00     0.140 S 
ATOM     68  O1D CBD d   1      17.077   7.981  78.827  0.00  0.00    -0.591 OA
ATOM     69  O2D CBD d   1      19.041   9.179  79.533  0.00  0.00    -0.591 OA
ATOM     70  O3D CBD d   1      17.168   8.957  81.040  0.00  0.00    -0.591 OA
ENDBRANCH  58  67
ENDBRANCH  55  57
ENDBRANCH  53  55
ENDBRANCH  46  48
ENDBRANCH   2  46
TORSDOF 10
