REMARK  0 active torsions:
REMARK  status: ('A' for Active; 'I' for Inactive)
ROOT
ATOM      1  C5  4TT d   1      -1.362  19.931 -28.567  0.00  0.00    -0.001 A 
ATOM      2  C6  4TT d   1      -0.197  17.705 -29.182  0.00  0.00    -0.038 C 
ATOM      3  C7  4TT d   1      -2.210  16.635 -31.358  0.00  0.00    -0.009 A 
ATOM      4  C10 4TT d   1      -0.489  20.468 -27.621  0.00  0.00    -0.070 A 
ATOM      5  C13 4TT d   1      -3.071  16.020 -32.265  0.00  0.00     0.030 A 
ATOM      6  C15 4TT d   1      -2.815  21.849 -28.352  0.00  0.00    -0.056 A 
ATOM      7  C17 4TT d   1      -1.953  22.390 -27.397  0.00  0.00    -0.081 A 
ATOM      8  N4  4TT d   1      -3.171  19.881 -29.872  0.00  0.00    -0.353 N 
ATOM      9  C9  4TT d   1      -2.524  20.615 -28.946  0.00  0.00     0.043 A 
ATOM     10  C16 4TT d   1      -0.794  21.698 -27.028  0.00  0.00    -0.082 A 
ATOM     11  C1  4TT d   1      -2.431  18.785 -30.072  0.00  0.00     0.069 A 
ATOM     12  C3  4TT d   1      -2.866  17.817 -30.988  0.00  0.00     0.085 A 
ATOM     13  N8  4TT d   1      -4.059  17.971 -31.594  0.00  0.00    -0.276 N 
ATOM     14  N14 4TT d   1      -4.151  16.819 -32.389  0.00  0.00    -0.186 NA
ATOM     15  C2  4TT d   1      -1.286  18.742 -29.278  0.00  0.00    -0.017 A 
ATOM     16  C11 4TT d   1       0.110  17.147 -30.557  0.00  0.00    -0.058 C 
ATOM     17  C12 4TT d   1      -0.887  16.059 -30.916  0.00  0.00    -0.037 C 
ATOM     18  H1  4TT d   1      -0.528  16.889 -28.523  0.00  0.00     0.040 H 
ATOM     19  H2  4TT d   1       0.710  18.167 -28.765  0.00  0.00     0.040 H 
ATOM     20  H3  4TT d   1       0.416  19.938 -27.348  0.00  0.00     0.084 H 
ATOM     21  H4  4TT d   1      -2.904  15.073 -32.777  0.00  0.00     0.118 H 
ATOM     22  H5  4TT d   1      -3.713  22.386 -28.635  0.00  0.00     0.086 H 
ATOM     23  H6  4TT d   1      -2.181  23.346 -26.941  0.00  0.00     0.083 H 
ATOM     24  H7  4TT d   1      -4.060  20.117 -30.335  0.00  0.00     0.166 HD
ATOM     25  H8  4TT d   1      -0.130  22.116 -26.280  0.00  0.00     0.083 H 
ATOM     26  H9  4TT d   1      -4.735  18.742 -31.498  0.00  0.00     0.189 HD
ATOM     27  H10 4TT d   1       1.125  16.724 -30.559  0.00  0.00     0.033 H 
ATOM     28  H11 4TT d   1       0.048  17.956 -31.300  0.00  0.00     0.033 H 
ATOM     29  H12 4TT d   1      -0.472  15.452 -31.734  0.00  0.00     0.040 H 
ATOM     30  H13 4TT d   1      -1.052  15.423 -30.034  0.00  0.00     0.040 H 
ENDROOT
TORSDOF 0
