REMARK  5 active torsions:
REMARK  status: ('A' for Active; 'I' for Inactive)
REMARK    1  A    between atoms: C2_2  and  C12_12 
REMARK    2  A    between atoms: N4_4  and  C6_6 
REMARK    3  A    between atoms: C5_5  and  N13_13 
REMARK    4  A    between atoms: N16_16  and  C19_19 
REMARK    5  A    between atoms: C22_22  and  C24_24 
REMARK       I    between atoms: C24_24  and  N25_25 
ROOT
ATOM      1  N13 M51 d   1      49.670  64.270  34.215  0.00  0.00    -0.362 N 
ATOM      2  C14 M51 d   1      50.565  63.925  33.097  0.00  0.00     0.019 C 
ATOM      3  C15 M51 d   1      51.879  64.699  33.274  0.00  0.00     0.099 C 
ATOM      4  N16 M51 d   1      52.416  64.487  34.632  0.00  0.00    -0.062 N 
ATOM      5  C17 M51 d   1      51.526  64.835  35.753  0.00  0.00     0.099 C 
ATOM      6  C18 M51 d   1      50.200  64.068  35.582  0.00  0.00     0.019 C 
ATOM      7  H10 M51 d   1      50.094  64.205  32.143  0.00  0.00     0.066 H 
ATOM      8  H11 M51 d   1      50.767  62.844  33.102  0.00  0.00     0.066 H 
ATOM      9  H12 M51 d   1      51.692  65.772  33.121  0.00  0.00     0.078 H 
ATOM     10  H13 M51 d   1      52.612  64.345  32.534  0.00  0.00     0.078 H 
ATOM     11  H14 M51 d   1      52.571  63.494  34.710  0.00  0.00     0.280 HD
ATOM     12  H15 M51 d   1      51.331  65.918  35.750  0.00  0.00     0.078 H 
ATOM     13  H16 M51 d   1      51.999  64.550  36.704  0.00  0.00     0.078 H 
ATOM     14  H17 M51 d   1      50.376  62.995  35.749  0.00  0.00     0.066 H 
ATOM     15  H18 M51 d   1      49.468  64.439  36.315  0.00  0.00     0.066 H 
ENDROOT
BRANCH   4  16
ATOM     16  C19 M51 d   1      53.733  65.132  34.773  0.00  0.00     0.129 C 
ATOM     17  C20 M51 d   1      54.676  64.800  33.618  0.00  0.00     0.109 C 
ATOM     18  N21 M51 d   1      55.985  64.993  34.219  0.00  0.00    -0.060 N 
ATOM     19  H20 M51 d   1      54.523  65.484  32.770  0.00  0.00     0.079 H 
ATOM     20  H21 M51 d   1      54.542  63.762  33.281  0.00  0.00     0.079 H 
ATOM     21  C22 M51 d   1      55.944  65.126  35.674  0.00  0.00     0.180 C 
ATOM     22  H22 M51 d   1      56.393  65.830  33.833  0.00  0.00     0.278 HD
ATOM     23  H23 M51 d   1      56.563  64.200  33.987  0.00  0.00     0.278 HD
ATOM     24  C23 M51 d   1      54.532  64.654  35.995  0.00  0.00    -0.002 C 
ATOM     25  H24 M51 d   1      56.054  66.183  35.957  0.00  0.00     0.099 H 
ATOM     26  H25 M51 d   1      54.492  63.559  36.092  0.00  0.00     0.040 H 
ATOM     27  H26 M51 d   1      54.159  65.118  36.920  0.00  0.00     0.040 H 
ATOM     28  H19 M51 d   1      53.573  66.219  34.832  0.00  0.00     0.087 H 
BRANCH  21  29
ATOM     29  C24 M51 d   1      57.039  64.351  36.376  0.00  0.00     0.251 C 
ATOM     30  N25 M51 d   1      57.539  64.816  37.516  0.00  0.00    -0.341 N 
ATOM     31  C26 M51 d   1      57.034  66.043  38.159  0.00  0.00     0.006 C 
ATOM     32  C29 M51 d   1      58.627  64.153  38.231  0.00  0.00     0.039 C 
ATOM     33  C27 M51 d   1      57.811  66.371  39.441  0.00  0.00    -0.007 C 
ATOM     34  H27 M51 d   1      55.972  65.903  38.411  0.00  0.00     0.065 H 
ATOM     35  H28 M51 d   1      57.136  66.882  37.456  0.00  0.00     0.065 H 
ATOM     36  S28 M51 d   1      58.603  64.869  39.852  0.00  0.00    -0.148 SA
ATOM     37  H29 M51 d   1      57.127  66.684  40.243  0.00  0.00     0.051 H 
ATOM     38  H30 M51 d   1      58.550  67.165  39.258  0.00  0.00     0.051 H 
ATOM     39  H31 M51 d   1      59.590  64.346  37.736  0.00  0.00     0.080 H 
ATOM     40  H32 M51 d   1      58.452  63.068  38.284  0.00  0.00     0.080 H 
ATOM     41  O30 M51 d   1      57.474  63.328  35.871  0.00  0.00    -0.271 OA
ENDBRANCH  21  29
ENDBRANCH   4  16
BRANCH   1  42
ATOM     42  C5  M51 d   1      48.286  64.203  34.017  0.00  0.00     0.129 A 
ATOM     43  C1  M51 d   1      47.414  63.495  34.859  0.00  0.00    -0.014 A 
ATOM     44  C2  M51 d   1      46.138  63.700  34.290  0.00  0.00     0.055 A 
ATOM     45  H1  M51 d   1      47.665  62.919  35.748  0.00  0.00     0.092 H 
ATOM     46  N3  M51 d   1      46.183  64.461  33.179  0.00  0.00    -0.171 NA
ATOM     47  N4  M51 d   1      47.552  64.754  33.023  0.00  0.00    -0.217 N 
BRANCH  44  48
ATOM     48  C12 M51 d   1      44.947  63.071  34.965  0.00  0.00    -0.034 C 
ATOM     49  H7  M51 d   1      44.034  63.321  34.405  0.00  0.00     0.035 H 
ATOM     50  H8  M51 d   1      44.864  63.454  35.993  0.00  0.00     0.035 H 
ATOM     51  H9  M51 d   1      45.074  61.979  34.990  0.00  0.00     0.035 H 
ENDBRANCH  44  48
BRANCH  47  52
ATOM     52  C6  M51 d   1      47.889  65.528  31.984  0.00  0.00     0.060 A 
ATOM     53  C7  M51 d   1      48.804  66.588  32.034  0.00  0.00    -0.055 A 
ATOM     54  C8  M51 d   1      49.098  67.380  30.925  0.00  0.00    -0.081 A 
ATOM     55  H2  M51 d   1      49.303  66.801  32.972  0.00  0.00     0.087 H 
ATOM     56  C9  M51 d   1      48.443  67.156  29.719  0.00  0.00    -0.083 A 
ATOM     57  H3  M51 d   1      49.837  68.170  31.003  0.00  0.00     0.083 H 
ATOM     58  C10 M51 d   1      47.503  66.134  29.634  0.00  0.00    -0.081 A 
ATOM     59  H4  M51 d   1      48.663  67.771  28.854  0.00  0.00     0.083 H 
ATOM     60  C11 M51 d   1      47.243  65.351  30.754  0.00  0.00    -0.055 A 
ATOM     61  H5  M51 d   1      46.978  65.950  28.704  0.00  0.00     0.083 H 
ATOM     62  H6  M51 d   1      46.503  64.564  30.671  0.00  0.00     0.087 H 
ENDBRANCH  47  52
ENDBRANCH   1  42
TORSDOF 5
