REMARK  5 active torsions:
REMARK  status: ('A' for Active; 'I' for Inactive)
REMARK    1  A    between atoms: C1_1  and  C16_16 
REMARK    2  A    between atoms: C3_3  and  C12_12 
REMARK    3  A    between atoms: N5_5  and  C6_6 
REMARK    4  A    between atoms: N19_19  and  C22_22 
REMARK    5  A    between atoms: C24_24  and  C27_27 
REMARK       I    between atoms: C27_27  and  N28_28 
ROOT
ATOM      1  C16 W94 d   1      49.333  63.347  34.641  0.00  0.00    -0.009 C 
ATOM      2  C17 W94 d   1      50.212  63.173  35.877  0.00  0.00    -0.034 C 
ATOM      3  C18 W94 d   1      51.429  64.102  35.846  0.00  0.00     0.085 C 
ATOM      4  N19 W94 d   1      52.160  63.860  34.601  0.00  0.00    -0.065 N 
ATOM      5  C20 W94 d   1      51.401  64.033  33.344  0.00  0.00     0.085 C 
ATOM      6  C21 W94 d   1      50.176  63.106  33.384  0.00  0.00    -0.034 C 
ATOM      7  H7  W94 d   1      48.985  64.390  34.611  0.00  0.00     0.049 H 
ATOM      8  H8  W94 d   1      50.561  62.131  35.922  0.00  0.00     0.036 H 
ATOM      9  H9  W94 d   1      49.615  63.398  36.773  0.00  0.00     0.036 H 
ATOM     10  H10 W94 d   1      52.080  63.891  36.707  0.00  0.00     0.076 H 
ATOM     11  H11 W94 d   1      51.098  65.150  35.885  0.00  0.00     0.076 H 
ATOM     12  H12 W94 d   1      52.410  62.884  34.620  0.00  0.00     0.280 HD
ATOM     13  H13 W94 d   1      52.038  63.770  32.486  0.00  0.00     0.076 H 
ATOM     14  H14 W94 d   1      51.072  65.079  33.250  0.00  0.00     0.076 H 
ATOM     15  H15 W94 d   1      49.556  63.294  32.495  0.00  0.00     0.036 H 
ATOM     16  H16 W94 d   1      50.518  62.061  33.377  0.00  0.00     0.036 H 
ENDROOT
BRANCH   4  17
ATOM     17  C22 W94 d   1      53.430  64.612  34.617  0.00  0.00     0.129 C 
ATOM     18  C23 W94 d   1      54.341  64.211  35.788  0.00  0.00    -0.002 C 
ATOM     19  C24 W94 d   1      55.729  64.679  35.346  0.00  0.00     0.180 C 
ATOM     20  H18 W94 d   1      54.325  63.122  35.942  0.00  0.00     0.040 H 
ATOM     21  H19 W94 d   1      54.033  64.717  36.715  0.00  0.00     0.040 H 
ATOM     22  N25 W94 d   1      55.655  64.594  33.898  0.00  0.00    -0.060 N 
ATOM     23  H20 W94 d   1      55.880  65.726  35.649  0.00  0.00     0.099 H 
ATOM     24  C26 W94 d   1      54.316  64.313  33.409  0.00  0.00     0.109 C 
ATOM     25  H21 W94 d   1      56.270  63.858  33.588  0.00  0.00     0.278 HD
ATOM     26  H22 W94 d   1      55.960  65.473  33.509  0.00  0.00     0.278 HD
ATOM     27  H23 W94 d   1      54.061  64.967  32.562  0.00  0.00     0.079 H 
ATOM     28  H24 W94 d   1      54.221  63.261  33.102  0.00  0.00     0.079 H 
ATOM     29  H17 W94 d   1      53.195  65.686  34.663  0.00  0.00     0.087 H 
BRANCH  19  30
ATOM     30  C27 W94 d   1      56.860  63.862  35.938  0.00  0.00     0.251 C 
ATOM     31  N28 W94 d   1      57.412  64.294  37.069  0.00  0.00    -0.341 N 
ATOM     32  C29 W94 d   1      56.932  65.508  37.727  0.00  0.00     0.006 C 
ATOM     33  C32 W94 d   1      58.518  63.597  37.743  0.00  0.00     0.039 C 
ATOM     34  C30 W94 d   1      57.508  65.650  39.111  0.00  0.00    -0.007 C 
ATOM     35  H25 W94 d   1      55.835  65.466  37.799  0.00  0.00     0.065 H 
ATOM     36  H26 W94 d   1      57.227  66.381  37.126  0.00  0.00     0.065 H 
ATOM     37  S31 W94 d   1      58.570  64.274  39.411  0.00  0.00    -0.148 SA
ATOM     38  H27 W94 d   1      56.696  65.662  39.853  0.00  0.00     0.051 H 
ATOM     39  H28 W94 d   1      58.082  66.585  39.181  0.00  0.00     0.051 H 
ATOM     40  H29 W94 d   1      59.467  63.788  37.221  0.00  0.00     0.080 H 
ATOM     41  H30 W94 d   1      58.328  62.514  37.774  0.00  0.00     0.080 H 
ATOM     42  O33 W94 d   1      57.263  62.857  35.370  0.00  0.00    -0.271 OA
ENDBRANCH  19  30
ENDBRANCH   4  17
BRANCH   1  43
ATOM     43  C1  W94 d   1      48.116  62.473  34.732  0.00  0.00     0.043 A 
ATOM     44  C2  W94 d   1      48.280  61.191  35.267  0.00  0.00    -0.024 A 
ATOM     45  C3  W94 d   1      46.990  60.667  35.218  0.00  0.00     0.163 A 
ATOM     46  H1  W94 d   1      49.191  60.719  35.632  0.00  0.00     0.090 H 
ATOM     47  N4  W94 d   1      46.043  61.473  34.723  0.00  0.00    -0.163 NA
ATOM     48  N5  W94 d   1      46.810  62.592  34.419  0.00  0.00    -0.237 N 
BRANCH  45  49
ATOM     49  C12 W94 d   1      46.605  59.291  35.673  0.00  0.00     0.436 C 
ATOM     50  F13 W94 d   1      45.375  59.362  36.189  0.00  0.00    -0.165 F 
ATOM     51  F14 W94 d   1      47.476  58.857  36.582  0.00  0.00    -0.165 F 
ATOM     52  F15 W94 d   1      46.605  58.497  34.605  0.00  0.00    -0.165 F 
ENDBRANCH  45  49
BRANCH  48  53
ATOM     53  C6  W94 d   1      46.187  63.649  33.907  0.00  0.00     0.058 A 
ATOM     54  C7  W94 d   1      44.972  64.070  34.475  0.00  0.00    -0.055 A 
ATOM     55  C8  W94 d   1      44.249  65.166  34.006  0.00  0.00    -0.081 A 
ATOM     56  H2  W94 d   1      44.578  63.515  35.319  0.00  0.00     0.087 H 
ATOM     57  C9  W94 d   1      44.746  65.874  32.918  0.00  0.00    -0.083 A 
ATOM     58  H3  W94 d   1      43.319  65.460  34.480  0.00  0.00     0.083 H 
ATOM     59  C10 W94 d   1      45.950  65.479  32.329  0.00  0.00    -0.081 A 
ATOM     60  H4  W94 d   1      44.203  66.728  32.529  0.00  0.00     0.083 H 
ATOM     61  C11 W94 d   1      46.653  64.379  32.813  0.00  0.00    -0.055 A 
ATOM     62  H5  W94 d   1      46.341  66.036  31.485  0.00  0.00     0.083 H 
ATOM     63  H6  W94 d   1      47.578  64.085  32.331  0.00  0.00     0.087 H 
ENDBRANCH  48  53
ENDBRANCH   1  43
TORSDOF 5
