REMARK  4 active torsions:
REMARK  status: ('A' for Active; 'I' for Inactive)
REMARK    1  A    between atoms: C1_1  and  N20_12 
REMARK    2  A    between atoms: C3_3  and  C11_11 
REMARK    3  A    between atoms: N23_15  and  C26_17 
REMARK    4  A    between atoms: C29_20  and  C33_23 
REMARK       I    between atoms: C33_23  and  N46_24 
ROOT
ATOM      1  N20 W61 d   1      49.555  63.747  34.418  0.00  0.00    -0.377 N 
ATOM      2  C21 W61 d   1      50.241  63.510  35.697  0.00  0.00     0.018 C 
ATOM      3  C22 W61 d   1      51.548  64.299  35.734  0.00  0.00     0.099 C 
ATOM      4  N23 W61 d   1      52.337  63.985  34.550  0.00  0.00    -0.062 N 
ATOM      5  C24 W61 d   1      51.653  64.203  33.266  0.00  0.00     0.099 C 
ATOM      6  C32 W61 d   1      50.338  63.417  33.231  0.00  0.00     0.018 C 
ATOM      7  H6  W61 d   1      50.459  62.437  35.802  0.00  0.00     0.066 H 
ATOM      8  H7  W61 d   1      49.594  63.836  36.525  0.00  0.00     0.066 H 
ATOM      9  H8  W61 d   1      52.116  64.027  36.636  0.00  0.00     0.078 H 
ATOM     10  H9  W61 d   1      51.326  65.376  35.752  0.00  0.00     0.078 H 
ATOM     11  H10 W61 d   1      52.573  63.006  34.597  0.00  0.00     0.280 HD
ATOM     12  H11 W61 d   1      52.302  63.863  32.446  0.00  0.00     0.078 H 
ATOM     13  H12 W61 d   1      51.440  65.275  33.145  0.00  0.00     0.078 H 
ATOM     14  H21 W61 d   1      49.771  63.687  32.328  0.00  0.00     0.066 H 
ATOM     15  H22 W61 d   1      50.553  62.338  33.219  0.00  0.00     0.066 H 
ENDROOT
BRANCH   4  16
ATOM     16  C26 W61 d   1      53.599  64.775  34.597  0.00  0.00     0.129 C 
ATOM     17  C27 W61 d   1      54.496  64.492  33.381  0.00  0.00     0.109 C 
ATOM     18  N28 W61 d   1      55.856  64.660  33.875  0.00  0.00    -0.060 N 
ATOM     19  H14 W61 d   1      54.287  65.206  32.571  0.00  0.00     0.079 H 
ATOM     20  H15 W61 d   1      54.341  63.466  33.015  0.00  0.00     0.079 H 
ATOM     21  C29 W61 d   1      55.912  64.751  35.330  0.00  0.00     0.180 C 
ATOM     22  H16 W61 d   1      56.241  65.505  33.483  0.00  0.00     0.278 HD
ATOM     23  H17 W61 d   1      56.408  63.870  33.579  0.00  0.00     0.278 HD
ATOM     24  C30 W61 d   1      54.497  64.391  35.783  0.00  0.00    -0.002 C 
ATOM     25  H18 W61 d   1      56.128  65.791  35.617  0.00  0.00     0.099 H 
ATOM     26  H19 W61 d   1      54.420  63.315  35.996  0.00  0.00     0.040 H 
ATOM     27  H20 W61 d   1      54.220  64.963  36.681  0.00  0.00     0.040 H 
ATOM     28  H13 W61 d   1      53.341  65.843  34.645  0.00  0.00     0.087 H 
BRANCH  21  29
ATOM     29  C33 W61 d   1      56.985  63.879  35.955  0.00  0.00     0.251 C 
ATOM     30  N46 W61 d   1      57.502  64.296  37.119  0.00  0.00    -0.341 N 
ATOM     31  C47 W61 d   1      58.579  63.616  37.851  0.00  0.00     0.039 C 
ATOM     32  C50 W61 d   1      56.993  65.510  37.771  0.00  0.00     0.006 C 
ATOM     33  S48 W61 d   1      58.512  64.315  39.479  0.00  0.00    -0.148 SA
ATOM     34  H23 W61 d   1      59.554  63.814  37.382  0.00  0.00     0.080 H 
ATOM     35  H24 W61 d   1      58.402  62.531  37.885  0.00  0.00     0.080 H 
ATOM     36  C49 W61 d   1      57.737  65.809  39.077  0.00  0.00    -0.007 C 
ATOM     37  H25 W61 d   1      58.480  66.606  38.928  0.00  0.00     0.051 H 
ATOM     38  H26 W61 d   1      57.032  66.108  39.867  0.00  0.00     0.051 H 
ATOM     39  H27 W61 d   1      55.924  65.374  37.993  0.00  0.00     0.065 H 
ATOM     40  H28 W61 d   1      57.119  66.362  37.086  0.00  0.00     0.065 H 
ATOM     41  O57 W61 d   1      57.364  62.868  35.365  0.00  0.00    -0.271 OA
ENDBRANCH  21  29
ENDBRANCH   4  16
BRANCH   1  42
ATOM     42  C1  W61 d   1      48.155  63.419  34.367  0.00  0.00     0.045 A 
ATOM     43  C2  W61 d   1      47.630  62.429  35.216  0.00  0.00    -0.024 A 
ATOM     44  C3  W61 d   1      46.287  62.036  35.102  0.00  0.00     0.143 A 
ATOM     45  H1  W61 d   1      48.266  61.967  35.963  0.00  0.00     0.090 H 
ATOM     46  N4  W61 d   1      45.490  62.580  34.159  0.00  0.00    -0.243 NA
ATOM     47  C5  W61 d   1      45.948  63.521  33.316  0.00  0.00     0.070 A 
ATOM     48  C6  W61 d   1      47.281  63.966  33.399  0.00  0.00     0.019 A 
ATOM     49  C10 W61 d   1      45.062  64.045  32.380  0.00  0.00    -0.054 A 
ATOM     50  C7  W61 d   1      47.697  64.953  32.509  0.00  0.00    -0.069 A 
ATOM     51  C8  W61 d   1      46.815  65.478  31.569  0.00  0.00    -0.082 A 
ATOM     52  H2  W61 d   1      48.718  65.316  32.549  0.00  0.00     0.085 H 
ATOM     53  C9  W61 d   1      45.494  65.032  31.500  0.00  0.00    -0.081 A 
ATOM     54  H3  W61 d   1      47.158  66.243  30.882  0.00  0.00     0.083 H 
ATOM     55  H4  W61 d   1      44.812  65.450  30.768  0.00  0.00     0.083 H 
ATOM     56  H5  W61 d   1      44.040  63.686  32.337  0.00  0.00     0.087 H 
BRANCH  44  57
ATOM     57  C11 W61 d   1      45.627  60.979  35.945  0.00  0.00     0.434 C 
ATOM     58  F52 W61 d   1      45.312  59.995  35.130  0.00  0.00    -0.165 F 
ATOM     59  F53 W61 d   1      46.384  60.494  36.911  0.00  0.00    -0.165 F 
ATOM     60  F54 W61 d   1      44.503  61.466  36.431  0.00  0.00    -0.165 F 
ENDBRANCH  44  57
ENDBRANCH   1  42
TORSDOF 4
