REMARK  27 active torsions:
REMARK  status: ('A' for Active; 'I' for Inactive)
REMARK    1  A    between atoms: C1_2  and  C2_5 
REMARK    2  A    between atoms: C9_22  and  O1_3 
REMARK    3  A    between atoms: C21_25  and  B2_4 
REMARK    4  A    between atoms: C2_5  and  C3_8 
REMARK    5  A    between atoms: O2_6  and  C23_27 
REMARK    6  A    between atoms: C24_28  and  O2_6 
REMARK    7  A    between atoms: C21_25  and  B3_7 
REMARK    8  A    between atoms: C3_8  and  C4_11 
REMARK    9  A    between atoms: C25_29  and  O3_9 
REMARK   10  A    between atoms: B4_10  and  B9_21 
REMARK   11  A    between atoms: C21_25  and  B4_10 
REMARK   12  A    between atoms: B4_10  and  B5_13 
REMARK   13  A    between atoms: C4_11  and  C5_14 
REMARK   14  A    between atoms: C27_31  and  O4_12 
REMARK   15  A    between atoms: B9_21  and  B5_13 
REMARK   16  A    between atoms: C5_14  and  C9_22 
REMARK   17  A    between atoms: B6_15  and  B10_23 
REMARK   18  A    between atoms: C9_22  and  C6_16 
REMARK   19  A    between atoms: C6_16  and  C10_24 
REMARK   20  A    between atoms: C7_18  and  C8_20 
REMARK   21  A    between atoms: C9_22  and  C7_18 
REMARK   22  A    between atoms: B9_21  and  B8_19 
REMARK   23  A    between atoms: C22_26  and  C21_25 
REMARK   24  A    between atoms: C23_27  and  C22_26 
REMARK   25  A    between atoms: C25_29  and  C24_28 
REMARK   26  A    between atoms: C26_30  and  C25_29 
REMARK   27  A    between atoms: C26_30  and  C27_31 
ROOT
ATOM      1  B1  10S d   1      13.179   5.570  25.620  0.00  0.00     0.048 B 
ATOM      2  C1  10S d   1      13.480   2.737  25.909  0.00  0.00    -0.196 A 
ATOM      3  B2  10S d   1      13.498   4.840  24.076  0.00  0.00     0.048 B 
ATOM      4  B3  10S d   1      15.104   4.166  24.025  0.00  0.00     0.048 B 
ATOM      5  B4  10S d   1      15.808   4.418  25.624  0.00  0.00     0.048 B 
ATOM      6  B5  10S d   1      14.613   5.292  26.615  0.00  0.00     0.048 B 
ATOM      7  B6  10S d   1      12.468   4.008  25.176  0.00  0.00     0.048 B 
ATOM      8  B7  10S d   1      13.668   3.131  24.189  0.00  0.00     0.048 B 
ATOM      9  B8  10S d   1      15.117   2.838  25.183  0.00  0.00     0.048 B 
ATOM     10  B9  10S d   1      14.811   3.544  26.800  0.00  0.00     0.048 B 
ATOM     11  B10 10S d   1      13.172   4.269  26.797  0.00  0.00     0.048 B 
ATOM     12  C21 10S d   1      14.777   5.609  24.929  0.00  0.00    -0.194 A 
ENDROOT
BRANCH   2  13
ATOM     13  C2  10S d   1      12.854   1.360  26.240  0.00  0.00    -0.098 C 
ATOM     14  H   10S d   1      13.528   0.832  26.914  0.00  0.00     0.029 H 
ATOM     15  H   10S d   1      12.707   0.818  25.306  0.00  0.00     0.029 H 
BRANCH  13  16
ATOM     16  C3  10S d   1      11.496   1.502  26.932  0.00  0.00    -0.068 C 
ATOM     17  H   10S d   1      10.765   1.920  26.240  0.00  0.00     0.032 H 
ATOM     18  H   10S d   1      11.579   2.174  27.786  0.00  0.00     0.032 H 
BRANCH  16  19
ATOM     19  C4  10S d   1      11.047   0.110  27.397  0.00  0.00    -0.062 C 
ATOM     20  H   10S d   1      11.682  -0.212  28.223  0.00  0.00     0.033 H 
ATOM     21  H   10S d   1      11.129  -0.588  26.564  0.00  0.00     0.033 H 
BRANCH  19  22
ATOM     22  C5  10S d   1       9.591   0.154  27.872  0.00  0.00    -0.036 C 
ATOM     23  H   10S d   1       9.018   0.736  27.150  0.00  0.00     0.037 H 
ATOM     24  H   10S d   1       9.575   0.596  28.868  0.00  0.00     0.037 H 
BRANCH  22  25
ATOM     25  C9  10S d   1       8.960  -1.247  27.962  0.00  0.00     0.057 C 
BRANCH  25  26
ATOM     26  O1  10S d   1       9.857  -2.158  28.564  0.00  0.00    -0.390 OA
ATOM     27  H   10S d   1      10.072  -1.856  29.449  0.00  0.00     0.210 HD
ENDBRANCH  25  26
BRANCH  25  28
ATOM     28  C6  10S d   1       8.646  -1.809  26.557  0.00  0.00    -0.040 C 
ATOM     29  H   10S d   1       8.209  -2.800  26.685  0.00  0.00     0.036 H 
ATOM     30  H   10S d   1       9.577  -1.824  25.990  0.00  0.00     0.036 H 
BRANCH  28  31
ATOM     31  C10 10S d   1       7.640  -0.952  25.781  0.00  0.00    -0.074 C 
ATOM     32  H   10S d   1       6.703  -0.902  26.336  0.00  0.00     0.027 H 
ATOM     33  H   10S d   1       8.042   0.053  25.654  0.00  0.00     0.027 H 
ATOM     34  H   10S d   1       7.462  -1.399  24.803  0.00  0.00     0.027 H 
ENDBRANCH  28  31
ENDBRANCH  25  28
BRANCH  25  35
ATOM     35  C7  10S d   1       7.710  -1.124  28.874  0.00  0.00    -0.040 C 
ATOM     36  H   10S d   1       8.016  -0.653  29.808  0.00  0.00     0.036 H 
ATOM     37  H   10S d   1       6.960  -0.537  28.344  0.00  0.00     0.036 H 
BRANCH  35  38
ATOM     38  C8  10S d   1       7.099  -2.494  29.207  0.00  0.00    -0.074 C 
ATOM     39  H   10S d   1       6.799  -2.990  28.284  0.00  0.00     0.027 H 
ATOM     40  H   10S d   1       7.839  -3.104  29.725  0.00  0.00     0.027 H 
ATOM     41  H   10S d   1       6.228  -2.356  29.847  0.00  0.00     0.027 H 
ENDBRANCH  35  38
ENDBRANCH  25  35
ENDBRANCH  22  25
ENDBRANCH  19  22
ENDBRANCH  16  19
ENDBRANCH  13  16
ENDBRANCH   2  13
BRANCH  12  42
ATOM     42  C22 10S d   1      15.261   6.997  24.447  0.00  0.00    -0.076 C 
ATOM     43  H   10S d   1      16.319   6.937  24.193  0.00  0.00     0.031 H 
ATOM     44  H   10S d   1      15.105   7.725  25.243  0.00  0.00     0.031 H 
BRANCH  42  45
ATOM     45  C23 10S d   1      14.477   7.429  23.217  0.00  0.00     0.017 C 
ATOM     46  H   10S d   1      13.611   6.783  23.070  0.00  0.00     0.074 H 
ATOM     47  H   10S d   1      14.107   8.447  23.338  0.00  0.00     0.074 H 
BRANCH  45  48
ATOM     48  O2  10S d   1      15.346   7.348  22.114  0.00  0.00    -0.389 OA
BRANCH  48  49
ATOM     49  C24 10S d   1      14.709   7.998  21.050  0.00  0.00     0.043 C 
ATOM     50  H   10S d   1      14.729   9.075  21.218  0.00  0.00     0.078 H 
ATOM     51  H   10S d   1      13.675   7.660  20.985  0.00  0.00     0.078 H 
BRANCH  49  52
ATOM     52  C25 10S d   1      15.431   7.674  19.752  0.00  0.00     0.058 C 
ATOM     53  H   10S d   1      14.832   8.093  18.943  0.00  0.00     0.086 H 
BRANCH  52  54
ATOM     54  O3  10S d   1      16.718   8.244  19.739  0.00  0.00    -0.393 OA
ATOM     55  H   10S d   1      17.154   8.027  18.912  0.00  0.00     0.210 HD
ENDBRANCH  52  54
BRANCH  52  56
ATOM     56  C26 10S d   1      15.567   6.167  19.552  0.00  0.00    -0.019 C 
ATOM     57  H   10S d   1      15.655   5.681  20.524  0.00  0.00     0.040 H 
ATOM     58  H   10S d   1      16.456   5.961  18.955  0.00  0.00     0.040 H 
BRANCH  56  59
ATOM     59  C27 10S d   1      14.346   5.633  18.833  0.00  0.00     0.019 C 
ATOM     60  H   10S d   1      13.469   5.762  19.467  0.00  0.00     0.074 H 
ATOM     61  H   10S d   1      14.210   6.179  17.899  0.00  0.00     0.074 H 
BRANCH  59  62
ATOM     62  O4  10S d   1      14.520   4.263  18.551  0.00  0.00    -0.401 OA
ATOM     63  H   10S d   1      13.743   3.930  18.095  0.00  0.00     0.209 HD
ENDBRANCH  59  62
ENDBRANCH  56  59
ENDBRANCH  52  56
ENDBRANCH  49  52
ENDBRANCH  48  49
ENDBRANCH  45  48
ENDBRANCH  42  45
ENDBRANCH  12  42
TORSDOF 27
