REMARK  31 active torsions:
REMARK  status: ('A' for Active; 'I' for Inactive)
REMARK    1  A    between atoms: B1_1  and  B2_4 
REMARK    2  A    between atoms: B6_15  and  B1_1 
REMARK    3  A    between atoms: C1_2  and  C2_5 
REMARK    4  A    between atoms: B6_15  and  C1_2 
REMARK    5  A    between atoms: B10_23  and  C1_2 
REMARK    6  A    between atoms: C9_22  and  O1_3 
REMARK    7  A    between atoms: C21_25  and  B2_4 
REMARK    8  A    between atoms: C2_5  and  C3_8 
REMARK    9  A    between atoms: O2_6  and  C23_27 
REMARK   10  A    between atoms: C24_28  and  O2_6 
REMARK   11  A    between atoms: B3_7  and  C21_25 
REMARK   12  A    between atoms: C3_8  and  C4_11 
REMARK   13  A    between atoms: C25_29  and  O3_9 
REMARK   14  A    between atoms: B4_10  and  B9_21 
REMARK   15  A    between atoms: C21_25  and  B4_10 
REMARK   16  A    between atoms: B4_10  and  B5_13 
REMARK   17  A    between atoms: C4_11  and  C5_14 
REMARK   18  A    between atoms: C27_31  and  O4_12 
REMARK   19  A    between atoms: B9_21  and  B5_13 
REMARK   20  A    between atoms: C5_14  and  C9_22 
REMARK   21  A    between atoms: B6_15  and  B10_23 
REMARK   22  A    between atoms: C9_22  and  C6_16 
REMARK   23  A    between atoms: C6_16  and  C10_24 
REMARK   24  A    between atoms: C7_18  and  C8_20 
REMARK   25  A    between atoms: C9_22  and  C7_18 
REMARK   26  A    between atoms: B9_21  and  B10_23 
REMARK   27  A    between atoms: C22_26  and  C21_25 
REMARK   28  A    between atoms: C23_27  and  C22_26 
REMARK   29  A    between atoms: C25_29  and  C24_28 
REMARK   30  A    between atoms: C26_30  and  C25_29 
REMARK   31  A    between atoms: C26_30  and  C27_31 
ROOT
ATOM      1  C1  10R d   1      13.366   2.843  26.137  0.00  0.00    -0.196 A 
ATOM      2  B2  10R d   1      13.269   5.056  24.442  0.00  0.00     0.048 B 
ATOM      3  B3  10R d   1      14.847   4.357  24.202  0.00  0.00     0.048 B 
ATOM      4  B4  10R d   1      15.699   4.496  25.741  0.00  0.00     0.048 B 
ATOM      5  B6  10R d   1      12.324   4.176  25.578  0.00  0.00     0.048 B 
ATOM      6  B7  10R d   1      13.407   3.341  24.434  0.00  0.00     0.048 B 
ATOM      7  B8  10R d   1      14.933   2.959  25.271  0.00  0.00     0.048 B 
ATOM      8  B9  10R d   1      14.791   3.568  26.949  0.00  0.00     0.048 B 
ENDROOT
BRANCH   1   9
ATOM      9  C2  10R d   1      12.736   1.457  26.446  0.00  0.00    -0.098 C 
ATOM     10  H   10R d   1      13.345   0.967  27.206  0.00  0.00     0.029 H 
ATOM     11  H   10R d   1      12.701   0.883  25.520  0.00  0.00     0.029 H 
BRANCH   9  12
ATOM     12  C3  10R d   1      11.305   1.586  26.986  0.00  0.00    -0.068 C 
ATOM     13  H   10R d   1      10.637   1.904  26.186  0.00  0.00     0.032 H 
ATOM     14  H   10R d   1      11.279   2.327  27.785  0.00  0.00     0.032 H 
BRANCH  12  15
ATOM     15  C4  10R d   1      10.850   0.219  27.530  0.00  0.00    -0.062 C 
ATOM     16  H   10R d   1      11.497  -0.065  28.360  0.00  0.00     0.033 H 
ATOM     17  H   10R d   1      10.910  -0.518  26.729  0.00  0.00     0.033 H 
BRANCH  15  18
ATOM     18  C5  10R d   1       9.399   0.294  28.031  0.00  0.00    -0.036 C 
ATOM     19  H   10R d   1       8.835   0.908  27.329  0.00  0.00     0.037 H 
ATOM     20  H   10R d   1       9.415   0.710  29.038  0.00  0.00     0.037 H 
BRANCH  18  21
ATOM     21  C9  10R d   1       8.718  -1.089  28.102  0.00  0.00     0.057 C 
BRANCH  21  22
ATOM     22  O1  10R d   1       9.595  -2.036  28.696  0.00  0.00    -0.390 OA
ATOM     23  H   10R d   1       9.820  -1.749  29.584  0.00  0.00     0.210 HD
ENDBRANCH  21  22
BRANCH  21  24
ATOM     24  C6  10R d   1       8.369  -1.630  26.693  0.00  0.00    -0.040 C 
ATOM     25  H   10R d   1       7.837  -2.572  26.825  0.00  0.00     0.036 H 
ATOM     26  H   10R d   1       9.303  -1.734  26.140  0.00  0.00     0.036 H 
BRANCH  24  27
ATOM     27  C10 10R d   1       7.456  -0.691  25.888  0.00  0.00    -0.074 C 
ATOM     28  H   10R d   1       6.519  -0.548  26.426  0.00  0.00     0.027 H 
ATOM     29  H   10R d   1       7.952   0.271  25.757  0.00  0.00     0.027 H 
ATOM     30  H   10R d   1       7.253  -1.132  24.912  0.00  0.00     0.027 H 
ENDBRANCH  24  27
ENDBRANCH  21  24
BRANCH  21  31
ATOM     31  C7  10R d   1       7.477  -0.946  29.014  0.00  0.00    -0.040 C 
ATOM     32  H   10R d   1       7.788  -0.455  29.936  0.00  0.00     0.036 H 
ATOM     33  H   10R d   1       6.724  -0.371  28.475  0.00  0.00     0.036 H 
BRANCH  31  34
ATOM     34  C8  10R d   1       6.866  -2.308  29.381  0.00  0.00    -0.074 C 
ATOM     35  H   10R d   1       6.561  -2.825  28.471  0.00  0.00     0.027 H 
ATOM     36  H   10R d   1       7.608  -2.907  29.909  0.00  0.00     0.027 H 
ATOM     37  H   10R d   1       5.998  -2.155  30.022  0.00  0.00     0.027 H 
ENDBRANCH  31  34
ENDBRANCH  21  31
ENDBRANCH  18  21
ENDBRANCH  15  18
ENDBRANCH  12  15
ENDBRANCH   9  12
ENDBRANCH   1   9
BRANCH   1  38
ATOM     38  B10 10R d   1      13.178   4.322  27.140  0.00  0.00     0.048 B 
ATOM     39  B1  10R d   1      13.111   5.694  26.050  0.00  0.00     0.048 B 
ATOM     40  B5  10R d   1      14.620   5.328  26.890  0.00  0.00     0.048 B 
ATOM     41  C21 10R d   1      14.639   5.746  25.219  0.00  0.00    -0.194 A 
BRANCH  41  42
ATOM     42  C22 10R d   1      15.099   7.144  24.783  0.00  0.00    -0.076 C 
ATOM     43  H   10R d   1      16.166   7.119  24.564  0.00  0.00     0.031 H 
ATOM     44  H   10R d   1      14.902   7.854  25.586  0.00  0.00     0.031 H 
BRANCH  42  45
ATOM     45  C23 10R d   1      14.340   7.573  23.536  0.00  0.00     0.017 C 
ATOM     46  H   10R d   1      13.370   7.079  23.479  0.00  0.00     0.074 H 
ATOM     47  H   10R d   1      14.139   8.644  23.549  0.00  0.00     0.074 H 
BRANCH  45  48
ATOM     48  O2  10R d   1      15.145   7.226  22.445  0.00  0.00    -0.389 OA
BRANCH  48  49
ATOM     49  C24 10R d   1      14.790   8.051  21.377  0.00  0.00     0.043 C 
ATOM     50  H   10R d   1      15.071   9.086  21.572  0.00  0.00     0.078 H 
ATOM     51  H   10R d   1      13.711   8.049  21.223  0.00  0.00     0.078 H 
BRANCH  49  52
ATOM     52  C25 10R d   1      15.510   7.514  20.167  0.00  0.00     0.058 C 
ATOM     53  H   10R d   1      16.281   6.826  20.515  0.00  0.00     0.086 H 
BRANCH  52  54
ATOM     54  O3  10R d   1      16.120   8.558  19.438  0.00  0.00    -0.393 OA
ATOM     55  H   10R d   1      16.754   9.011  19.999  0.00  0.00     0.210 HD
ENDBRANCH  52  54
BRANCH  52  56
ATOM     56  C26 10R d   1      14.542   6.785  19.266  0.00  0.00    -0.019 C 
ATOM     57  H   10R d   1      14.774   7.003  18.224  0.00  0.00     0.040 H 
ATOM     58  H   10R d   1      13.524   7.112  19.478  0.00  0.00     0.040 H 
BRANCH  56  59
ATOM     59  C27 10R d   1      14.664   5.294  19.517  0.00  0.00     0.019 C 
ATOM     60  H   10R d   1      15.674   5.071  19.862  0.00  0.00     0.074 H 
ATOM     61  H   10R d   1      13.936   4.997  20.272  0.00  0.00     0.074 H 
BRANCH  59  62
ATOM     62  O4  10R d   1      14.413   4.581  18.327  0.00  0.00    -0.401 OA
ATOM     63  H   10R d   1      13.525   4.778  18.018  0.00  0.00     0.209 HD
ENDBRANCH  59  62
ENDBRANCH  56  59
ENDBRANCH  52  56
ENDBRANCH  49  52
ENDBRANCH  48  49
ENDBRANCH  45  48
ENDBRANCH  42  45
ENDBRANCH  41  42
ENDBRANCH   1  38
TORSDOF 31
