REMARK  7 active torsions:
REMARK  status: ('A' for Active; 'I' for Inactive)
REMARK    1  A    between atoms: C5_5  and  O6_6 
REMARK    2  A    between atoms: O6_6  and  C7_7 
REMARK    3  A    between atoms: C12_12  and  N13_13 
REMARK       I    between atoms: N13_13  and  C14_14 
REMARK    4  A    between atoms: C14_14  and  C16_16 
REMARK    5  A    between atoms: C23_23  and  N24_24 
REMARK       I    between atoms: N24_24  and  C25_25 
REMARK    6  A    between atoms: C25_25  and  C27_27 
REMARK    7  A    between atoms: C31_31  and  C34_34 
ROOT
ATOM      1  C34 0JA d   1      31.617 -30.080 -20.495  0.00  0.00     0.078 A 
ATOM      2  C35 0JA d   1      31.571 -30.785 -21.825  0.00  0.00    -0.040 A 
ATOM      3  C36 0JA d   1      30.496 -29.807 -21.471  0.00  0.00    -0.040 A 
ATOM      4  C37 0JA d   1      32.580 -29.041 -20.409  0.00  0.00     0.074 C 
ATOM      5  N38 0JA d   1      33.374 -28.203 -20.327  0.00  0.00    -0.196 NA
ATOM      6  H16 0JA d   1      31.342 -31.860 -21.869  0.00  0.00     0.036 H 
ATOM      7  H17 0JA d   1      32.306 -30.535 -22.605  0.00  0.00     0.036 H 
ATOM      8  H18 0JA d   1      30.442 -28.838 -21.989  0.00  0.00     0.036 H 
ATOM      9  H19 0JA d   1      29.479 -30.164 -21.253  0.00  0.00     0.036 H 
ENDROOT
BRANCH   1  10
ATOM     10  C31 0JA d   1      31.231 -30.858 -19.295  0.00  0.00    -0.013 A 
ATOM     11  C30 0JA d   1      31.545 -32.199 -19.208  0.00  0.00    -0.073 A 
ATOM     12  C29 0JA d   1      31.201 -32.949 -18.107  0.00  0.00    -0.081 A 
ATOM     13  H15 0JA d   1      32.075 -32.673 -20.026  0.00  0.00     0.084 H 
ATOM     14  C28 0JA d   1      30.509 -32.374 -17.063  0.00  0.00    -0.066 A 
ATOM     15  H14 0JA d   1      31.475 -33.997 -18.061  0.00  0.00     0.083 H 
ATOM     16  C27 0JA d   1      30.195 -31.037 -17.127  0.00  0.00     0.054 A 
ATOM     17  H13 0JA d   1      30.217 -32.967 -16.204  0.00  0.00     0.085 H 
ATOM     18  C32 0JA d   1      30.551 -30.285 -18.233  0.00  0.00     0.057 A 
ATOM     19 CL3  0JA d   1      30.165 -28.603 -18.318  0.00  0.00    -0.083 Cl
BRANCH  16  20
ATOM     20  C25 0JA d   1      29.417 -30.463 -16.007  0.00  0.00     0.258 C 
ATOM     21  N24 0JA d   1      29.781 -30.837 -14.743  0.00  0.00    -0.320 N 
ATOM     22  H12 0JA d   1      30.595 -31.405 -14.624  0.00  0.00     0.169 HD
ATOM     23  O26 0JA d   1      28.432 -29.790 -16.282  0.00  0.00    -0.267 OA
BRANCH  21  24
ATOM     24  C23 0JA d   1      29.051 -30.451 -13.606  0.00  0.00     0.076 A 
ATOM     25  C2  0JA d   1      29.760 -30.358 -12.437  0.00  0.00     0.143 A 
ATOM     26  F1  0JA d   1      31.088 -30.623 -12.461  0.00  0.00    -0.204 F 
ATOM     27  C3  0JA d   1      29.142 -30.000 -11.261  0.00  0.00    -0.041 A 
ATOM     28  C4  0JA d   1      27.788 -29.737 -11.249  0.00  0.00    -0.047 A 
ATOM     29  H1  0JA d   1      29.718 -29.925 -10.346  0.00  0.00     0.088 H 
ATOM     30  C5  0JA d   1      27.073 -29.837 -12.422  0.00  0.00     0.080 A 
ATOM     31  H2  0JA d   1      27.292 -29.455 -10.327  0.00  0.00     0.087 H 
ATOM     32  C22 0JA d   1      27.693 -30.204 -13.603  0.00  0.00    -0.021 A 
ATOM     33  H11 0JA d   1      27.118 -30.297 -14.517  0.00  0.00     0.091 H 
BRANCH  30  34
ATOM     34  O6  0JA d   1      25.693 -29.630 -12.424  0.00  0.00    -0.292 OA
BRANCH  34  35
ATOM     35  C7  0JA d   1      25.126 -28.391 -12.201  0.00  0.00     0.171 A 
ATOM     36  C8  0JA d   1      25.838 -27.226 -12.355  0.00  0.00    -0.029 A 
ATOM     37  C9  0JA d   1      25.210 -26.018 -12.121  0.00  0.00    -0.048 A 
ATOM     38  H3  0JA d   1      26.879 -27.254 -12.656  0.00  0.00     0.090 H 
ATOM     39  C10 0JA d   1      23.878 -26.064 -11.753  0.00  0.00     0.095 A 
ATOM     40  H4  0JA d   1      25.738 -25.076 -12.221  0.00  0.00     0.087 H 
ATOM     41  N11 0JA d   1      23.050 -25.005 -11.476  0.00  0.00    -0.222 NA
ATOM     42  C20 0JA d   1      23.264 -27.295 -11.643  0.00  0.00     0.132 A 
ATOM     43  C12 0JA d   1      21.843 -25.437 -11.171  0.00  0.00     0.176 A 
ATOM     44  S19 0JA d   1      21.608 -27.149 -11.194  0.00  0.00    -0.030 SA
ATOM     45  N21 0JA d   1      23.838 -28.475 -11.859  0.00  0.00    -0.215 NA
BRANCH  43  46
ATOM     46  N13 0JA d   1      20.800 -24.585 -10.845  0.00  0.00    -0.305 N 
ATOM     47  C14 0JA d   1      19.590 -25.044 -10.393  0.00  0.00     0.227 C 
ATOM     48  O15 0JA d   1      19.253 -26.209 -10.241  0.00  0.00    -0.273 OA
ATOM     49  H5  0JA d   1      20.935 -23.599 -10.943  0.00  0.00     0.171 HD
BRANCH  47  50
ATOM     50  C16 0JA d   1      18.664 -23.944 -10.078  0.00  0.00     0.024 A 
ATOM     51  C17 0JA d   1      17.186 -24.146 -10.266  0.00  0.00    -0.053 A 
ATOM     52  C18 0JA d   1      17.749 -24.025  -8.886  0.00  0.00    -0.053 A 
ATOM     53  H7  0JA d   1      16.805 -25.115 -10.621  0.00  0.00     0.034 H 
ATOM     54  H8  0JA d   1      16.569 -23.335 -10.681  0.00  0.00     0.034 H 
ATOM     55  H9  0JA d   1      17.546 -23.125  -8.287  0.00  0.00     0.034 H 
ATOM     56  H10 0JA d   1      17.782 -24.905  -8.227  0.00  0.00     0.034 H 
ATOM     57  H6  0JA d   1      19.131 -22.985 -10.345  0.00  0.00     0.054 H 
ENDBRANCH  47  50
ENDBRANCH  43  46
ENDBRANCH  34  35
ENDBRANCH  30  34
ENDBRANCH  21  24
ENDBRANCH  16  20
ENDBRANCH   1  10
TORSDOF 7
