REMARK  8 active torsions:
REMARK  status: ('A' for Active; 'I' for Inactive)
REMARK    1  A    between atoms: C5_7  and  N7_28 
REMARK    2  A    between atoms: O17_32  and  C1_8 
REMARK    3  A    between atoms: C8_16  and  C10_9 
REMARK    4  A    between atoms: C12_10  and  C16_21 
REMARK    5  A    between atoms: N26_29  and  C24_11 
REMARK    6  A    between atoms: C18_15  and  O17_32 
REMARK       I    between atoms: N7_28  and  C8_16 
REMARK    7  A    between atoms: C29_20  and  C27_17 
REMARK       I    between atoms: C27_17  and  N26_29 
REMARK    8  A    between atoms: N14_27  and  C15_22 
ROOT
ATOM      1  C3  0KF d   1      28.702 -29.284 -11.436  0.00  0.00    -0.078 A 
ATOM      2  C4  0KF d   1      29.374 -29.649 -12.576  0.00  0.00    -0.057 A 
ATOM      3  C2  0KF d   1      27.351 -29.023 -11.450  0.00  0.00    -0.050 A 
ATOM      4  C6  0KF d   1      27.331 -29.475 -13.811  0.00  0.00    -0.024 A 
ATOM      5  C5  0KF d   1      28.685 -29.732 -13.765  0.00  0.00     0.037 A 
ATOM      6  C1  0KF d   1      26.680 -29.120 -12.648  0.00  0.00     0.080 A 
ATOM      7  H1  0KF d   1      29.248 -29.199 -10.503  0.00  0.00     0.083 H 
ATOM      8  H2  0KF d   1      30.435 -29.869 -12.540  0.00  0.00     0.086 H 
ATOM      9  H3  0KF d   1      26.828 -28.748 -10.541  0.00  0.00     0.087 H 
ATOM     10  H4  0KF d   1      26.787 -29.551 -14.746  0.00  0.00     0.091 H 
ENDROOT
BRANCH   6  11
ATOM     11  O17 0KF d   1      25.320 -28.893 -12.713  0.00  0.00    -0.291 OA
BRANCH  11  12
ATOM     12  C18 0KF d   1      24.801 -27.649 -12.432  0.00  0.00     0.189 A 
ATOM     13  C19 0KF d   1      25.495 -26.495 -12.568  0.00  0.00    -0.026 A 
ATOM     14  C20 0KF d   1      24.926 -25.209 -12.286  0.00  0.00    -0.033 A 
ATOM     15  H8  0KF d   1      26.529 -26.545 -12.906  0.00  0.00     0.090 H 
ATOM     16  C21 0KF d   1      23.641 -25.291 -11.895  0.00  0.00     0.153 A 
ATOM     17  H7  0KF d   1      25.473 -24.271 -12.378  0.00  0.00     0.089 H 
ATOM     18  N25 0KF d   1      22.886 -24.278 -11.606  0.00  0.00    -0.210 NA
ATOM     19  N22 0KF d   1      23.030 -26.490 -11.777  0.00  0.00    -0.221 N 
ATOM     20  C24 0KF d   1      21.684 -24.883 -11.292  0.00  0.00     0.150 A 
ATOM     21  C23 0KF d   1      21.748 -26.218 -11.397  0.00  0.00     0.050 A 
ATOM     22  H6  0KF d   1      20.947 -26.933 -11.217  0.00  0.00     0.120 H 
ATOM     23  N32 0KF d   1      23.602 -27.691 -12.040  0.00  0.00    -0.140 NA
BRANCH  20  24
ATOM     24  N26 0KF d   1      20.564 -24.142 -10.943  0.00  0.00    -0.310 N 
ATOM     25  C27 0KF d   1      19.352 -24.668 -10.551  0.00  0.00     0.227 C 
ATOM     26  O28 0KF d   1      19.077 -25.856 -10.448  0.00  0.00    -0.273 OA
ATOM     27  H21 0KF d   1      20.643 -23.146 -10.979  0.00  0.00     0.170 HD
BRANCH  25  28
ATOM     28  C29 0KF d   1      18.359 -23.631 -10.228  0.00  0.00     0.024 A 
ATOM     29  C30 0KF d   1      17.436 -23.791  -9.054  0.00  0.00    -0.053 A 
ATOM     30  C31 0KF d   1      16.898 -23.903 -10.447  0.00  0.00    -0.053 A 
ATOM     31  H9  0KF d   1      17.506 -24.686  -8.418  0.00  0.00     0.034 H 
ATOM     32  H10 0KF d   1      17.179 -22.919  -8.434  0.00  0.00     0.034 H 
ATOM     33  H11 0KF d   1      16.246 -23.114 -10.850  0.00  0.00     0.034 H 
ATOM     34  H12 0KF d   1      16.573 -24.880 -10.834  0.00  0.00     0.034 H 
ATOM     35  H13 0KF d   1      18.777 -22.641 -10.463  0.00  0.00     0.054 H 
ENDBRANCH  25  28
ENDBRANCH  20  24
ENDBRANCH  11  12
ENDBRANCH   6  11
BRANCH   5  36
ATOM     36  N7  0KF d   1      29.395 -30.105 -14.908  0.00  0.00    -0.322 N 
ATOM     37  C8  0KF d   1      29.173 -29.573 -16.146  0.00  0.00     0.274 C 
ATOM     38  O9  0KF d   1      28.308 -28.749 -16.392  0.00  0.00    -0.266 OA
ATOM     39  H20 0KF d   1      30.107 -30.801 -14.815  0.00  0.00     0.169 HD
BRANCH  37  40
ATOM     40  C10 0KF d   1      30.031 -30.113 -17.156  0.00  0.00     0.122 A 
ATOM     41  C11 0KF d   1      30.696 -31.320 -17.222  0.00  0.00    -0.025 A 
ATOM     42  C12 0KF d   1      31.382 -31.299 -18.460  0.00  0.00     0.053 A 
ATOM     43  H5  0KF d   1      30.694 -32.118 -16.481  0.00  0.00     0.090 H 
ATOM     44  N13 0KF d   1      31.169 -30.166 -19.131  0.00  0.00    -0.177 NA
ATOM     45  N14 0KF d   1      30.360 -29.471 -18.321  0.00  0.00    -0.269 N 
BRANCH  42  46
ATOM     46  C16 0KF d   1      32.245 -32.345 -19.037  0.00  0.00    -0.034 C 
ATOM     47  H14 0KF d   1      32.623 -32.011 -20.014  0.00  0.00     0.035 H 
ATOM     48  H15 0KF d   1      31.664 -33.270 -19.166  0.00  0.00     0.035 H 
ATOM     49  H16 0KF d   1      33.092 -32.535 -18.362  0.00  0.00     0.035 H 
ENDBRANCH  42  46
BRANCH  45  50
ATOM     50  C15 0KF d   1      29.918 -28.160 -18.754  0.00  0.00     0.003 C 
ATOM     51  H17 0KF d   1      30.359 -27.930 -19.735  0.00  0.00     0.059 H 
ATOM     52  H18 0KF d   1      30.239 -27.404 -18.022  0.00  0.00     0.059 H 
ATOM     53  H19 0KF d   1      28.821 -28.151 -18.834  0.00  0.00     0.059 H 
ENDBRANCH  45  50
ENDBRANCH  37  40
ENDBRANCH   5  36
TORSDOF 8
