REMARK  5 active torsions:
REMARK  status: ('A' for Active; 'I' for Inactive)
REMARK    1  A    between atoms: CAP_8  and  CAN_7 
REMARK    2  A    between atoms: CBG_17  and  CAP_8 
REMARK    3  A    between atoms: CBC_15  and  CAR_9 
REMARK    4  A    between atoms: CAR_9  and  CBE_16 
REMARK       I    between atoms: NAX_12  and  CBC_15 
REMARK    5  A    between atoms: NAX_12  and  CBI_18 
ROOT
ATOM      1  OAB 04A d   1       1.563 -10.022  -0.451  0.00  0.00    -0.273 OA
ATOM      2  NAX 04A d   1       2.815 -10.073  -2.351  0.00  0.00    -0.304 N 
ATOM      3  CBC 04A d   1       1.602 -10.001  -1.671  0.00  0.00     0.227 C 
ATOM      4  H11 04A d   1       2.935 -10.060  -3.344  0.00  0.00     0.171 HD
ENDROOT
BRANCH   3   5
ATOM      5  CAR 04A d   1       0.219  -9.894  -2.254  0.00  0.00     0.033 C 
ATOM      6  H9  04A d   1      -0.229 -10.895  -2.166  0.00  0.00     0.054 H 
ATOM      7  H10 04A d   1       0.353  -9.645  -3.317  0.00  0.00     0.054 H 
BRANCH   5   8
ATOM      8  CBE 04A d   1      -0.833  -8.902  -1.709  0.00  0.00    -0.050 A 
ATOM      9  CAK 04A d   1      -1.817  -9.463  -0.757  0.00  0.00    -0.076 A 
ATOM     10  CAG 04A d   1      -2.834  -8.630  -0.195  0.00  0.00    -0.082 A 
ATOM     11  H4  04A d   1      -1.766 -10.511  -0.484  0.00  0.00     0.084 H 
ATOM     12  CAD 04A d   1      -2.923  -7.231  -0.540  0.00  0.00    -0.083 A 
ATOM     13  H2  04A d   1      -3.549  -9.055   0.500  0.00  0.00     0.083 H 
ATOM     14  CAH 04A d   1      -1.975  -6.635  -1.472  0.00  0.00    -0.082 A 
ATOM     15  H1  04A d   1      -3.702  -6.618  -0.102  0.00  0.00     0.083 H 
ATOM     16  CAL 04A d   1      -0.907  -7.516  -2.062  0.00  0.00    -0.076 A 
ATOM     17  H3  04A d   1      -2.037  -5.585  -1.734  0.00  0.00     0.083 H 
ATOM     18  H5  04A d   1      -0.189  -7.099  -2.759  0.00  0.00     0.084 H 
ENDBRANCH   5   8
ENDBRANCH   3   5
BRANCH   2  19
ATOM     19  CBI 04A d   1       3.845 -10.168  -1.392  0.00  0.00     0.196 A 
ATOM     20  NAV 04A d   1       3.926 -10.205   0.009  0.00  0.00    -0.123 NA
ATOM     21  NAT 04A d   1       5.109 -10.302   0.501  0.00  0.00    -0.145 NA
ATOM     22  CBG 04A d   1       6.076 -10.350  -0.467  0.00  0.00     0.105 A 
ATOM     23  SBA 04A d   1       5.459 -10.271  -1.970  0.00  0.00    -0.033 SA
BRANCH  22  24
ATOM     24  CAP 04A d   1       7.399 -10.457   0.207  0.00  0.00     0.008 C 
ATOM     25  H7  04A d   1       7.349 -11.100   1.098  0.00  0.00     0.050 H 
ATOM     26  H8  04A d   1       8.172 -10.837  -0.477  0.00  0.00     0.050 H 
BRANCH  24  27
ATOM     27  CAN 04A d   1       7.652  -8.974   0.587  0.00  0.00    -0.034 C 
ATOM     28  SAY 04A d   1       7.850  -7.850   0.000  0.00  0.00    -0.097 SA
ATOM     29  H6  04A d   1       7.665  -8.851   1.669  0.00  0.00     0.095 H 
ENDBRANCH  24  27
ENDBRANCH  22  24
ENDBRANCH   2  19
TORSDOF 5
