REMARK  3 active torsions:
REMARK  status: ('A' for Active; 'I' for Inactive)
REMARK    1  A    between atoms: C31_6  and  N27_3 
REMARK    2  A    between atoms: C30_5  and  C32_7 
REMARK    3  A    between atoms: C30_5  and  C33_8 
ROOT
ATOM      1  N26 BP0 d   1       4.417  -9.921   0.510  0.00  0.00    -0.089 NA
ATOM      2  N28 BP0 d   1       3.251  -9.997  -0.140  0.00  0.00    -0.155 NA
ATOM      3  C31 BP0 d   1       3.423 -10.065  -1.534  0.00  0.00     0.177 A 
ATOM      4  C33 BP0 d   1       5.510  -9.929  -0.383  0.00  0.00     0.145 A 
ATOM      5  S35 BP0 d   1       5.070 -10.033  -1.954  0.00  0.00    -0.058 SA
ENDROOT
BRANCH   4   6
ATOM      6  C30 BP0 d   1       6.822  -9.837   0.330  0.00  0.00    -0.006 C 
ATOM      7  H   BP0 d   1       6.701 -10.275   1.321  0.00  0.00     0.044 H 
ATOM      8  H   BP0 d   1       7.569 -10.364  -0.264  0.00  0.00     0.044 H 
BRANCH   6   9
ATOM      9  C32 BP0 d   1       7.174  -8.738   0.461  0.00  0.00    -0.038 C 
ATOM     10  S18 BP0 d   1       7.850  -7.850   0.000  0.00  0.00    -0.097 SA
ATOM     11  H   BP0 d   1       6.704  -8.352   1.366  0.00  0.00     0.095 H 
ENDBRANCH   6   9
ENDBRANCH   4   6
BRANCH   3  12
ATOM     12  N27 BP0 d   1       2.278 -10.145  -2.351  0.00  0.00    -0.377 N 
ATOM     13  H   BP0 d   1       1.350 -10.153  -1.929  0.00  0.00     0.158 HD
ATOM     14  H   BP0 d   1       2.377 -10.195  -3.365  0.00  0.00     0.158 HD
ENDBRANCH   3  12
TORSDOF 3
