REMARK  3 active torsions:
REMARK  status: ('A' for Active; 'I' for Inactive)
REMARK    1  A    between atoms: C1_1  and  C32_2 
REMARK    2  A    between atoms: C32_2  and  C30_3 
REMARK    3  A    between atoms: C30_3  and  C33_4 
ROOT
ATOM      1  C30 BP8 d   1       7.036  -9.495  -0.230  0.00  0.00    -0.017 C 
ATOM      2  H   BP8 d   1       7.780 -10.266  -0.029  0.00  0.00     0.043 H 
ATOM      3  H   BP8 d   1       7.532  -9.108  -1.120  0.00  0.00     0.043 H 
ENDROOT
BRANCH   1   4
ATOM      4  C32 BP8 d   1       6.747  -8.499   0.892  0.00  0.00    -0.063 C 
ATOM      5  H   BP8 d   1       5.748  -8.300   1.280  0.00  0.00     0.033 H 
ATOM      6  H   BP8 d   1       6.989  -8.682   1.939  0.00  0.00     0.033 H 
BRANCH   4   7
ATOM      7  C1  BP8 d   1       7.522  -7.522   0.000  0.00  0.00    -0.076 C 
ATOM      8  H   BP8 d   1       8.533  -7.898  -0.155  0.00  0.00     0.027 H 
ATOM      9  H   BP8 d   1       7.016  -7.430  -0.961  0.00  0.00     0.027 H 
ATOM     10  H   BP8 d   1       7.566  -6.546   0.484  0.00  0.00     0.027 H 
ENDBRANCH   4   7
ENDBRANCH   1   4
BRANCH   1  11
ATOM     11  C33 BP8 d   1       5.594  -9.951  -0.386  0.00  0.00     0.101 A 
ATOM     12  S35 BP8 d   1       4.799 -10.175  -1.891  0.00  0.00    -0.034 SA
ATOM     13  C31 BP8 d   1       3.270 -10.023  -1.136  0.00  0.00     0.187 A 
ATOM     14  N28 BP8 d   1       3.553  -9.835   0.173  0.00  0.00    -0.124 NA
ATOM     15  N27 BP8 d   1       2.075 -10.015  -1.721  0.00  0.00    -0.377 N 
ATOM     16  N26 BP8 d   1       4.704  -9.785   0.658  0.00  0.00    -0.145 NA
ATOM     17  H   BP8 d   1       1.236  -9.852  -1.165  0.00  0.00     0.158 HD
ATOM     18  H   BP8 d   1       1.998 -10.171  -2.726  0.00  0.00     0.158 HD
ENDBRANCH   1  11
TORSDOF 3
