REMARK  3 active torsions:
REMARK  status: ('A' for Active; 'I' for Inactive)
REMARK    1  A    between atoms: C31_5  and  N27_2 
REMARK    2  A    between atoms: C30_4  and  C32_6 
REMARK    3  A    between atoms: C30_4  and  C33_7 
ROOT
ATOM      1  N26 BP9 d   1       4.305  -9.991   0.530  0.00  0.00    -0.089 NA
ATOM      2  N28 BP9 d   1       3.128 -10.025  -0.127  0.00  0.00    -0.155 NA
ATOM      3  C31 BP9 d   1       3.212 -10.021  -1.562  0.00  0.00     0.177 A 
ATOM      4  C33 BP9 d   1       5.402  -9.958  -0.338  0.00  0.00     0.141 A 
ATOM      5  S35 BP9 d   1       4.887  -9.973  -1.866  0.00  0.00    -0.059 SA
ENDROOT
BRANCH   4   6
ATOM      6  C30 BP9 d   1       6.681  -9.920   0.444  0.00  0.00    -0.034 C 
ATOM      7  H   BP9 d   1       6.539 -10.336   1.442  0.00  0.00     0.036 H 
ATOM      8  H   BP9 d   1       7.450 -10.523  -0.039  0.00  0.00     0.036 H 
BRANCH   6   9
ATOM      9  C32 BP9 d   1       7.104  -8.455   0.519  0.00  0.00    -0.074 C 
ATOM     10  H   BP9 d   1       7.253  -8.069  -0.489  0.00  0.00     0.027 H 
ATOM     11  H   BP9 d   1       6.325  -7.878   1.019  0.00  0.00     0.027 H 
ATOM     12  H   BP9 d   1       8.034  -8.375   1.081  0.00  0.00     0.027 H 
ENDBRANCH   6   9
ENDBRANCH   4   6
BRANCH   3  13
ATOM     13  N27 BP9 d   1       2.324 -10.045  -2.650  0.00  0.00    -0.377 N 
ATOM     14  H   BP9 d   1       1.318 -10.074  -2.486  0.00  0.00     0.158 HD
ATOM     15  H   BP9 d   1       2.686 -10.034  -3.604  0.00  0.00     0.158 HD
ENDBRANCH   3  13
TORSDOF 3
