REMARK  8 active torsions:
REMARK  status: ('A' for Active; 'I' for Inactive)
REMARK    1  A    between atoms: C1_1  and  S_11 
REMARK    2  A    between atoms: S_11  and  N1'_14 
REMARK    3  A    between atoms: N1'_14  and  C2'_15 
REMARK    4  A    between atoms: C2'_15  and  C3'_16 
REMARK    5  A    between atoms: C3'_16  and  N4'_17 
REMARK    6  A    between atoms: N4'_17  and  C5'_18 
REMARK    7  A    between atoms: C5'_18  and  C6'_19 
REMARK    8  A    between atoms: C7'_20  and  C1'_21 
ROOT
ATOM      1  C2' IQB d   1      -9.183   7.520  -3.511  0.00  0.00     0.025 C 
ATOM      2  H8  IQB d   1      -8.575   7.795  -2.636  0.00  0.00     0.067 H 
ATOM      3  H9  IQB d   1      -8.899   6.514  -3.853  0.00  0.00     0.067 H 
ENDROOT
BRANCH   1   4
ATOM      4  N1' IQB d   1      -8.911   8.493  -4.608  0.00  0.00    -0.314 N 
ATOM      5  H7  IQB d   1      -8.981   8.248  -5.575  0.00  0.00     0.172 HD
BRANCH   4   6
ATOM      6  S   IQB d   1      -8.489   9.993  -4.108  0.00  0.00     0.259 S 
ATOM      7  O1  IQB d   1      -8.218  10.851  -5.286  0.00  0.00    -0.201 OA
ATOM      8  O2  IQB d   1      -9.611  10.603  -3.339  0.00  0.00    -0.201 OA
BRANCH   6   9
ATOM      9  C1  IQB d   1      -7.062   9.949  -3.038  0.00  0.00     0.090 A 
ATOM     10  C2  IQB d   1      -7.265  10.017  -1.659  0.00  0.00    -0.059 A 
ATOM     11  C3  IQB d   1      -6.187   9.986  -0.777  0.00  0.00    -0.081 A 
ATOM     12  H1  IQB d   1      -8.274  10.095  -1.269  0.00  0.00     0.085 H 
ATOM     13  C4  IQB d   1      -4.883   9.896  -1.268  0.00  0.00    -0.071 A 
ATOM     14  H2  IQB d   1      -6.361  10.032   0.292  0.00  0.00     0.083 H 
ATOM     15  C5  IQB d   1      -4.666   9.839  -2.652  0.00  0.00    -0.007 A 
ATOM     16  H3  IQB d   1      -4.043   9.870  -0.583  0.00  0.00     0.084 H 
ATOM     17  C6  IQB d   1      -3.368   9.747  -3.163  0.00  0.00     0.013 A 
ATOM     18  C10 IQB d   1      -5.750   9.866  -3.531  0.00  0.00     0.000 A 
ATOM     19  N7  IQB d   1      -3.148   9.691  -4.475  0.00  0.00    -0.272 NA
ATOM     20  H4  IQB d   1      -2.527   9.721  -2.480  0.00  0.00     0.116 H 
ATOM     21  C8  IQB d   1      -4.153   9.720  -5.340  0.00  0.00     0.003 A 
ATOM     22  C9  IQB d   1      -5.478   9.806  -4.902  0.00  0.00    -0.054 A 
ATOM     23  H5  IQB d   1      -3.944   9.676  -6.403  0.00  0.00     0.114 H 
ATOM     24  H6  IQB d   1      -6.290   9.826  -5.620  0.00  0.00     0.087 H 
ENDBRANCH   6   9
ENDBRANCH   4   6
ENDBRANCH   1   4
BRANCH   1  25
ATOM     25  C3' IQB d   1     -10.668   7.500  -3.095  0.00  0.00     0.097 C 
ATOM     26  H10 IQB d   1     -10.861   8.349  -2.423  0.00  0.00     0.078 H 
ATOM     27  H11 IQB d   1     -10.877   6.559  -2.566  0.00  0.00     0.078 H 
BRANCH  25  28
ATOM     28  N4' IQB d   1     -11.564   7.601  -4.257  0.00  0.00    -0.070 N 
ATOM     29  H12 IQB d   1     -12.397   7.059  -4.087  0.00  0.00     0.277 HD
ATOM     30  H13 IQB d   1     -11.094   7.247  -5.075  0.00  0.00     0.277 HD
BRANCH  28  31
ATOM     31  C5' IQB d   1     -11.932   9.014  -4.474  0.00  0.00     0.097 C 
ATOM     32  H14 IQB d   1     -12.585   9.082  -5.356  0.00  0.00     0.081 H 
ATOM     33  H15 IQB d   1     -11.017   9.599  -4.649  0.00  0.00     0.081 H 
BRANCH  31  34
ATOM     34  C6' IQB d   1     -12.605   9.544  -3.369  0.00  0.00    -0.078 C 
ATOM     35  C7' IQB d   1     -12.361  10.867  -2.999  0.00  0.00    -0.075 C 
ATOM     36  H17 IQB d   1     -11.648  11.445  -3.584  0.00  0.00     0.084 H 
ATOM     37  H16 IQB d   1     -13.309   8.933  -2.806  0.00  0.00     0.079 H 
BRANCH  35  38
ATOM     38  C1' IQB d   1     -12.989  11.487  -1.912  0.00  0.00    -0.036 A 
ATOM     39  C2B IQB d   1     -13.906  10.796  -1.126  0.00  0.00    -0.072 A 
ATOM     40  C3B IQB d   1     -14.513  11.430  -0.045  0.00  0.00    -0.065 A 
ATOM     41  H18 IQB d   1     -14.148   9.764  -1.355  0.00  0.00     0.084 H 
ATOM     42  C4' IQB d   1     -14.210  12.757   0.259  0.00  0.00     0.011 A 
ATOM     43  H19 IQB d   1     -15.227  10.888   0.565  0.00  0.00     0.085 H 
ATOM     44 BR4' IQB d   1     -15.076  13.616   1.725  0.00  0.00    -0.051 Br
ATOM     45  C5B IQB d   1     -13.291  13.449  -0.531  0.00  0.00    -0.065 A 
ATOM     46  C6B IQB d   1     -12.693  12.810  -1.613  0.00  0.00    -0.072 A 
ATOM     47  H20 IQB d   1     -13.044  14.480  -0.303  0.00  0.00     0.085 H 
ATOM     48  H21 IQB d   1     -11.986  13.353  -2.231  0.00  0.00     0.084 H 
ENDBRANCH  35  38
ENDBRANCH  31  34
ENDBRANCH  28  31
ENDBRANCH  25  28
ENDBRANCH   1  25
TORSDOF 8
