REMARK  10 active torsions:
REMARK  status: ('A' for Active; 'I' for Inactive)
REMARK    1  A    between atoms: N1_1  and  C26_26 
REMARK    2  A    between atoms: N2_2  and  S3_3 
REMARK    3  A    between atoms: S3_3  and  C4_4 
REMARK    4  A    between atoms: C9_9  and  C40_37 
REMARK    5  A    between atoms: C12_12  and  C16_16 
REMARK       I    between atoms: C16_16  and  N18_18 
REMARK    6  A    between atoms: N18_18  and  C19_19 
REMARK    7  A    between atoms: C19_19  and  C20_20 
REMARK    8  A    between atoms: C23_23  and  O35_35 
REMARK    9  A    between atoms: C33_33  and  C44_38 
REMARK   10  A    between atoms: O35_35  and  C36_36 
ROOT
ATOM      1  N1  JT1 d   1      50.114  33.155  47.692  0.00  0.00    -0.356 N 
ATOM      2  N2  JT1 d   1      48.901  33.797  45.279  0.00  0.00    -0.290 N 
ATOM      3  C12 JT1 d   1      48.928  32.351  45.568  0.00  0.00     0.114 C 
ATOM      4  C13 JT1 d   1      49.170  32.238  47.113  0.00  0.00     0.025 C 
ATOM      5  C14 JT1 d   1      50.046  34.589  47.285  0.00  0.00     0.013 C 
ATOM      6  C15 JT1 d   1      49.927  34.707  45.758  0.00  0.00     0.021 C 
ATOM      7  H5  JT1 d   1      47.969  31.891  45.286  0.00  0.00     0.091 H 
ATOM      8  H6  JT1 d   1      48.203  32.396  47.613  0.00  0.00     0.068 H 
ATOM      9  H7  JT1 d   1      49.527  31.218  47.320  0.00  0.00     0.068 H 
ATOM     10  H8  JT1 d   1      50.959  35.104  47.618  0.00  0.00     0.066 H 
ATOM     11  H9  JT1 d   1      49.169  35.058  47.754  0.00  0.00     0.066 H 
ATOM     12  H10 JT1 d   1      49.656  35.739  45.490  0.00  0.00     0.067 H 
ATOM     13  H11 JT1 d   1      50.891  34.449  45.294  0.00  0.00     0.067 H 
ENDROOT
BRANCH   3  14
ATOM     14  C16 JT1 d   1      50.086  31.624  44.839  0.00  0.00     0.243 C 
ATOM     15  O17 JT1 d   1      50.508  30.472  45.222  0.00  0.00    -0.271 OA
ATOM     16  N18 JT1 d   1      50.702  32.307  43.802  0.00  0.00    -0.355 N 
ATOM     17  H12 JT1 d   1      50.520  33.274  43.623  0.00  0.00     0.162 HD
BRANCH  16  18
ATOM     18  C19 JT1 d   1      51.635  31.529  42.985  0.00  0.00     0.019 C 
ATOM     19  H13 JT1 d   1      52.192  30.866  43.664  0.00  0.00     0.071 H 
ATOM     20  H14 JT1 d   1      52.330  32.240  42.514  0.00  0.00     0.071 H 
BRANCH  18  21
ATOM     21  C20 JT1 d   1      51.058  30.664  41.882  0.00  0.00    -0.037 A 
ATOM     22  C21 JT1 d   1      51.163  29.263  42.011  0.00  0.00    -0.072 A 
ATOM     23  C22 JT1 d   1      50.590  28.429  41.037  0.00  0.00    -0.047 A 
ATOM     24  H15 JT1 d   1      51.684  28.832  42.858  0.00  0.00     0.084 H 
ATOM     25  C23 JT1 d   1      50.040  29.030  39.900  0.00  0.00     0.116 A 
ATOM     26  H16 JT1 d   1      50.575  27.352  41.163  0.00  0.00     0.087 H 
ATOM     27  C24 JT1 d   1      49.918  30.434  39.793  0.00  0.00     0.150 A 
ATOM     28  C25 JT1 d   1      50.413  31.243  40.781  0.00  0.00    -0.035 A 
ATOM     29  F47 JT1 d   1      49.379  30.898  38.675  0.00  0.00    -0.203 F 
ATOM     30  H17 JT1 d   1      50.307  32.320  40.712  0.00  0.00     0.089 H 
BRANCH  25  31
ATOM     31  O35 JT1 d   1      49.541  28.323  38.863  0.00  0.00    -0.252 OA
BRANCH  31  32
ATOM     32  C36 JT1 d   1      48.232  27.839  38.919  0.00  0.00     0.530 C 
ATOM     33  F37 JT1 d   1      47.962  27.267  37.753  0.00  0.00    -0.144 F 
ATOM     34  F38 JT1 d   1      47.395  28.829  39.116  0.00  0.00    -0.144 F 
ATOM     35  F39 JT1 d   1      48.028  26.965  39.890  0.00  0.00    -0.144 F 
ENDBRANCH  31  32
ENDBRANCH  25  31
ENDBRANCH  18  21
ENDBRANCH  16  18
ENDBRANCH   3  14
BRANCH   2  36
ATOM     36  S3  JT1 d   1      47.610  34.323  44.482  0.00  0.00     0.261 S 
ATOM     37  O5  JT1 d   1      47.285  33.373  43.490  0.00  0.00    -0.200 OA
ATOM     38  O6  JT1 d   1      47.829  35.748  44.078  0.00  0.00    -0.200 OA
BRANCH  36  39
ATOM     39  C4  JT1 d   1      46.320  34.403  45.589  0.00  0.00     0.079 A 
ATOM     40  C7  JT1 d   1      46.170  35.560  46.397  0.00  0.00    -0.059 A 
ATOM     41  C8  JT1 d   1      45.021  35.642  47.254  0.00  0.00    -0.067 A 
ATOM     42  H1  JT1 d   1      46.902  36.359  46.368  0.00  0.00     0.085 H 
ATOM     43  C9  JT1 d   1      44.099  34.589  47.204  0.00  0.00     0.048 A 
ATOM     44  H2  JT1 d   1      44.873  36.488  47.916  0.00  0.00     0.084 H 
ATOM     45  C10 JT1 d   1      44.204  33.467  46.367  0.00  0.00    -0.067 A 
ATOM     46  C11 JT1 d   1      45.319  33.417  45.537  0.00  0.00    -0.059 A 
ATOM     47  H3  JT1 d   1      43.456  32.682  46.367  0.00  0.00     0.084 H 
ATOM     48  H4  JT1 d   1      45.419  32.598  44.833  0.00  0.00     0.085 H 
BRANCH  43  49
ATOM     49  C40 JT1 d   1      42.828  34.665  48.032  0.00  0.00     0.417 C 
ATOM     50  F41 JT1 d   1      42.424  33.518  48.611  0.00  0.00    -0.166 F 
ATOM     51  F42 JT1 d   1      41.745  35.064  47.261  0.00  0.00    -0.166 F 
ATOM     52  F43 JT1 d   1      42.731  35.537  49.031  0.00  0.00    -0.166 F 
ENDBRANCH  43  49
ENDBRANCH  36  39
ENDBRANCH   2  36
BRANCH   1  53
ATOM     53  C26 JT1 d   1      51.292  32.687  48.270  0.00  0.00     0.171 A 
ATOM     54  S27 JT1 d   1      51.533  30.943  48.583  0.00  0.00    -0.047 SA
ATOM     55  C30 JT1 d   1      53.014  31.356  49.259  0.00  0.00     0.074 A 
ATOM     56  C29 JT1 d   1      53.245  32.763  49.269  0.00  0.00     0.172 A 
ATOM     57  C31 JT1 d   1      54.043  30.594  49.812  0.00  0.00     0.025 A 
ATOM     58  N28 JT1 d   1      52.227  33.521  48.676  0.00  0.00    -0.203 NA
ATOM     59  N34 JT1 d   1      54.399  33.379  49.747  0.00  0.00    -0.212 NA
ATOM     60  C33 JT1 d   1      55.301  32.515  50.262  0.00  0.00     0.132 A 
ATOM     61  N32 JT1 d   1      55.136  31.182  50.335  0.00  0.00    -0.244 NA
ATOM     62  H18 JT1 d   1      53.962  29.513  49.821  0.00  0.00     0.117 H 
BRANCH  60  63
ATOM     63  C44 JT1 d   1      56.548  33.186  50.784  0.00  0.00     0.006 A 
ATOM     64  C45 JT1 d   1      57.148  32.744  52.123  0.00  0.00    -0.054 A 
ATOM     65  C46 JT1 d   1      57.856  32.467  50.815  0.00  0.00    -0.054 A 
ATOM     66  H20 JT1 d   1      56.690  31.920  52.690  0.00  0.00     0.034 H 
ATOM     67  H21 JT1 d   1      57.550  33.491  52.823  0.00  0.00     0.034 H 
ATOM     68  H22 JT1 d   1      58.782  33.007  50.570  0.00  0.00     0.034 H 
ATOM     69  H23 JT1 d   1      57.922  31.436  50.437  0.00  0.00     0.034 H 
ATOM     70  H19 JT1 d   1      56.522  34.253  50.519  0.00  0.00     0.052 H 
ENDBRANCH  60  63
ENDBRANCH   1  53
TORSDOF 10
