REMARK  7 active torsions:
REMARK  status: ('A' for Active; 'I' for Inactive)
REMARK       I    between atoms: C15_2  and  N4_3 
REMARK    1  A    between atoms: C15_2  and  C12_4 
REMARK    2  A    between atoms: C9_9  and  N3_10 
REMARK    3  A    between atoms: N3_10  and  C8_11 
REMARK    4  A    between atoms: C6_13  and  N2_14 
REMARK    5  A    between atoms: C3_19  and  O1_20 
REMARK    6  A    between atoms: O1_20  and  C2_21 
REMARK    7  A    between atoms: C2_21  and  C1_22 
ROOT
ATOM      1  C8  O22 d   1       0.439 -33.437 -10.800  0.00  0.00     0.133 A 
ATOM      2  C7  O22 d   1       0.696 -32.182 -11.260  0.00  0.00    -0.012 A 
ATOM      3  C6  O22 d   1       1.548 -31.950 -12.288  0.00  0.00     0.054 A 
ATOM      4  C4  O22 d   1       2.204 -33.081 -12.909  0.00  0.00     0.123 A 
ATOM      5  C5  O22 d   1       3.015 -32.901 -13.884  0.00  0.00     0.106 C 
ATOM      6  N1  O22 d   1       3.745 -32.732 -14.750  0.00  0.00    -0.191 NA
ATOM      7  N5  O22 d   1       0.996 -34.500 -11.340  0.00  0.00    -0.205 NA
ATOM      8  C3  O22 d   1       1.847 -34.395 -12.346  0.00  0.00     0.189 A 
ATOM      9  H   O22 d   1       0.200 -31.335 -10.786  0.00  0.00     0.092 H 
ENDROOT
BRANCH   3  10
ATOM     10  N2  O22 d   1       1.764 -30.712 -12.704  0.00  0.00    -0.398 N 
ATOM     11  H   O22 d   1       2.405 -30.539 -13.479  0.00  0.00     0.156 HD
ATOM     12  H   O22 d   1       1.290 -29.931 -12.250  0.00  0.00     0.156 HD
ENDBRANCH   3  10
BRANCH   8  13
ATOM     13  O1  O22 d   1       2.354 -35.543 -12.796  0.00  0.00    -0.334 OA
BRANCH  13  14
ATOM     14  C2  O22 d   1       1.812 -36.682 -12.215  0.00  0.00     0.024 C 
ATOM     15  H   O22 d   1       0.752 -36.780 -12.451  0.00  0.00     0.074 H 
ATOM     16  H   O22 d   1       1.873 -36.639 -11.128  0.00  0.00     0.074 H 
BRANCH  14  17
ATOM     17  C1  O22 d   1       2.595 -37.828 -12.756  0.00  0.00    -0.056 C 
ATOM     18  H   O22 d   1       2.497 -37.853 -13.841  0.00  0.00     0.030 H 
ATOM     19  H   O22 d   1       3.644 -37.708 -12.487  0.00  0.00     0.030 H 
ATOM     20  H   O22 d   1       2.214 -38.758 -12.334  0.00  0.00     0.030 H 
ENDBRANCH  14  17
ENDBRANCH  13  14
ENDBRANCH   8  13
BRANCH   1  21
ATOM     21  N3  O22 d   1      -0.413 -33.541  -9.785  0.00  0.00    -0.341 N 
ATOM     22  H   O22 d   1      -0.893 -32.687  -9.500  0.00  0.00     0.167 HD
BRANCH  21  23
ATOM     23  C9  O22 d   1      -0.702 -34.644  -9.105  0.00  0.00     0.033 A 
ATOM     24  C10 O22 d   1      -0.446 -35.881  -9.607  0.00  0.00    -0.056 A 
ATOM     25  C11 O22 d   1      -0.756 -36.996  -8.876  0.00  0.00    -0.066 A 
ATOM     26  H   O22 d   1       0.007 -35.985 -10.593  0.00  0.00     0.086 H 
ATOM     27  C12 O22 d   1      -1.344 -36.867  -7.653  0.00  0.00     0.032 A 
ATOM     28  H   O22 d   1      -0.533 -37.987  -9.272  0.00  0.00     0.085 H 
ATOM     29  C13 O22 d   1      -1.600 -35.626  -7.151  0.00  0.00    -0.066 A 
ATOM     30  C14 O22 d   1      -1.287 -34.520  -7.883  0.00  0.00    -0.056 A 
ATOM     31  H   O22 d   1      -2.054 -35.518  -6.166  0.00  0.00     0.085 H 
ATOM     32  H   O22 d   1      -1.507 -33.529  -7.487  0.00  0.00     0.086 H 
BRANCH  27  33
ATOM     33  C15 O22 d   1      -1.674 -38.071  -6.855  0.00  0.00     0.249 C 
ATOM     34  O2  O22 d   1      -1.288 -38.152  -5.727  0.00  0.00    -0.268 OA
ATOM     35  N4  O22 d   1      -2.364 -39.041  -7.374  0.00  0.00    -0.366 N 
ATOM     36  H   O22 d   1      -2.576 -39.870  -6.819  0.00  0.00     0.159 HD
ATOM     37  H   O22 d   1      -2.694 -38.974  -8.337  0.00  0.00     0.159 HD
ENDBRANCH  27  33
ENDBRANCH  21  23
ENDBRANCH   1  21
TORSDOF 7
