REMARK  10 active torsions:
REMARK  status: ('A' for Active; 'I' for Inactive)
REMARK    1  A    between atoms: O3_1  and  C24_2 
REMARK    2  A    between atoms: C24_2  and  C23_3 
REMARK    3  A    between atoms: C23_3  and  C22_4 
REMARK    4  A    between atoms: C22_4  and  C20_5 
REMARK    5  A    between atoms: C20_5  and  C21_6 
REMARK    6  A    between atoms: C20_5  and  C17_7 
REMARK    7  A    between atoms: C13_8  and  C18_9 
REMARK    8  A    between atoms: C7_17  and  C6_18 
REMARK    9  A    between atoms: C1_22  and  O1_23 
REMARK   10  A    between atoms: C3_26  and  O2_27 
ROOT
ATOM      1  C17 YS2 d   1      14.171  -1.533  27.069  0.00  0.00    -0.043 C 
ATOM      2  C13 YS2 d   1      13.878  -0.112  26.622  0.00  0.00    -0.033 C 
ATOM      3  C12 YS2 d   1      13.622   0.907  27.713  0.00  0.00    -0.057 C 
ATOM      4  C11 YS2 d   1      13.264   2.242  27.051  0.00  0.00    -0.061 C 
ATOM      5  C9  YS2 d   1      14.179   2.679  25.896  0.00  0.00    -0.044 C 
ATOM      6  C16 YS2 d   1      15.104  -2.102  26.000  0.00  0.00    -0.060 C 
ATOM      7  C15 YS2 d   1      15.578  -0.928  25.140  0.00  0.00    -0.057 C 
ATOM      8  C14 YS2 d   1      15.146   0.300  25.924  0.00  0.00    -0.025 C 
ATOM      9  C8  YS2 d   1      14.790   1.517  25.139  0.00  0.00    -0.075 C 
ATOM     10  C7  YS2 d   1      15.002   1.581  23.818  0.00  0.00    -0.080 C 
ATOM     11  H12 YS2 d   1      14.687  -1.517  28.040  0.00  0.00     0.041 H 
ATOM     12  H16 YS2 d   1      14.526   1.028  28.328  0.00  0.00     0.034 H 
ATOM     13  H17 YS2 d   1      12.788   0.571  28.347  0.00  0.00     0.034 H 
ATOM     14  H18 YS2 d   1      13.300   3.023  27.825  0.00  0.00     0.033 H 
ATOM     15  H19 YS2 d   1      12.240   2.161  26.659  0.00  0.00     0.033 H 
ATOM     16  H20 YS2 d   1      14.993   3.292  26.309  0.00  0.00     0.039 H 
ATOM     17  H21 YS2 d   1      13.587   3.281  25.191  0.00  0.00     0.039 H 
ATOM     18  H22 YS2 d   1      14.564  -2.831  25.378  0.00  0.00     0.033 H 
ATOM     19  H23 YS2 d   1      15.966  -2.593  26.475  0.00  0.00     0.033 H 
ATOM     20  H24 YS2 d   1      15.098  -0.949  24.151  0.00  0.00     0.034 H 
ATOM     21  H25 YS2 d   1      16.671  -0.949  25.018  0.00  0.00     0.034 H 
ATOM     22  H26 YS2 d   1      15.935   0.560  26.645  0.00  0.00     0.048 H 
ATOM     23  H27 YS2 d   1      15.442   0.733  23.296  0.00  0.00     0.083 H 
ENDROOT
BRANCH  10  24
ATOM     24  C6  YS2 d   1      14.643   2.787  23.078  0.00  0.00    -0.080 C 
ATOM     25  C5  YS2 d   1      14.222   2.694  21.809  0.00  0.00    -0.074 C 
ATOM     26  C4  YS2 d   1      13.850   3.941  21.043  0.00  0.00    -0.017 C 
ATOM     27  C10 YS2 d   1      14.119   1.342  21.145  0.00  0.00    -0.017 C 
ATOM     28  C3  YS2 d   1      14.588   3.957  19.710  0.00  0.00     0.062 C 
ATOM     29  H29 YS2 d   1      14.131   4.829  21.628  0.00  0.00     0.043 H 
ATOM     30  H30 YS2 d   1      12.765   3.950  20.862  0.00  0.00     0.043 H 
ATOM     31  C2  YS2 d   1      14.468   2.612  19.056  0.00  0.00    -0.032 C 
ATOM     32  H37 YS2 d   1      14.147   4.723  19.056  0.00  0.00     0.090 H 
ATOM     33  C1  YS2 d   1      14.855   1.374  19.810  0.00  0.00     0.062 C 
ATOM     34  C28 YS2 d   1      14.022   2.518  17.818  0.00  0.00    -0.114 C 
ATOM     35  H33 YS2 d   1      15.940   1.378  19.989  0.00  0.00     0.090 H 
ATOM     36  H35 YS2 d   1      13.741   3.417  17.271  0.00  0.00     0.067 H 
ATOM     37  H36 YS2 d   1      13.935   1.542  17.343  0.00  0.00     0.067 H 
ATOM     38  H31 YS2 d   1      13.060   1.097  20.974  0.00  0.00     0.043 H 
ATOM     39  H32 YS2 d   1      14.572   0.579  21.795  0.00  0.00     0.043 H 
ATOM     40  H28 YS2 d   1      14.717   3.762  23.557  0.00  0.00     0.083 H 
BRANCH  28  41
ATOM     41  O2  YS2 d   1      15.970   4.258  19.933  0.00  0.00    -0.391 OA
ATOM     42  H38 YS2 d   1      16.045   5.110  20.347  0.00  0.00     0.210 HD
ENDBRANCH  28  41
BRANCH  33  43
ATOM     43  O1  YS2 d   1      14.502   0.218  19.043  0.00  0.00    -0.391 OA
ATOM     44  H34 YS2 d   1      13.565   0.216  18.889  0.00  0.00     0.210 HD
ENDBRANCH  33  43
ENDBRANCH  10  24
BRANCH   2  45
ATOM     45  C18 YS2 d   1      12.716  -0.128  25.640  0.00  0.00    -0.068 C 
ATOM     46  H13 YS2 d   1      12.499   0.899  25.312  0.00  0.00     0.028 H 
ATOM     47  H14 YS2 d   1      11.827  -0.552  26.130  0.00  0.00     0.028 H 
ATOM     48  H15 YS2 d   1      12.982  -0.743  24.767  0.00  0.00     0.028 H 
ENDBRANCH   2  45
BRANCH   1  49
ATOM     49  C20 YS2 d   1      12.901  -2.358  27.216  0.00  0.00    -0.053 C 
ATOM     50  H8  YS2 d   1      12.726  -2.882  26.265  0.00  0.00     0.040 H 
BRANCH  49  51
ATOM     51  C22 YS2 d   1      13.056  -3.409  28.309  0.00  0.00    -0.060 C 
ATOM     52  H6  YS2 d   1      14.102  -3.424  28.648  0.00  0.00     0.033 H 
ATOM     53  H7  YS2 d   1      12.401  -3.149  29.154  0.00  0.00     0.033 H 
BRANCH  51  54
ATOM     54  C23 YS2 d   1      12.679  -4.792  27.793  0.00  0.00    -0.045 C 
ATOM     55  H4  YS2 d   1      13.496  -5.176  27.165  0.00  0.00     0.036 H 
ATOM     56  H5  YS2 d   1      12.527  -5.466  28.649  0.00  0.00     0.036 H 
BRANCH  54  57
ATOM     57  C24 YS2 d   1      11.399  -4.738  26.968  0.00  0.00     0.017 C 
ATOM     58  H2  YS2 d   1      10.909  -3.764  27.114  0.00  0.00     0.073 H 
ATOM     59  H3  YS2 d   1      11.643  -4.869  25.904  0.00  0.00     0.073 H 
BRANCH  57  60
ATOM     60  O3  YS2 d   1      10.515  -5.784  27.387  0.00  0.00    -0.401 OA
ATOM     61  H1  YS2 d   1      10.938  -6.625  27.260  0.00  0.00     0.209 HD
ENDBRANCH  57  60
ENDBRANCH  54  57
ENDBRANCH  51  54
ENDBRANCH  49  51
BRANCH  49  62
ATOM     62  C21 YS2 d   1      11.697  -1.463  27.486  0.00  0.00    -0.072 C 
ATOM     63  H9  YS2 d   1      11.609  -0.715  26.684  0.00  0.00     0.028 H 
ATOM     64  H10 YS2 d   1      11.829  -0.952  28.451  0.00  0.00     0.028 H 
ATOM     65  H11 YS2 d   1      10.784  -2.076  27.518  0.00  0.00     0.028 H 
ENDBRANCH  49  62
ENDBRANCH   1  49
TORSDOF 10
