REMARK  13 active torsions:
REMARK  status: ('A' for Active; 'I' for Inactive)
REMARK    1  A    between atoms: OAH_1  and  CBA_2 
REMARK    2  A    between atoms: CBA_2  and  CAC_3 
REMARK    3  A    between atoms: CBA_2  and  CAD_4 
REMARK    4  A    between atoms: CBA_2  and  CAP_5 
REMARK    5  A    between atoms: CAP_5  and  CAM_6 
REMARK    6  A    between atoms: CAM_6  and  CAW_7 
REMARK    7  A    between atoms: CAW_7  and  CAB_8 
REMARK    8  A    between atoms: CAW_7  and  CAZ_9 
REMARK    9  A    between atoms: CBC_13  and  CAE_14 
REMARK   10  A    between atoms: CAJ_19  and  CAI_20 
REMARK   11  A    between atoms: CAI_20  and  CAU_21 
REMARK   12  A    between atoms: CAX_24  and  OAF_25 
REMARK   13  A    between atoms: CAY_28  and  OAG_29 
ROOT
ATOM      1  CAZ YS3 d   1     -15.692  23.479  -6.004  0.00  0.00    -0.043 C 
ATOM      2  CAN YS3 d   1     -16.260  22.626  -4.831  0.00  0.00    -0.060 C 
ATOM      3  CAQ YS3 d   1     -17.025  23.657  -3.966  0.00  0.00    -0.057 C 
ATOM      4  CBB YS3 d   1     -16.779  24.984  -4.693  0.00  0.00    -0.025 C 
ATOM      5  CBC YS3 d   1     -15.395  24.852  -5.346  0.00  0.00    -0.033 C 
ATOM      6  CAO YS3 d   1     -15.257  26.027  -6.376  0.00  0.00    -0.057 C 
ATOM      7  CAK YS3 d   1     -15.541  27.434  -5.761  0.00  0.00    -0.061 C 
ATOM      8  CAL YS3 d   1     -16.842  27.479  -4.899  0.00  0.00    -0.044 C 
ATOM      9  CAV YS3 d   1     -16.891  26.297  -3.912  0.00  0.00    -0.079 C 
ATOM     10  CAJ YS3 d   1     -16.960  26.427  -2.500  0.00  0.00    -0.100 C 
ATOM     11  H16 YS3 d   1     -16.510  23.635  -6.723  0.00  0.00     0.041 H 
ATOM     12  H17 YS3 d   1     -15.447  22.158  -4.256  0.00  0.00     0.033 H 
ATOM     13  H18 YS3 d   1     -16.940  21.847  -5.206  0.00  0.00     0.033 H 
ATOM     14  H19 YS3 d   1     -16.622  23.688  -2.943  0.00  0.00     0.034 H 
ATOM     15  H20 YS3 d   1     -18.099  23.421  -3.930  0.00  0.00     0.034 H 
ATOM     16  H21 YS3 d   1     -17.533  25.049  -5.492  0.00  0.00     0.048 H 
ATOM     17  H25 YS3 d   1     -15.970  25.856  -7.196  0.00  0.00     0.034 H 
ATOM     18  H26 YS3 d   1     -14.232  26.022  -6.774  0.00  0.00     0.034 H 
ATOM     19  H27 YS3 d   1     -15.640  28.160  -6.581  0.00  0.00     0.033 H 
ATOM     20  H28 YS3 d   1     -14.690  27.715  -5.123  0.00  0.00     0.033 H 
ATOM     21  H29 YS3 d   1     -17.716  27.428  -5.564  0.00  0.00     0.039 H 
ATOM     22  H30 YS3 d   1     -16.866  28.422  -4.333  0.00  0.00     0.039 H 
ATOM     23  H31 YS3 d   1     -17.328  25.599  -1.895  0.00  0.00     0.077 H 
ENDROOT
BRANCH  10  24
ATOM     24  CAI YS3 d   1     -16.556  27.619  -1.882  0.00  0.00    -0.046 C 
ATOM     25  H32 YS3 d   1     -17.182  28.412  -2.317  0.00  0.00     0.039 H 
ATOM     26  H33 YS3 d   1     -15.508  27.774  -2.180  0.00  0.00     0.039 H 
BRANCH  24  27
ATOM     27  CAU YS3 d   1     -16.595  27.812  -0.505  0.00  0.00    -0.046 C 
ATOM     28  CAS YS3 d   1     -16.363  29.223   0.051  0.00  0.00    -0.034 C 
ATOM     29  CAY YS3 d   1     -16.946  29.337   1.501  0.00  0.00     0.059 C 
ATOM     30  H35 YS3 d   1     -16.862  29.956  -0.600  0.00  0.00     0.037 H 
ATOM     31  H36 YS3 d   1     -15.283  29.430   0.076  0.00  0.00     0.037 H 
ATOM     32  CAT YS3 d   1     -16.555  28.141   2.355  0.00  0.00    -0.033 C 
ATOM     33  H43 YS3 d   1     -16.604  30.276   1.959  0.00  0.00     0.090 H 
ATOM     34  CAX YS3 d   1     -16.916  26.795   1.776  0.00  0.00     0.059 C 
ATOM     35  CAA YS3 d   1     -16.020  28.294   3.607  0.00  0.00    -0.114 C 
ATOM     36  CAR YS3 d   1     -16.153  26.687   0.440  0.00  0.00    -0.034 C 
ATOM     37  H39 YS3 d   1     -17.998  26.736   1.589  0.00  0.00     0.090 H 
ATOM     38  H37 YS3 d   1     -15.073  26.772   0.629  0.00  0.00     0.037 H 
ATOM     39  H38 YS3 d   1     -16.368  25.714  -0.025  0.00  0.00     0.037 H 
ATOM     40  H41 YS3 d   1     -15.777  29.289   3.978  0.00  0.00     0.067 H 
ATOM     41  H42 YS3 d   1     -15.838  27.421   4.232  0.00  0.00     0.067 H 
ATOM     42  H34 YS3 d   1     -17.684  27.741  -0.366  0.00  0.00     0.040 H 
BRANCH  29  43
ATOM     43  OAG YS3 d   1     -18.377  29.263   1.485  0.00  0.00    -0.391 OA
ATOM     44  H44 YS3 d   1     -18.706  29.324   2.374  0.00  0.00     0.210 HD
ENDBRANCH  29  43
BRANCH  34  45
ATOM     45  OAF YS3 d   1     -16.556  25.798   2.685  0.00  0.00    -0.391 OA
ATOM     46  H40 YS3 d   1     -15.627  25.863   2.874  0.00  0.00     0.210 HD
ENDBRANCH  34  45
ENDBRANCH  24  27
ENDBRANCH  10  24
BRANCH   5  47
ATOM     47  CAE YS3 d   1     -14.195  24.809  -4.384  0.00  0.00    -0.068 C 
ATOM     48  H22 YS3 d   1     -13.264  24.714  -4.963  0.00  0.00     0.028 H 
ATOM     49  H23 YS3 d   1     -14.297  23.947  -3.709  0.00  0.00     0.028 H 
ATOM     50  H24 YS3 d   1     -14.166  25.736  -3.793  0.00  0.00     0.028 H 
ENDBRANCH   5  47
BRANCH   1  51
ATOM     51  CAW YS3 d   1     -14.556  22.823  -6.834  0.00  0.00    -0.053 C 
ATOM     52  H12 YS3 d   1     -13.966  23.643  -7.271  0.00  0.00     0.040 H 
BRANCH  51  53
ATOM     53  CAM YS3 d   1     -13.571  21.966  -6.060  0.00  0.00    -0.059 C 
ATOM     54  H10 YS3 d   1     -13.324  22.458  -5.108  0.00  0.00     0.033 H 
ATOM     55  H11 YS3 d   1     -14.018  20.982  -5.859  0.00  0.00     0.033 H 
BRANCH  53  56
ATOM     56  CAP YS3 d   1     -12.305  21.791  -6.887  0.00  0.00    -0.037 C 
ATOM     57  H8  YS3 d   1     -12.607  21.775  -7.944  0.00  0.00     0.037 H 
ATOM     58  H9  YS3 d   1     -11.671  22.670  -6.700  0.00  0.00     0.037 H 
BRANCH  56  59
ATOM     59  CBA YS3 d   1     -11.421  20.521  -6.639  0.00  0.00     0.051 C 
BRANCH  59  60
ATOM     60  OAH YS3 d   1     -11.962  19.471  -7.414  0.00  0.00    -0.391 OA
ATOM     61  H1  YS3 d   1     -11.989  19.734  -8.326  0.00  0.00     0.210 HD
ENDBRANCH  59  60
BRANCH  59  62
ATOM     62  CAC YS3 d   1     -10.027  20.842  -7.102  0.00  0.00    -0.048 C 
ATOM     63  H2  YS3 d   1      -9.617  21.660  -6.492  0.00  0.00     0.031 H 
ATOM     64  H3  YS3 d   1     -10.053  21.150  -8.158  0.00  0.00     0.031 H 
ATOM     65  H4  YS3 d   1      -9.391  19.951  -6.995  0.00  0.00     0.031 H 
ENDBRANCH  59  62
BRANCH  59  66
ATOM     66  CAD YS3 d   1     -11.355  20.000  -5.177  0.00  0.00    -0.048 C 
ATOM     67  H5  YS3 d   1     -10.938  20.784  -4.527  0.00  0.00     0.031 H 
ATOM     68  H6  YS3 d   1     -10.713  19.108  -5.134  0.00  0.00     0.031 H 
ATOM     69  H7  YS3 d   1     -12.367  19.739  -4.835  0.00  0.00     0.031 H 
ENDBRANCH  59  66
ENDBRANCH  56  59
ENDBRANCH  53  56
ENDBRANCH  51  53
BRANCH  51  70
ATOM     70  CAB YS3 d   1     -15.213  22.050  -7.995  0.00  0.00    -0.072 C 
ATOM     71  H13 YS3 d   1     -15.916  22.710  -8.524  0.00  0.00     0.028 H 
ATOM     72  H14 YS3 d   1     -15.756  21.181  -7.596  0.00  0.00     0.028 H 
ATOM     73  H15 YS3 d   1     -14.436  21.707  -8.694  0.00  0.00     0.028 H 
ENDBRANCH  51  70
ENDBRANCH   1  51
TORSDOF 13
