REMARK  15 active torsions:
REMARK  status: ('A' for Active; 'I' for Inactive)
REMARK    1  A    between atoms: CAB_1  and  CAK_2 
REMARK    2  A    between atoms: CAK_2  and  CBD_3 
REMARK    3  A    between atoms: CBD_3  and  CAL_4 
REMARK    4  A    between atoms: CBD_3  and  OAH_6 
REMARK    5  A    between atoms: CBD_3  and  CAS_7 
REMARK    6  A    between atoms: CAL_4  and  CAC_5 
REMARK    7  A    between atoms: CAS_7  and  CAP_8 
REMARK    8  A    between atoms: CAP_8  and  CAY_9 
REMARK    9  A    between atoms: CAY_9  and  CAD_10 
REMARK   10  A    between atoms: CAY_9  and  CBC_11 
REMARK   11  A    between atoms: CBE_15  and  CAE_16 
REMARK   12  A    between atoms: CAX_20  and  CAJ_21 
REMARK   13  A    between atoms: CAJ_21  and  CAI_22 
REMARK   14  A    between atoms: CAZ_26  and  OAF_27 
REMARK   15  A    between atoms: CBA_30  and  OAG_31 
ROOT
ATOM      1  CBC YSD d   1     -15.793  23.615  -6.142  0.00  0.00    -0.044 C 
ATOM      2  CAQ YSD d   1     -16.342  22.842  -4.919  0.00  0.00    -0.060 C 
ATOM      3  CAO YSD d   1     -16.951  23.915  -4.003  0.00  0.00    -0.060 C 
ATOM      4  CBB YSD d   1     -16.791  25.204  -4.770  0.00  0.00    -0.043 C 
ATOM      5  CBE YSD d   1     -15.459  25.022  -5.528  0.00  0.00    -0.036 C 
ATOM      6  CAR YSD d   1     -15.354  26.189  -6.566  0.00  0.00    -0.058 C 
ATOM      7  CAM YSD d   1     -15.528  27.599  -5.911  0.00  0.00    -0.064 C 
ATOM      8  CAN YSD d   1     -16.720  27.726  -4.917  0.00  0.00    -0.061 C 
ATOM      9  CAX YSD d   1     -16.752  26.486  -3.978  0.00  0.00    -0.047 C 
ATOM     10  H20 YSD d   1     -16.625  23.767  -6.846  0.00  0.00     0.041 H 
ATOM     11  H21 YSD d   1     -15.529  22.310  -4.402  0.00  0.00     0.033 H 
ATOM     12  H22 YSD d   1     -17.111  22.121  -5.232  0.00  0.00     0.033 H 
ATOM     13  H23 YSD d   1     -16.410  23.962  -3.047  0.00  0.00     0.033 H 
ATOM     14  H24 YSD d   1     -18.014  23.706  -3.813  0.00  0.00     0.033 H 
ATOM     15  H25 YSD d   1     -17.623  25.287  -5.485  0.00  0.00     0.041 H 
ATOM     16  H29 YSD d   1     -16.138  26.055  -7.326  0.00  0.00     0.034 H 
ATOM     17  H30 YSD d   1     -14.366  26.144  -7.047  0.00  0.00     0.034 H 
ATOM     18  H31 YSD d   1     -15.678  28.332  -6.717  0.00  0.00     0.033 H 
ATOM     19  H32 YSD d   1     -14.603  27.837  -5.365  0.00  0.00     0.033 H 
ATOM     20  H33 YSD d   1     -17.663  27.782  -5.481  0.00  0.00     0.033 H 
ATOM     21  H34 YSD d   1     -16.598  28.638  -4.314  0.00  0.00     0.033 H 
ATOM     22  H35 YSD d   1     -15.656  26.449  -3.887  0.00  0.00     0.041 H 
ENDROOT
BRANCH   1  23
ATOM     23  CAY YSD d   1     -14.729  22.854  -6.963  0.00  0.00    -0.053 C 
ATOM     24  H16 YSD d   1     -14.180  23.623  -7.526  0.00  0.00     0.040 H 
BRANCH  23  25
ATOM     25  CAP YSD d   1     -13.646  22.069  -6.188  0.00  0.00    -0.059 C 
ATOM     26  H14 YSD d   1     -13.433  22.567  -5.230  0.00  0.00     0.033 H 
ATOM     27  H15 YSD d   1     -13.989  21.041  -5.999  0.00  0.00     0.033 H 
BRANCH  25  28
ATOM     28  CAS YSD d   1     -12.391  22.050  -7.057  0.00  0.00    -0.036 C 
ATOM     29  H12 YSD d   1     -12.699  22.074  -8.113  0.00  0.00     0.037 H 
ATOM     30  H13 YSD d   1     -11.796  22.947  -6.828  0.00  0.00     0.037 H 
BRANCH  28  31
ATOM     31  CBD YSD d   1     -11.506  20.810  -6.837  0.00  0.00     0.057 C 
BRANCH  31  32
ATOM     32  CAK YSD d   1     -10.165  21.129  -7.502  0.00  0.00    -0.040 C 
ATOM     33  H4  YSD d   1      -9.434  20.346  -7.250  0.00  0.00     0.036 H 
ATOM     34  H5  YSD d   1     -10.296  21.170  -8.593  0.00  0.00     0.036 H 
BRANCH  32  35
ATOM     35  CAB YSD d   1      -9.642  22.530  -6.978  0.00  0.00    -0.074 C 
ATOM     36  H1  YSD d   1      -8.678  22.763  -7.454  0.00  0.00     0.027 H 
ATOM     37  H2  YSD d   1      -9.511  22.488  -5.887  0.00  0.00     0.027 H 
ATOM     38  H3  YSD d   1     -10.373  23.312  -7.230  0.00  0.00     0.027 H 
ENDBRANCH  32  35
ENDBRANCH  31  32
BRANCH  31  39
ATOM     39  CAL YSD d   1     -11.349  20.530  -5.335  0.00  0.00    -0.040 C 
ATOM     40  H6  YSD d   1     -12.308  20.167  -4.937  0.00  0.00     0.036 H 
ATOM     41  H7  YSD d   1     -11.069  21.463  -4.824  0.00  0.00     0.036 H 
BRANCH  39  42
ATOM     42  CAC YSD d   1     -10.279  19.485  -5.074  0.00  0.00    -0.074 C 
ATOM     43  H8  YSD d   1     -10.194  19.310  -3.991  0.00  0.00     0.027 H 
ATOM     44  H9  YSD d   1      -9.315  19.842  -5.465  0.00  0.00     0.027 H 
ATOM     45  H10 YSD d   1     -10.553  18.546  -5.577  0.00  0.00     0.027 H 
ENDBRANCH  39  42
ENDBRANCH  31  39
BRANCH  31  46
ATOM     46  OAH YSD d   1     -12.088  19.618  -7.405  0.00  0.00    -0.390 OA
ATOM     47  H11 YSD d   1     -12.207  19.739  -8.340  0.00  0.00     0.210 HD
ENDBRANCH  31  46
ENDBRANCH  28  31
ENDBRANCH  25  28
ENDBRANCH  23  25
BRANCH  23  48
ATOM     48  CAD YSD d   1     -15.441  21.970  -7.993  0.00  0.00    -0.072 C 
ATOM     49  H17 YSD d   1     -16.202  22.563  -8.522  0.00  0.00     0.028 H 
ATOM     50  H18 YSD d   1     -15.925  21.126  -7.480  0.00  0.00     0.028 H 
ATOM     51  H19 YSD d   1     -14.707  21.586  -8.717  0.00  0.00     0.028 H 
ENDBRANCH  23  48
ENDBRANCH   1  23
BRANCH   5  52
ATOM     52  CAE YSD d   1     -14.236  25.006  -4.588  0.00  0.00    -0.068 C 
ATOM     53  H26 YSD d   1     -13.319  24.874  -5.181  0.00  0.00     0.028 H 
ATOM     54  H27 YSD d   1     -14.333  24.175  -3.874  0.00  0.00     0.028 H 
ATOM     55  H28 YSD d   1     -14.183  25.957  -4.038  0.00  0.00     0.028 H 
ENDBRANCH   5  52
BRANCH   9  56
ATOM     56  CAJ YSD d   1     -16.871  26.612  -2.558  0.00  0.00    -0.046 C 
ATOM     57  H36 YSD d   1     -16.097  25.970  -2.112  0.00  0.00     0.039 H 
ATOM     58  H37 YSD d   1     -17.866  26.231  -2.284  0.00  0.00     0.039 H 
BRANCH  56  59
ATOM     59  CAI YSD d   1     -16.738  27.914  -1.953  0.00  0.00    -0.100 C 
ATOM     60  CAW YSD d   1     -16.551  28.034  -0.550  0.00  0.00    -0.078 C 
ATOM     61  CAU YSD d   1     -16.321  26.780   0.320  0.00  0.00    -0.017 C 
ATOM     62  CAT YSD d   1     -16.427  29.432   0.044  0.00  0.00    -0.017 C 
ATOM     63  CBA YSD d   1     -16.960  27.020   1.735  0.00  0.00     0.062 C 
ATOM     64  H39 YSD d   1     -15.242  26.598   0.428  0.00  0.00     0.043 H 
ATOM     65  H40 YSD d   1     -16.794  25.908  -0.156  0.00  0.00     0.043 H 
ATOM     66  CAV YSD d   1     -16.594  28.409   2.287  0.00  0.00    -0.032 C 
ATOM     67  H47 YSD d   1     -18.053  26.937   1.647  0.00  0.00     0.090 H 
ATOM     68  CAZ YSD d   1     -17.052  29.585   1.420  0.00  0.00     0.062 C 
ATOM     69  CAA YSD d   1     -15.895  28.615   3.461  0.00  0.00    -0.114 C 
ATOM     70  H43 YSD d   1     -16.736  30.538   1.870  0.00  0.00     0.090 H 
ATOM     71  H45 YSD d   1     -15.579  27.764   4.063  0.00  0.00     0.067 H 
ATOM     72  H46 YSD d   1     -15.661  29.628   3.784  0.00  0.00     0.067 H 
ATOM     73  H41 YSD d   1     -16.919  30.141  -0.638  0.00  0.00     0.043 H 
ATOM     74  H42 YSD d   1     -15.358  29.680   0.122  0.00  0.00     0.043 H 
ATOM     75  H38 YSD d   1     -16.781  28.808  -2.573  0.00  0.00     0.077 H 
BRANCH  63  76
ATOM     76  OAG YSD d   1     -16.506  26.109   2.632  0.00  0.00    -0.391 OA
ATOM     77  H48 YSD d   1     -15.565  26.198   2.724  0.00  0.00     0.210 HD
ENDBRANCH  63  76
BRANCH  68  78
ATOM     78  OAF YSD d   1     -18.478  29.540   1.327  0.00  0.00    -0.391 OA
ATOM     79  H44 YSD d   1     -18.780  30.247   0.769  0.00  0.00     0.210 HD
ENDBRANCH  68  78
ENDBRANCH  56  59
ENDBRANCH   9  56
TORSDOF 15
