REMARK  19 active torsions:
REMARK  status: ('A' for Active; 'I' for Inactive)
REMARK    1  A    between atoms: CBB_2  and  OAG_3 
REMARK    2  A    between atoms: CBC_6  and  OAH_7 
REMARK    3  A    between atoms: CAJ_10  and  CAK_11 
REMARK    4  A    between atoms: CAK_11  and  CBA_12 
REMARK    5  A    between atoms: CBI_16  and  CAF_17 
REMARK    6  A    between atoms: CBF_21  and  CBD_22 
REMARK    7  A    between atoms: CBD_22  and  CAE_23 
REMARK    8  A    between atoms: CBD_22  and  CBE_24 
REMARK    9  A    between atoms: CBE_24  and  CAX_25 
REMARK   10  A    between atoms: CBE_24  and  CAR_32 
REMARK   11  A    between atoms: CAX_25  and  CBH_26 
REMARK   12  A    between atoms: CBH_26  and  CAN_27 
REMARK   13  A    between atoms: CBH_26  and  OAI_29 
REMARK   14  A    between atoms: CBH_26  and  CAM_30 
REMARK   15  A    between atoms: CAN_27  and  CAD_28 
REMARK   16  A    between atoms: CAM_30  and  CAC_31 
REMARK   17  A    between atoms: CAR_32  and  CAO_33 
REMARK   18  A    between atoms: CAO_33  and  CAL_34 
REMARK   19  A    between atoms: CAL_34  and  CAB_35 
ROOT
ATOM      1  CBA YS5 d   1     -16.605  26.830  -3.779  0.00  0.00    -0.047 C 
ATOM      2  CAQ YS5 d   1     -16.791  27.920  -4.613  0.00  0.00    -0.061 C 
ATOM      3  CAP YS5 d   1     -15.638  28.010  -5.604  0.00  0.00    -0.064 C 
ATOM      4  CAT YS5 d   1     -15.218  26.640  -6.204  0.00  0.00    -0.058 C 
ATOM      5  CBI YS5 d   1     -15.100  25.578  -5.148  0.00  0.00    -0.036 C 
ATOM      6  CBG YS5 d   1     -16.455  25.588  -4.475  0.00  0.00    -0.043 C 
ATOM      7  CAU YS5 d   1     -16.507  24.285  -3.685  0.00  0.00    -0.060 C 
ATOM      8  CAS YS5 d   1     -15.566  23.301  -4.487  0.00  0.00    -0.060 C 
ATOM      9  CBF YS5 d   1     -15.038  24.114  -5.690  0.00  0.00    -0.043 C 
ATOM     10  H   YS5 d   1     -17.485  26.528  -3.211  0.00  0.00     0.041 H 
ATOM     11  H   YS5 d   1     -16.826  28.831  -4.015  0.00  0.00     0.033 H 
ATOM     12  H   YS5 d   1     -17.728  27.803  -5.158  0.00  0.00     0.033 H 
ATOM     13  H   YS5 d   1     -14.777  28.407  -5.066  0.00  0.00     0.033 H 
ATOM     14  H   YS5 d   1     -15.968  28.639  -6.431  0.00  0.00     0.033 H 
ATOM     15  H   YS5 d   1     -14.244  26.759  -6.679  0.00  0.00     0.034 H 
ATOM     16  H   YS5 d   1     -15.983  26.330  -6.916  0.00  0.00     0.034 H 
ATOM     17  H   YS5 d   1     -17.331  25.581  -5.123  0.00  0.00     0.041 H 
ATOM     18  H   YS5 d   1     -17.523  23.900  -3.598  0.00  0.00     0.033 H 
ATOM     19  H   YS5 d   1     -16.177  24.418  -2.655  0.00  0.00     0.033 H 
ATOM     20  H   YS5 d   1     -16.107  22.413  -4.814  0.00  0.00     0.033 H 
ATOM     21  H   YS5 d   1     -14.749  22.937  -3.864  0.00  0.00     0.033 H 
ATOM     22  H   YS5 d   1     -15.614  24.011  -6.610  0.00  0.00     0.041 H 
ENDROOT
BRANCH   9  23
ATOM     23  CBD YS5 d   1     -13.620  23.614  -6.157  0.00  0.00    -0.050 C 
ATOM     24  H   YS5 d   1     -12.992  23.699  -5.271  0.00  0.00     0.040 H 
BRANCH  23  25
ATOM     25  CAE YS5 d   1     -13.100  24.476  -7.319  0.00  0.00    -0.072 C 
ATOM     26  H   YS5 d   1     -13.793  24.410  -8.158  0.00  0.00     0.028 H 
ATOM     27  H   YS5 d   1     -13.021  25.513  -6.993  0.00  0.00     0.028 H 
ATOM     28  H   YS5 d   1     -12.119  24.114  -7.627  0.00  0.00     0.028 H 
ENDBRANCH  23  25
BRANCH  23  29
ATOM     29  CBE YS5 d   1     -13.589  22.130  -6.634  0.00  0.00    -0.048 C 
ATOM     30  H   YS5 d   1     -13.996  21.532  -5.819  0.00  0.00     0.040 H 
BRANCH  29  31
ATOM     31  CAX YS5 d   1     -12.130  21.679  -6.964  0.00  0.00    -0.033 C 
ATOM     32  H   YS5 d   1     -11.474  22.355  -6.415  0.00  0.00     0.038 H 
ATOM     33  H   YS5 d   1     -12.047  21.697  -8.051  0.00  0.00     0.038 H 
BRANCH  31  34
ATOM     34  CBH YS5 d   1     -11.734  20.250  -6.528  0.00  0.00     0.057 C 
BRANCH  34  35
ATOM     35  CAN YS5 d   1     -10.208  20.111  -6.534  0.00  0.00    -0.040 C 
ATOM     36  H   YS5 d   1      -9.880  19.828  -7.534  0.00  0.00     0.036 H 
ATOM     37  H   YS5 d   1      -9.917  19.349  -5.811  0.00  0.00     0.036 H 
BRANCH  35  38
ATOM     38  CAD YS5 d   1      -9.553  21.442  -6.150  0.00  0.00    -0.074 C 
ATOM     39  H   YS5 d   1      -9.845  22.209  -6.867  0.00  0.00     0.027 H 
ATOM     40  H   YS5 d   1      -9.881  21.732  -5.152  0.00  0.00     0.027 H 
ATOM     41  H   YS5 d   1      -8.469  21.328  -6.159  0.00  0.00     0.027 H 
ENDBRANCH  35  38
ENDBRANCH  34  35
BRANCH  34  42
ATOM     42  OAI YS5 d   1     -12.173  19.278  -7.457  0.00  0.00    -0.390 OA
ATOM     43  H   YS5 d   1     -11.796  19.468  -8.319  0.00  0.00     0.210 HD
ENDBRANCH  34  42
BRANCH  34  44
ATOM     44  CAM YS5 d   1     -12.320  19.932  -5.136  0.00  0.00    -0.040 C 
ATOM     45  H   YS5 d   1     -13.405  19.871  -5.221  0.00  0.00     0.036 H 
ATOM     46  H   YS5 d   1     -12.023  20.721  -4.445  0.00  0.00     0.036 H 
BRANCH  44  47
ATOM     47  CAC YS5 d   1     -11.791  18.585  -4.603  0.00  0.00    -0.074 C 
ATOM     48  H   YS5 d   1     -12.073  17.788  -5.290  0.00  0.00     0.027 H 
ATOM     49  H   YS5 d   1     -10.705  18.629  -4.522  0.00  0.00     0.027 H 
ATOM     50  H   YS5 d   1     -12.222  18.390  -3.621  0.00  0.00     0.027 H 
ENDBRANCH  44  47
ENDBRANCH  34  44
ENDBRANCH  31  34
ENDBRANCH  29  31
BRANCH  29  51
ATOM     51  CAR YS5 d   1     -14.422  21.940  -7.893  0.00  0.00    -0.061 C 
ATOM     52  H   YS5 d   1     -14.213  20.964  -8.330  0.00  0.00     0.033 H 
ATOM     53  H   YS5 d   1     -14.172  22.711  -8.621  0.00  0.00     0.033 H 
BRANCH  51  54
ATOM     54  CAO YS5 d   1     -15.890  22.036  -7.526  0.00  0.00    -0.065 C 
ATOM     55  H   YS5 d   1     -16.157  23.089  -7.438  0.00  0.00     0.033 H 
ATOM     56  H   YS5 d   1     -16.048  21.507  -6.586  0.00  0.00     0.033 H 
BRANCH  54  57
ATOM     57  CAL YS5 d   1     -16.776  21.396  -8.600  0.00  0.00    -0.069 C 
ATOM     58  H   YS5 d   1     -16.203  20.773  -9.287  0.00  0.00     0.032 H 
ATOM     59  H   YS5 d   1     -17.247  22.141  -9.241  0.00  0.00     0.032 H 
BRANCH  57  60
ATOM     60  CAB YS5 d   1     -17.802  20.586  -7.810  0.00  0.00    -0.077 C 
ATOM     61  H   YS5 d   1     -17.287  19.838  -7.207  0.00  0.00     0.027 H 
ATOM     62  H   YS5 d   1     -18.367  21.253  -7.159  0.00  0.00     0.027 H 
ATOM     63  H   YS5 d   1     -18.482  20.090  -8.502  0.00  0.00     0.027 H 
ENDBRANCH  57  60
ENDBRANCH  54  57
ENDBRANCH  51  54
ENDBRANCH  29  51
ENDBRANCH  23  29
ENDBRANCH   9  23
BRANCH   5  64
ATOM     64  CAF YS5 d   1     -13.887  25.892  -4.198  0.00  0.00    -0.068 C 
ATOM     65  H   YS5 d   1     -12.967  25.920  -4.782  0.00  0.00     0.028 H 
ATOM     66  H   YS5 d   1     -14.043  26.858  -3.718  0.00  0.00     0.028 H 
ATOM     67  H   YS5 d   1     -13.812  25.115  -3.437  0.00  0.00     0.028 H 
ENDBRANCH   5  64
BRANCH   1  68
ATOM     68  CAK YS5 d   1     -16.293  27.036  -2.425  0.00  0.00    -0.046 C 
ATOM     69  H   YS5 d   1     -16.757  26.196  -1.908  0.00  0.00     0.039 H 
ATOM     70  H   YS5 d   1     -15.210  27.155  -2.410  0.00  0.00     0.039 H 
BRANCH  68  71
ATOM     71  CAJ YS5 d   1     -16.828  28.285  -1.689  0.00  0.00    -0.100 C 
ATOM     72  CAZ YS5 d   1     -16.462  28.397  -0.348  0.00  0.00    -0.078 C 
ATOM     73  CAV YS5 d   1     -16.525  29.678   0.230  0.00  0.00    -0.017 C 
ATOM     74  CAW YS5 d   1     -16.155  27.248   0.450  0.00  0.00    -0.017 C 
ATOM     75  CBB YS5 d   1     -17.058  29.714   1.680  0.00  0.00     0.062 C 
ATOM     76  H   YS5 d   1     -15.505  30.061   0.260  0.00  0.00     0.043 H 
ATOM     77  H   YS5 d   1     -17.218  30.263  -0.375  0.00  0.00     0.043 H 
ATOM     78  CAY YS5 d   1     -16.668  28.578   2.394  0.00  0.00    -0.032 C 
ATOM     79  H   YS5 d   1     -16.629  30.578   2.187  0.00  0.00     0.090 H 
ATOM     80  CAA YS5 d   1     -16.021  28.719   3.631  0.00  0.00    -0.114 C 
ATOM     81  CBC YS5 d   1     -16.874  27.326   1.835  0.00  0.00     0.062 C 
ATOM     82  H   YS5 d   1     -15.672  27.837   4.167  0.00  0.00     0.067 H 
ATOM     83  H   YS5 d   1     -15.867  29.711   4.056  0.00  0.00     0.067 H 
ATOM     84  H   YS5 d   1     -17.942  27.163   1.693  0.00  0.00     0.090 H 
ATOM     85  H   YS5 d   1     -16.497  26.355  -0.073  0.00  0.00     0.043 H 
ATOM     86  H   YS5 d   1     -15.078  27.212   0.615  0.00  0.00     0.043 H 
ATOM     87  H   YS5 d   1     -17.451  29.029  -2.185  0.00  0.00     0.077 H 
BRANCH  75  88
ATOM     88  OAG YS5 d   1     -18.461  29.836   1.662  0.00  0.00    -0.391 OA
ATOM     89  H   YS5 d   1     -18.791  29.858   2.563  0.00  0.00     0.210 HD
ENDBRANCH  75  88
BRANCH  81  90
ATOM     90  OAH YS5 d   1     -16.368  26.325   2.702  0.00  0.00    -0.391 OA
ATOM     91  H   YS5 d   1     -15.427  26.464   2.834  0.00  0.00     0.210 HD
ENDBRANCH  81  90
ENDBRANCH  68  71
ENDBRANCH   1  68
TORSDOF 19
