REMARK  5 active torsions:
REMARK  status: ('A' for Active; 'I' for Inactive)
REMARK    1  A    between atoms: N1_1  and  C1_2 
REMARK    2  A    between atoms: N2_8  and  C17_9 
REMARK    3  A    between atoms: C3_15  and  C4_16 
REMARK    4  A    between atoms: C7_19  and  O_22 
REMARK    5  A    between atoms: O_22  and  C8_23 
ROOT
ATOM      1  C1  B43 d   1       4.415  -8.477  11.978  0.00  0.00     0.137 A 
ATOM      2  N4  B43 d   1       5.592  -8.298  11.329  0.00  0.00    -0.224 NA
ATOM      3  C23 B43 d   1       6.333  -9.338  10.924  0.00  0.00     0.091 A 
ATOM      4  N3  B43 d   1       5.923 -10.596  11.166  0.00  0.00    -0.223 NA
ATOM      5  C22 B43 d   1       4.749 -10.845  11.818  0.00  0.00     0.146 A 
ATOM      6  C2  B43 d   1       3.968  -9.761  12.243  0.00  0.00     0.068 A 
ATOM      7  N2  B43 d   1       4.120 -11.981  12.203  0.00  0.00    -0.335 N 
ATOM      8  C16 B43 d   1       2.995 -11.665  12.820  0.00  0.00    -0.006 A 
ATOM      9  C3  B43 d   1       2.856 -10.303  12.901  0.00  0.00     0.008 A 
ATOM     10  H3  B43 d   1       7.266  -9.165  10.400  0.00  0.00     0.146 H 
ATOM     11  H13 B43 d   1       2.278 -12.386  13.210  0.00  0.00     0.113 H 
ENDROOT
BRANCH   9  12
ATOM     12  C4  B43 d   1       1.607  -9.783  13.517  0.00  0.00    -0.023 A 
ATOM     13  C15 B43 d   1       1.127 -10.322  14.716  0.00  0.00    -0.070 A 
ATOM     14  C14 B43 d   1      -0.105  -9.891  15.234  0.00  0.00    -0.049 A 
ATOM     15  H14 B43 d   1       1.706 -11.071  15.244  0.00  0.00     0.085 H 
ATOM     16  C7  B43 d   1      -0.863  -8.949  14.539  0.00  0.00     0.076 A 
ATOM     17  H15 B43 d   1      -0.467 -10.291  16.174  0.00  0.00     0.087 H 
ATOM     18  C6  B43 d   1      -0.389  -8.464  13.320  0.00  0.00    -0.049 A 
ATOM     19  C5  B43 d   1       0.831  -8.879  12.796  0.00  0.00    -0.070 A 
ATOM     20  H16 B43 d   1      -0.986  -7.747  12.768  0.00  0.00     0.087 H 
ATOM     21  H17 B43 d   1       1.173  -8.503  11.838  0.00  0.00     0.085 H 
BRANCH  16  22
ATOM     22  O   B43 d   1      -2.079  -8.495  15.014  0.00  0.00    -0.311 OA
BRANCH  22  23
ATOM     23  C8  B43 d   1      -2.293  -8.154  16.327  0.00  0.00     0.076 A 
ATOM     24  C13 B43 d   1      -3.440  -8.587  17.005  0.00  0.00    -0.050 A 
ATOM     25  C12 B43 d   1      -3.657  -8.216  18.338  0.00  0.00    -0.080 A 
ATOM     26  H18 B43 d   1      -4.164  -9.213  16.495  0.00  0.00     0.087 H 
ATOM     27  C11 B43 d   1      -2.725  -7.395  18.988  0.00  0.00    -0.083 A 
ATOM     28  H19 B43 d   1      -4.540  -8.562  18.864  0.00  0.00     0.083 H 
ATOM     29  C10 B43 d   1      -1.586  -6.953  18.308  0.00  0.00    -0.080 A 
ATOM     30  H20 B43 d   1      -2.888  -7.103  20.019  0.00  0.00     0.083 H 
ATOM     31  C9  B43 d   1      -1.378  -7.330  16.982  0.00  0.00    -0.050 A 
ATOM     32  H21 B43 d   1      -0.866  -6.318  18.811  0.00  0.00     0.083 H 
ATOM     33  H22 B43 d   1      -0.497  -6.980  16.456  0.00  0.00     0.087 H 
ENDBRANCH  22  23
ENDBRANCH  16  22
ENDBRANCH   9  12
BRANCH   1  34
ATOM     34  N1  B43 d   1       3.681  -7.413  12.381  0.00  0.00    -0.383 N 
ATOM     35  H1  B43 d   1       2.788  -7.560  12.873  0.00  0.00     0.157 HD
ATOM     36  H2  B43 d   1       4.015  -6.457  12.195  0.00  0.00     0.157 HD
ENDBRANCH   1  34
BRANCH   7  37
ATOM     37  C17 B43 d   1       4.416 -13.433  12.060  0.00  0.00     0.018 C 
ATOM     38  C21 B43 d   1       4.665 -13.946  10.660  0.00  0.00    -0.046 C 
ATOM     39  C20 B43 d   1       5.148 -15.367  10.941  0.00  0.00    -0.063 C 
ATOM     40  H5  B43 d   1       5.436 -13.354  10.146  0.00  0.00     0.036 H 
ATOM     41  H6  B43 d   1       3.742 -13.946  10.061  0.00  0.00     0.036 H 
ATOM     42  C19 B43 d   1       5.840 -15.339  12.310  0.00  0.00    -0.063 C 
ATOM     43  H7  B43 d   1       5.859 -15.686  10.164  0.00  0.00     0.033 H 
ATOM     44  H8  B43 d   1       4.294 -16.060  10.963  0.00  0.00     0.033 H 
ATOM     45  C18 B43 d   1       5.601 -13.949  12.885  0.00  0.00    -0.046 C 
ATOM     46  H9  B43 d   1       6.918 -15.523  12.195  0.00  0.00     0.033 H 
ATOM     47  H10 B43 d   1       5.406 -16.104  12.971  0.00  0.00     0.033 H 
ATOM     48  H11 B43 d   1       5.346 -14.002  13.954  0.00  0.00     0.036 H 
ATOM     49  H12 B43 d   1       6.485 -13.308  12.751  0.00  0.00     0.036 H 
ATOM     50  H4  B43 d   1       3.515 -13.943  12.432  0.00  0.00     0.073 H 
ENDBRANCH   7  37
TORSDOF 5
