REMARK  7 active torsions:
REMARK  status: ('A' for Active; 'I' for Inactive)
REMARK    1  A    between atoms: NAK_1  and  C6_2 
REMARK    2  A    between atoms: CAI_4  and  CAJ_5 
REMARK    3  A    between atoms: CAN_8  and  OBD_9 
REMARK    4  A    between atoms: OBD_9  and  CBE_10 
REMARK    5  A    between atoms: NAG_19  and  CAQ_24 
REMARK    6  A    between atoms: CAT_27  and  NAW_30 
REMARK    7  A    between atoms: NAZ_33  and  CBC_34 
ROOT
ATOM      1  C6  VSE d   1      -0.046   3.326  12.936  0.00  0.00     0.137 A 
ATOM      2  C5  VSE d   1       0.460   4.620  13.045  0.00  0.00     0.068 A 
ATOM      3  CAI VSE d   1       1.717   5.173  13.282  0.00  0.00     0.008 A 
ATOM      4  CAH VSE d   1       1.546   6.538  13.280  0.00  0.00    -0.006 A 
ATOM      5  NAG VSE d   1       0.263   6.835  13.080  0.00  0.00    -0.335 N 
ATOM      6  C4  VSE d   1      -0.429   5.692  12.948  0.00  0.00     0.146 A 
ATOM      7  N3  VSE d   1      -1.744   5.440  12.732  0.00  0.00    -0.223 NA
ATOM      8  C2  VSE d   1      -2.197   4.183  12.622  0.00  0.00     0.091 A 
ATOM      9  N1  VSE d   1      -1.369   3.135  12.724  0.00  0.00    -0.224 NA
ATOM     10  H12 VSE d   1       2.342   7.268  13.421  0.00  0.00     0.113 H 
ATOM     11  H13 VSE d   1      -3.253   4.011  12.447  0.00  0.00     0.146 H 
ENDROOT
BRANCH   5  12
ATOM     12  CAQ VSE d   1      -0.203   8.250  13.067  0.00  0.00     0.018 C 
ATOM     13  CAV VSE d   1      -1.392   8.518  13.986  0.00  0.00    -0.044 C 
ATOM     14  CAU VSE d   1      -1.598  10.028  14.067  0.00  0.00    -0.036 C 
ATOM     15  H15 VSE d   1      -1.186   8.116  14.989  0.00  0.00     0.036 H 
ATOM     16  H16 VSE d   1      -2.294   8.040  13.577  0.00  0.00     0.036 H 
ATOM     17  CAT VSE d   1      -1.875  10.586  12.671  0.00  0.00     0.104 C 
ATOM     18  H17 VSE d   1      -0.692  10.499  14.476  0.00  0.00     0.036 H 
ATOM     19  H18 VSE d   1      -2.453  10.246  14.724  0.00  0.00     0.036 H 
ATOM     20  CAS VSE d   1      -0.715  10.260  11.733  0.00  0.00    -0.036 C 
ATOM     21  H19 VSE d   1      -2.826  10.192  12.282  0.00  0.00     0.084 H 
ATOM     22  CAR VSE d   1      -0.489   8.756  11.660  0.00  0.00    -0.044 C 
ATOM     23  H20 VSE d   1       0.199  10.745  12.107  0.00  0.00     0.036 H 
ATOM     24  H21 VSE d   1      -0.946  10.640  10.727  0.00  0.00     0.036 H 
ATOM     25  H22 VSE d   1      -1.388   8.263  11.262  0.00  0.00     0.036 H 
ATOM     26  H23 VSE d   1       0.368   8.539  11.005  0.00  0.00     0.036 H 
ATOM     27  H14 VSE d   1       0.633   8.850  13.456  0.00  0.00     0.073 H 
BRANCH  17  28
ATOM     28  NAW VSE d   1      -1.887  12.043  12.740  0.00  0.00    -0.064 N 
ATOM     29  CAX VSE d   1      -2.887  12.702  11.915  0.00  0.00     0.106 C 
ATOM     30  CAY VSE d   1      -2.527  14.179  11.952  0.00  0.00     0.105 C 
ATOM     31  H25 VSE d   1      -3.894  12.540  12.327  0.00  0.00     0.078 H 
ATOM     32  H26 VSE d   1      -2.847  12.322  10.884  0.00  0.00     0.078 H 
ATOM     33  NAZ VSE d   1      -2.509  14.513  13.364  0.00  0.00    -0.072 N 
ATOM     34  H27 VSE d   1      -3.282  14.777  11.421  0.00  0.00     0.078 H 
ATOM     35  H28 VSE d   1      -1.539  14.350  11.499  0.00  0.00     0.078 H 
ATOM     36  CBA VSE d   1      -1.553  13.899  14.281  0.00  0.00     0.105 C 
ATOM     37  H29 VSE d   1      -3.167  13.774  13.555  0.00  0.00     0.279 HD
ATOM     38  CBB VSE d   1      -0.904  12.694  13.599  0.00  0.00     0.106 C 
ATOM     39  H33 VSE d   1      -2.076  13.569  15.191  0.00  0.00     0.078 H 
ATOM     40  H34 VSE d   1      -0.778  14.632  14.549  0.00  0.00     0.078 H 
ATOM     41  H35 VSE d   1      -0.050  13.030  12.992  0.00  0.00     0.078 H 
ATOM     42  H36 VSE d   1      -0.554  11.983  14.362  0.00  0.00     0.078 H 
ATOM     43  H24 VSE d   1      -2.536  12.030  13.511  0.00  0.00     0.280 HD
BRANCH  33  44
ATOM     44  CBC VSE d   1      -3.456  15.505  13.850  0.00  0.00     0.066 C 
ATOM     45  H30 VSE d   1      -3.317  15.646  14.932  0.00  0.00     0.068 H 
ATOM     46  H31 VSE d   1      -4.482  15.159  13.654  0.00  0.00     0.068 H 
ATOM     47  H32 VSE d   1      -3.285  16.460  13.331  0.00  0.00     0.068 H 
ENDBRANCH  33  44
ENDBRANCH  17  28
ENDBRANCH   5  12
BRANCH   3  48
ATOM     48  CAJ VSE d   1       3.074   4.574  13.440  0.00  0.00    -0.023 A 
ATOM     49  CAL VSE d   1       3.948   5.083  14.399  0.00  0.00    -0.070 A 
ATOM     50  CAM VSE d   1       5.233   4.561  14.523  0.00  0.00    -0.049 A 
ATOM     51  H3  VSE d   1       3.627   5.888  15.050  0.00  0.00     0.085 H 
ATOM     52  CAN VSE d   1       5.646   3.543  13.672  0.00  0.00     0.076 A 
ATOM     53  H4  VSE d   1       5.907   4.947  15.279  0.00  0.00     0.087 H 
ATOM     54  CAO VSE d   1       4.784   3.064  12.693  0.00  0.00    -0.049 A 
ATOM     55  CAP VSE d   1       3.501   3.586  12.569  0.00  0.00    -0.070 A 
ATOM     56  H10 VSE d   1       5.114   2.279  12.022  0.00  0.00     0.087 H 
ATOM     57  H11 VSE d   1       2.838   3.221  11.793  0.00  0.00     0.085 H 
BRANCH  52  58
ATOM     58  OBD VSE d   1       6.906   3.012  13.758  0.00  0.00    -0.311 OA
BRANCH  58  59
ATOM     59  CBE VSE d   1       7.457   2.604  14.942  0.00  0.00     0.076 A 
ATOM     60  CBF VSE d   1       8.719   3.067  15.296  0.00  0.00    -0.050 A 
ATOM     61  CBG VSE d   1       9.303   2.654  16.486  0.00  0.00    -0.080 A 
ATOM     62  H5  VSE d   1       9.248   3.751  14.642  0.00  0.00     0.087 H 
ATOM     63  CBH VSE d   1       8.632   1.769  17.323  0.00  0.00    -0.083 A 
ATOM     64  H6  VSE d   1      10.284   3.022  16.763  0.00  0.00     0.083 H 
ATOM     65  CBI VSE d   1       7.374   1.299  16.963  0.00  0.00    -0.080 A 
ATOM     66  H7  VSE d   1       9.088   1.447  18.252  0.00  0.00     0.083 H 
ATOM     67  CBJ VSE d   1       6.786   1.711  15.769  0.00  0.00    -0.050 A 
ATOM     68  H8  VSE d   1       6.849   0.609  17.614  0.00  0.00     0.083 H 
ATOM     69  H9  VSE d   1       5.809   1.337  15.486  0.00  0.00     0.087 H 
ENDBRANCH  58  59
ENDBRANCH  52  58
ENDBRANCH   3  48
BRANCH   1  70
ATOM     70  NAK VSE d   1       0.762   2.250  13.038  0.00  0.00    -0.383 N 
ATOM     71  H1  VSE d   1       0.369   1.301  12.955  0.00  0.00     0.157 HD
ATOM     72  H2  VSE d   1       1.771   2.377  13.199  0.00  0.00     0.157 HD
ENDBRANCH   1  70
TORSDOF 7
