REMARK  23 active torsions:
REMARK  status: ('A' for Active; 'I' for Inactive)
REMARK    1  A    between atoms: N2_2  and  C19_19 
REMARK    2  A    between atoms: N5_5  and  C7_7 
REMARK    3  A    between atoms: C8_8  and  O13_13 
REMARK    4  A    between atoms: O13_13  and  C14_14 
REMARK    5  A    between atoms: C14_14  and  C15_15 
REMARK    6  A    between atoms: C15_15  and  C16_16 
REMARK    7  A    between atoms: C16_16  and  O17_17 
REMARK    8  A    between atoms: O17_17  and  C18_18 
REMARK    9  A    between atoms: C19_19  and  C20_20 
REMARK   10  A    between atoms: C20_20  and  C21_21 
REMARK   11  A    between atoms: C20_20  and  N22_22 
REMARK   12  A    between atoms: C21_21  and  C23_23 
REMARK   13  A    between atoms: C21_21  and  O24_24 
REMARK   14  A    between atoms: C23_23  and  C25_25 
REMARK   15  A    between atoms: C25_25  and  C26_26 
REMARK   16  A    between atoms: C25_25  and  C29_29 
REMARK       I    between atoms: C26_26  and  N27_27 
REMARK   17  A    between atoms: N27_27  and  C30_30 
REMARK   18  A    between atoms: C29_29  and  C37_37 
REMARK   19  A    between atoms: C29_29  and  C38_38 
REMARK   20  A    between atoms: C30_30  and  C31_31 
REMARK   21  A    between atoms: C31_31  and  C32_32 
REMARK   22  A    between atoms: C31_31  and  C34_34 
REMARK   23  A    between atoms: C31_31  and  C35_35 
REMARK       I    between atoms: C32_32  and  N33_33 
ROOT
ATOM      1  C20 R31 d   1     178.102 201.168  98.437  0.00  0.00     0.139 C 
ATOM      2  H   R31 d   1     177.046 200.976  98.628  0.00  0.00     0.090 H 
ENDROOT
BRANCH   1   3
ATOM      3  C19 R31 d   1     178.700 199.998  97.617  0.00  0.00     0.019 C 
ATOM      4  H   R31 d   1     179.520 200.415  97.033  0.00  0.00     0.067 H 
ATOM      5  H   R31 d   1     178.981 199.227  98.334  0.00  0.00     0.067 H 
BRANCH   3   6
ATOM      6  N2  R31 d   1     177.808 199.383  96.686  0.00  0.00    -0.400 N 
ATOM      7  C1  R31 d   1     176.580 198.788  97.173  0.00  0.00     0.064 C 
ATOM      8  C6  R31 d   1     175.579 198.456  96.043  0.00  0.00     0.241 C 
ATOM      9  H   R31 d   1     176.103 199.508  97.838  0.00  0.00     0.078 H 
ATOM     10  H   R31 d   1     176.839 197.854  97.672  0.00  0.00     0.078 H 
ATOM     11  N5  R31 d   1     175.992 198.363  94.718  0.00  0.00    -0.312 N 
ATOM     12  O39 R31 d   1     174.429 198.258  96.383  0.00  0.00    -0.271 OA
ATOM     13  C4  R31 d   1     177.282 198.976  94.306  0.00  0.00     0.017 C 
ATOM     14  C3  R31 d   1     178.331 198.910  95.442  0.00  0.00     0.006 C 
ATOM     15  H   R31 d   1     177.667 198.425  93.448  0.00  0.00     0.067 H 
ATOM     16  H   R31 d   1     177.104 200.023  94.062  0.00  0.00     0.067 H 
ATOM     17  H   R31 d   1     178.626 197.869  95.572  0.00  0.00     0.066 H 
ATOM     18  H   R31 d   1     179.173 199.544  95.164  0.00  0.00     0.066 H 
BRANCH  11  19
ATOM     19  C7  R31 d   1     175.206 197.721  93.790  0.00  0.00     0.070 C 
ATOM     20  C8  R31 d   1     174.450 198.475  92.870  0.00  0.00     0.095 C 
ATOM     21  C9  R31 d   1     173.599 197.819  91.943  0.00  0.00    -0.049 C 
ATOM     22  C10 R31 d   1     173.413 196.401  92.051  0.00  0.00    -0.080 C 
ATOM     23  H   R31 d   1     173.094 198.385  91.160  0.00  0.00     0.087 H 
ATOM     24  C11 R31 d   1     174.203 195.648  92.951  0.00  0.00    -0.081 C 
ATOM     25  H   R31 d   1     172.662 195.903  91.439  0.00  0.00     0.083 H 
ATOM     26  C12 R31 d   1     175.148 196.308  93.765  0.00  0.00    -0.054 C 
ATOM     27  H   R31 d   1     174.083 194.567  93.015  0.00  0.00     0.083 H 
ATOM     28  H   R31 d   1     175.837 195.726  94.377  0.00  0.00     0.087 H 
BRANCH  20  29
ATOM     29  O13 R31 d   1     174.505 199.816  92.856  0.00  0.00    -0.349 OA
BRANCH  29  30
ATOM     30  C14 R31 d   1     174.811 200.677  91.800  0.00  0.00     0.028 C 
ATOM     31  H   R31 d   1     173.888 200.952  91.290  0.00  0.00     0.075 H 
ATOM     32  H   R31 d   1     175.490 200.169  91.115  0.00  0.00     0.075 H 
BRANCH  30  33
ATOM     33  C15 R31 d   1     175.490 201.950  92.322  0.00  0.00    -0.025 C 
ATOM     34  H   R31 d   1     176.463 201.705  92.747  0.00  0.00     0.039 H 
ATOM     35  H   R31 d   1     174.877 202.406  93.100  0.00  0.00     0.039 H 
BRANCH  33  36
ATOM     36  C16 R31 d   1     175.661 202.924  91.153  0.00  0.00     0.021 C 
ATOM     37  H   R31 d   1     175.503 203.942  91.508  0.00  0.00     0.074 H 
ATOM     38  H   R31 d   1     174.935 202.683  90.376  0.00  0.00     0.074 H 
BRANCH  36  39
ATOM     39  O17 R31 d   1     176.966 202.815  90.620  0.00  0.00    -0.396 OA
BRANCH  39  40
ATOM     40  C18 R31 d   1     177.420 204.099  90.238  0.00  0.00     0.004 C 
ATOM     41  H   R31 d   1     176.749 204.511  89.484  0.00  0.00     0.066 H 
ATOM     42  H   R31 d   1     177.433 204.753  91.110  0.00  0.00     0.066 H 
ATOM     43  H   R31 d   1     178.426 204.020  89.826  0.00  0.00     0.066 H 
ENDBRANCH  39  40
ENDBRANCH  36  39
ENDBRANCH  33  36
ENDBRANCH  30  33
ENDBRANCH  29  30
ENDBRANCH  20  29
ENDBRANCH  11  19
ENDBRANCH   3   6
ENDBRANCH   1   3
BRANCH   1  44
ATOM     44  C21 R31 d   1     178.805 201.310  99.823  0.00  0.00     0.065 C 
ATOM     45  H   R31 d   1     178.822 200.306 100.246  0.00  0.00     0.086 H 
BRANCH  44  46
ATOM     46  C23 R31 d   1     178.057 202.201 100.849  0.00  0.00    -0.027 C 
ATOM     47  H   R31 d   1     177.246 201.562 101.198  0.00  0.00     0.038 H 
ATOM     48  H   R31 d   1     177.873 203.124 100.299  0.00  0.00     0.038 H 
BRANCH  46  49
ATOM     49  C25 R31 d   1     178.728 202.691 102.167  0.00  0.00     0.029 C 
ATOM     50  H   R31 d   1     179.639 203.224 101.895  0.00  0.00     0.055 H 
BRANCH  49  51
ATOM     51  C26 R31 d   1     179.115 201.475 103.032  0.00  0.00     0.222 C 
ATOM     52  N27 R31 d   1     180.389 201.108 103.209  0.00  0.00    -0.360 N 
ATOM     53  H   R31 d   1     181.118 201.802 103.043  0.00  0.00     0.162 HD
ATOM     54  O28 R31 d   1     178.223 200.805 103.571  0.00  0.00    -0.273 OA
BRANCH  52  55
ATOM     55  C30 R31 d   1     180.795 199.762 103.629  0.00  0.00     0.010 C 
ATOM     56  H   R31 d   1     181.519 199.425 102.887  0.00  0.00     0.065 H 
ATOM     57  H   R31 d   1     179.873 199.187 103.718  0.00  0.00     0.065 H 
BRANCH  55  58
ATOM     58  C31 R31 d   1     181.499 199.638 104.989  0.00  0.00     0.049 C 
BRANCH  58  59
ATOM     59  C32 R31 d   1     182.528 200.804 105.058  0.00  0.00     0.225 C 
ATOM     60  N33 R31 d   1     183.616 200.761 104.238  0.00  0.00    -0.369 N 
ATOM     61  H   R31 d   1     184.294 201.523 104.250  0.00  0.00     0.159 HD
ATOM     62  H   R31 d   1     183.752 199.967 103.613  0.00  0.00     0.159 HD
ATOM     63  O36 R31 d   1     182.352 201.753 105.815  0.00  0.00    -0.273 OA
ENDBRANCH  58  59
BRANCH  58  64
ATOM     64  C34 R31 d   1     180.481 199.766 106.158  0.00  0.00    -0.059 C 
ATOM     65  H   R31 d   1     179.990 200.738 106.106  0.00  0.00     0.029 H 
ATOM     66  H   R31 d   1     179.735 198.975 106.077  0.00  0.00     0.029 H 
ATOM     67  H   R31 d   1     181.007 199.674 107.108  0.00  0.00     0.029 H 
ENDBRANCH  58  64
BRANCH  58  68
ATOM     68  C35 R31 d   1     182.298 198.302 105.104  0.00  0.00    -0.059 C 
ATOM     69  H   R31 d   1     181.614 197.460 104.992  0.00  0.00     0.029 H 
ATOM     70  H   R31 d   1     183.054 198.264 104.320  0.00  0.00     0.029 H 
ATOM     71  H   R31 d   1     182.781 198.252 106.080  0.00  0.00     0.029 H 
ENDBRANCH  58  68
ENDBRANCH  55  58
ENDBRANCH  52  55
ENDBRANCH  49  51
BRANCH  49  72
ATOM     72  C29 R31 d   1     177.891 203.781 102.952  0.00  0.00    -0.049 C 
ATOM     73  H   R31 d   1     177.032 203.169 103.227  0.00  0.00     0.040 H 
BRANCH  72  74
ATOM     74  C37 R31 d   1     178.595 204.326 104.246  0.00  0.00    -0.072 C 
ATOM     75  H   R31 d   1     178.773 203.501 104.936  0.00  0.00     0.028 H 
ATOM     76  H   R31 d   1     179.545 204.786 103.975  0.00  0.00     0.028 H 
ATOM     77  H   R31 d   1     177.953 205.067 104.722  0.00  0.00     0.028 H 
ENDBRANCH  72  74
BRANCH  72  78
ATOM     78  C38 R31 d   1     177.300 204.963 102.152  0.00  0.00    -0.072 C 
ATOM     79  H   R31 d   1     178.108 205.518 101.675  0.00  0.00     0.028 H 
ATOM     80  H   R31 d   1     176.621 204.581 101.390  0.00  0.00     0.028 H 
ATOM     81  H   R31 d   1     176.755 205.622 102.829  0.00  0.00     0.028 H 
ENDBRANCH  72  78
ENDBRANCH  49  72
ENDBRANCH  46  49
ENDBRANCH  44  46
BRANCH  44  82
ATOM     82  O24 R31 d   1     180.106 201.839  99.633  0.00  0.00    -0.393 OA
ATOM     83  H   R31 d   1     180.581 201.297  98.999  0.00  0.00     0.210 HD
ENDBRANCH  44  82
ENDBRANCH   1  44
BRANCH   1  84
ATOM     84  N22 R31 d   1     178.279 202.401  97.655  0.00  0.00    -0.071 N 
ATOM     85  H   R31 d   1     177.893 203.190  98.174  0.00  0.00     0.274 HD
ATOM     86  H   R31 d   1     179.273 202.557  97.488  0.00  0.00     0.274 HD
ATOM     87  H   R31 d   1     177.794 202.309  96.763  0.00  0.00     0.274 HD
ENDBRANCH   1  84
TORSDOF 23
