REMARK  19 active torsions:
REMARK  status: ('A' for Active; 'I' for Inactive)
REMARK    1  A    between atoms: C2_2  and  N7_7 
REMARK    2  A    between atoms: C10_10  and  C15_15 
REMARK    3  A    between atoms: C10_10  and  C16_16 
REMARK    4  A    between atoms: N11_11  and  C17_17 
REMARK    5  A    between atoms: C17_17  and  C18_18 
REMARK    6  A    between atoms: C18_18  and  C19_19 
REMARK    7  A    between atoms: C18_18  and  N26_26 
REMARK    8  A    between atoms: C19_19  and  C20_20 
REMARK    9  A    between atoms: C19_19  and  O27_27 
REMARK   10  A    between atoms: C20_20  and  C21_21 
REMARK   11  A    between atoms: C21_21  and  C22_22 
REMARK   12  A    between atoms: C21_21  and  C28_28 
REMARK       I    between atoms: C22_22  and  N23_23 
REMARK   13  A    between atoms: N23_23  and  C24_24 
REMARK   14  A    between atoms: C24_24  and  C25_25 
REMARK   15  A    between atoms: C25_25  and  C32_32 
REMARK   16  A    between atoms: C25_25  and  C33_33 
REMARK   17  A    between atoms: C25_25  and  C34_34 
REMARK   18  A    between atoms: C28_28  and  C30_30 
REMARK   19  A    between atoms: C28_28  and  C31_31 
REMARK       I    between atoms: C32_32  and  N35_35 
ROOT
ATOM      1  C19 R32 d   1     -64.804-163.138-140.801  0.00  0.00     0.065 C 
ATOM      2  H   R32 d   1     -65.235-162.137-140.823  0.00  0.00     0.086 H 
ENDROOT
BRANCH   1   3
ATOM      3  C18 R32 d   1     -63.431-162.994-140.143  0.00  0.00     0.139 C 
ATOM      4  H   R32 d   1     -63.626-162.763-139.096  0.00  0.00     0.090 H 
BRANCH   3   5
ATOM      5  C17 R32 d   1     -62.628-161.818-140.711  0.00  0.00     0.020 C 
ATOM      6  H   R32 d   1     -62.148-162.143-141.634  0.00  0.00     0.067 H 
ATOM      7  H   R32 d   1     -63.311-160.986-140.885  0.00  0.00     0.067 H 
BRANCH   5   8
ATOM      8  N11 R32 d   1     -61.595-161.379-139.786  0.00  0.00    -0.392 N 
ATOM      9  C10 R32 d   1     -60.380-160.778-140.322  0.00  0.00     0.037 C 
ATOM     10  C9  R32 d   1     -59.284-160.969-139.294  0.00  0.00     0.025 C 
ATOM     11  N7  R32 d   1     -59.649-160.527-137.938  0.00  0.00    -0.313 N 
ATOM     12  H   R32 d   1     -59.075-162.037-139.240  0.00  0.00     0.068 H 
ATOM     13  H   R32 d   1     -58.434-160.365-139.612  0.00  0.00     0.068 H 
ATOM     14  C13 R32 d   1     -60.955-160.509-137.498  0.00  0.00     0.242 C 
ATOM     15  C12 R32 d   1     -62.048-160.965-138.474  0.00  0.00     0.065 C 
ATOM     16  O14 R32 d   1     -61.272-160.148-136.377  0.00  0.00    -0.271 OA
ATOM     17  H   R32 d   1     -62.517-161.839-138.022  0.00  0.00     0.078 H 
ATOM     18  H   R32 d   1     -62.697-160.103-138.632  0.00  0.00     0.078 H 
BRANCH   9  19
ATOM     19  C15 R32 d   1     -59.984-161.468-141.631  0.00  0.00    -0.052 C 
ATOM     20  H   R32 d   1     -59.057-161.032-142.004  0.00  0.00     0.030 H 
ATOM     21  H   R32 d   1     -59.839-162.533-141.449  0.00  0.00     0.030 H 
ATOM     22  H   R32 d   1     -60.775-161.328-142.368  0.00  0.00     0.030 H 
ENDBRANCH   9  19
BRANCH   9  23
ATOM     23  C16 R32 d   1     -60.595-159.286-140.582  0.00  0.00    -0.052 C 
ATOM     24  H   R32 d   1     -60.883-158.794-139.653  0.00  0.00     0.030 H 
ATOM     25  H   R32 d   1     -59.670-158.847-140.956  0.00  0.00     0.030 H 
ATOM     26  H   R32 d   1     -61.385-159.158-141.322  0.00  0.00     0.030 H 
ENDBRANCH   9  23
BRANCH  11  27
ATOM     27  C2  R32 d   1     -58.646-160.112-137.069  0.00  0.00     0.059 A 
ATOM     28  C1  R32 d   1     -57.835-161.078-136.486  0.00  0.00    -0.055 A 
ATOM     29  C6  R32 d   1     -56.822-160.696-135.609  0.00  0.00    -0.081 A 
ATOM     30  H   R32 d   1     -57.991-162.132-136.714  0.00  0.00     0.087 H 
ATOM     31  C5  R32 d   1     -56.616-159.352-135.314  0.00  0.00    -0.081 A 
ATOM     32  H   R32 d   1     -56.187-161.455-135.151  0.00  0.00     0.083 H 
ATOM     33  C4  R32 d   1     -57.424-158.383-135.894  0.00  0.00    -0.060 A 
ATOM     34  H   R32 d   1     -55.821-159.060-134.628  0.00  0.00     0.083 H 
ATOM     35  C3  R32 d   1     -58.424-158.782-136.762  0.00  0.00     0.060 A 
ATOM     36  H   R32 d   1     -57.273-157.327-135.669  0.00  0.00     0.086 H 
ATOM     37 CL1  R32 d   1     -59.429-157.577-137.482  0.00  0.00    -0.082 Cl
ENDBRANCH  11  27
ENDBRANCH   5   8
ENDBRANCH   3   5
BRANCH   3  38
ATOM     38  N26 R32 d   1     -62.667-164.234-140.155  0.00  0.00    -0.071 N 
ATOM     39  H   R32 d   1     -63.237-164.987-139.770  0.00  0.00     0.274 HD
ATOM     40  H   R32 d   1     -62.404-164.461-141.114  0.00  0.00     0.274 HD
ATOM     41  H   R32 d   1     -61.826-164.119-139.589  0.00  0.00     0.274 HD
ENDBRANCH   3  38
ENDBRANCH   1   3
BRANCH   1  42
ATOM     42  C20 R32 d   1     -65.789-164.005-139.999  0.00  0.00    -0.027 C 
ATOM     43  H   R32 d   1     -66.018-163.485-139.069  0.00  0.00     0.038 H 
ATOM     44  H   R32 d   1     -65.323-164.975-139.825  0.00  0.00     0.038 H 
BRANCH  42  45
ATOM     45  C21 R32 d   1     -67.110-164.238-140.755  0.00  0.00     0.029 C 
ATOM     46  H   R32 d   1     -66.849-164.687-141.713  0.00  0.00     0.055 H 
BRANCH  45  47
ATOM     47  C22 R32 d   1     -67.818-162.890-140.985  0.00  0.00     0.222 C 
ATOM     48  N23 R32 d   1     -67.945-162.583-142.289  0.00  0.00    -0.360 N 
ATOM     49  H   R32 d   1     -67.599-163.208-143.017  0.00  0.00     0.162 HD
ATOM     50  O29 R32 d   1     -68.207-162.189-140.054  0.00  0.00    -0.273 OA
BRANCH  48  51
ATOM     51  C24 R32 d   1     -68.592-161.330-142.617  0.00  0.00     0.010 C 
ATOM     52  H   R32 d   1     -67.914-160.721-143.215  0.00  0.00     0.065 H 
ATOM     53  H   R32 d   1     -68.847-160.805-141.696  0.00  0.00     0.065 H 
BRANCH  51  54
ATOM     54  C25 R32 d   1     -69.871-161.598-143.417  0.00  0.00     0.049 C 
BRANCH  54  55
ATOM     55  C32 R32 d   1     -69.460-162.154-144.786  0.00  0.00     0.225 C 
ATOM     56  N35 R32 d   1     -68.722-161.287-145.515  0.00  0.00    -0.369 N 
ATOM     57  H   R32 d   1     -68.383-161.557-146.438  0.00  0.00     0.159 HD
ATOM     58  H   R32 d   1     -68.505-160.363-145.142  0.00  0.00     0.159 HD
ATOM     59  O36 R32 d   1     -69.776-163.284-145.141  0.00  0.00    -0.273 OA
ENDBRANCH  54  55
BRANCH  54  60
ATOM     60  C33 R32 d   1     -70.651-160.297-143.637  0.00  0.00    -0.059 C 
ATOM     61  H   R32 d   1     -70.920-159.869-142.672  0.00  0.00     0.029 H 
ATOM     62  H   R32 d   1     -70.030-159.591-144.188  0.00  0.00     0.029 H 
ATOM     63  H   R32 d   1     -71.556-160.509-144.207  0.00  0.00     0.029 H 
ENDBRANCH  54  60
BRANCH  54  64
ATOM     64  C34 R32 d   1     -70.755-162.643-142.720  0.00  0.00    -0.059 C 
ATOM     65  H   R32 d   1     -70.203-163.578-142.623  0.00  0.00     0.029 H 
ATOM     66  H   R32 d   1     -71.033-162.280-141.731  0.00  0.00     0.029 H 
ATOM     67  H   R32 d   1     -71.654-162.810-143.313  0.00  0.00     0.029 H 
ENDBRANCH  54  64
ENDBRANCH  51  54
ENDBRANCH  48  51
ENDBRANCH  45  47
BRANCH  45  68
ATOM     68  C28 R32 d   1     -68.051-165.260-140.084  0.00  0.00    -0.049 C 
ATOM     69  H   R32 d   1     -68.252-164.859-139.090  0.00  0.00     0.040 H 
BRANCH  68  70
ATOM     70  C30 R32 d   1     -67.401-166.628-139.874  0.00  0.00    -0.072 C 
ATOM     71  H   R32 d   1     -67.101-167.038-140.838  0.00  0.00     0.028 H 
ATOM     72  H   R32 d   1     -66.524-166.518-139.236  0.00  0.00     0.028 H 
ATOM     73  H   R32 d   1     -68.116-167.299-139.398  0.00  0.00     0.028 H 
ENDBRANCH  68  70
BRANCH  68  74
ATOM     74  C31 R32 d   1     -69.394-165.377-140.799  0.00  0.00    -0.072 C 
ATOM     75  H   R32 d   1     -69.893-164.408-140.794  0.00  0.00     0.028 H 
ATOM     76  H   R32 d   1     -69.230-165.697-141.828  0.00  0.00     0.028 H 
ATOM     77  H   R32 d   1     -70.016-166.109-140.284  0.00  0.00     0.028 H 
ENDBRANCH  68  74
ENDBRANCH  45  68
ENDBRANCH  42  45
ENDBRANCH   1  42
BRANCH   1  78
ATOM     78  O27 R32 d   1     -64.672-163.624-142.111  0.00  0.00    -0.393 OA
ATOM     79  H   R32 d   1     -64.054-163.071-142.595  0.00  0.00     0.210 HD
ENDBRANCH   1  78
TORSDOF 19
