REMARK  11 active torsions:
REMARK  status: ('A' for Active; 'I' for Inactive)
REMARK    1  A    between atoms: C29_1  and  C25_11 
REMARK    2  A    between atoms: C25_11  and  C24_12 
REMARK    3  A    between atoms: C25_11  and  O03_13 
REMARK    4  A    between atoms: C23_14  and  C22_15 
REMARK    5  A    between atoms: C22_15  and  C20_16 
REMARK    6  A    between atoms: C20_16  and  C21_17 
REMARK    7  A    between atoms: C20_16  and  C17_18 
REMARK    8  A    between atoms: C13_19  and  C18_27 
REMARK    9  A    between atoms: C07_28  and  C06_29 
REMARK   10  A    between atoms: C03_32  and  O02_38 
REMARK   11  A    between atoms: C01_34  and  O01_37 
ROOT
ATOM      1  C17 TKA d   1      14.131   3.606  27.242  0.00  0.00    -0.043 C 
ATOM      2  C13 TKA d   1      13.665   4.833  26.398  0.00  0.00    -0.033 C 
ATOM      3  C14 TKA d   1      15.109   5.382  26.048  0.00  0.00    -0.025 C 
ATOM      4  C15 TKA d   1      15.842   4.132  25.482  0.00  0.00    -0.057 C 
ATOM      5  C16 TKA d   1      15.309   3.008  26.361  0.00  0.00    -0.060 C 
ATOM      6  C12 TKA d   1      12.904   5.972  27.212  0.00  0.00    -0.057 C 
ATOM      7  C11 TKA d   1      12.786   7.287  26.345  0.00  0.00    -0.061 C 
ATOM      8  C09 TKA d   1      14.200   7.759  25.904  0.00  0.00    -0.044 C 
ATOM      9  C08 TKA d   1      14.879   6.610  25.095  0.00  0.00    -0.075 C 
ATOM     10  C07 TKA d   1      15.200   6.625  23.793  0.00  0.00    -0.080 C 
ATOM     11  H   TKA d   1      14.558   3.990  28.180  0.00  0.00     0.041 H 
ATOM     12  H   TKA d   1      15.639   5.731  26.947  0.00  0.00     0.048 H 
ATOM     13  H   TKA d   1      16.933   4.232  25.583  0.00  0.00     0.034 H 
ATOM     14  H   TKA d   1      15.585   3.966  24.425  0.00  0.00     0.034 H 
ATOM     15  H   TKA d   1      14.929   2.189  25.733  0.00  0.00     0.033 H 
ATOM     16  H   TKA d   1      16.110   2.629  27.013  0.00  0.00     0.033 H 
ATOM     17  H   TKA d   1      13.464   6.194  28.133  0.00  0.00     0.034 H 
ATOM     18  H   TKA d   1      11.895   5.619  27.472  0.00  0.00     0.034 H 
ATOM     19  H   TKA d   1      12.308   8.077  26.943  0.00  0.00     0.033 H 
ATOM     20  H   TKA d   1      12.175   7.082  25.453  0.00  0.00     0.033 H 
ATOM     21  H   TKA d   1      14.805   7.995  26.792  0.00  0.00     0.039 H 
ATOM     22  H   TKA d   1      14.111   8.655  25.272  0.00  0.00     0.039 H 
ATOM     23  H   TKA d   1      15.662   5.723  23.394  0.00  0.00     0.083 H 
ENDROOT
BRANCH   1  24
ATOM     24  C20 TKA d   1      13.041   2.541  27.680  0.00  0.00    -0.044 C 
ATOM     25  H   TKA d   1      12.568   2.140  26.771  0.00  0.00     0.041 H 
BRANCH  24  26
ATOM     26  C22 TKA d   1      13.761   1.400  28.443  0.00  0.00    -0.006 C 
ATOM     27  H   TKA d   1      14.756   1.218  28.010  0.00  0.00     0.052 H 
ATOM     28  H   TKA d   1      13.866   1.658  29.507  0.00  0.00     0.052 H 
BRANCH  26  29
ATOM     29  C23 TKA d   1      12.931   0.240  28.290  0.00  0.00    -0.103 C 
ATOM     30  C24 TKA d   1      12.183  -0.662  28.147  0.00  0.00    -0.074 C 
BRANCH  30  31
ATOM     31  C25 TKA d   1      11.189  -1.695  27.948  0.00  0.00     0.101 C 
ATOM     32  H   TKA d   1      11.420  -2.256  27.031  0.00  0.00     0.104 H 
BRANCH  31  33
ATOM     33  C29 TKA d   1       9.772  -1.062  27.809  0.00  0.00    -0.002 C 
ATOM     34  C30 TKA d   1       8.792  -2.297  27.599  0.00  0.00    -0.051 C 
ATOM     35  C31 TKA d   1       7.301  -1.788  27.379  0.00  0.00    -0.053 C 
ATOM     36  H   TKA d   1       8.827  -2.943  28.488  0.00  0.00     0.034 H 
ATOM     37  H   TKA d   1       9.114  -2.870  26.717  0.00  0.00     0.034 H 
ATOM     38  C32 TKA d   1       6.840  -1.003  28.670  0.00  0.00    -0.058 C 
ATOM     39  C36 TKA d   1       7.227  -0.833  26.103  0.00  0.00    -0.058 C 
ATOM     40  H   TKA d   1       6.639  -2.652  27.221  0.00  0.00     0.040 H 
ATOM     41  C33 TKA d   1       7.788   0.266  28.913  0.00  0.00    -0.053 C 
ATOM     42  H   TKA d   1       6.897  -1.671  29.542  0.00  0.00     0.034 H 
ATOM     43  H   TKA d   1       5.803  -0.662  28.537  0.00  0.00     0.034 H 
ATOM     44  C34 TKA d   1       9.276  -0.235  29.137  0.00  0.00    -0.051 C 
ATOM     45  C38 TKA d   1       7.729   1.226  27.638  0.00  0.00    -0.058 C 
ATOM     46  H   TKA d   1       7.447   0.816  29.802  0.00  0.00     0.040 H 
ATOM     47  H   TKA d   1       9.935   0.630  29.299  0.00  0.00     0.034 H 
ATOM     48  H   TKA d   1       9.314  -0.894  30.017  0.00  0.00     0.034 H 
ATOM     49  C35 TKA d   1       8.190   0.420  26.330  0.00  0.00    -0.053 C 
ATOM     50  H   TKA d   1       8.401   2.083  27.795  0.00  0.00     0.034 H 
ATOM     51  H   TKA d   1       6.699   1.587  27.500  0.00  0.00     0.034 H 
ATOM     52  C37 TKA d   1       9.670  -0.105  26.528  0.00  0.00    -0.051 C 
ATOM     53  H   TKA d   1       8.146   1.084  25.454  0.00  0.00     0.040 H 
ATOM     54  H   TKA d   1       9.975  -0.667  25.633  0.00  0.00     0.034 H 
ATOM     55  H   TKA d   1      10.341   0.755  26.667  0.00  0.00     0.034 H 
ATOM     56  H   TKA d   1       6.194  -0.483  25.965  0.00  0.00     0.034 H 
ATOM     57  H   TKA d   1       7.549  -1.387  25.209  0.00  0.00     0.034 H 
ENDBRANCH  31  33
BRANCH  31  58
ATOM     58  O03 TKA d   1      11.248  -2.581  29.077  0.00  0.00    -0.383 OA
ATOM     59  H   TKA d   1      12.116  -2.963  29.133  0.00  0.00     0.211 HD
ENDBRANCH  31  58
ENDBRANCH  30  31
ENDBRANCH  26  29
ENDBRANCH  24  26
BRANCH  24  60
ATOM     60  C21 TKA d   1      11.908   3.098  28.624  0.00  0.00    -0.072 C 
ATOM     61  H   TKA d   1      11.373   3.913  28.114  0.00  0.00     0.028 H 
ATOM     62  H   TKA d   1      12.359   3.480  29.552  0.00  0.00     0.028 H 
ATOM     63  H   TKA d   1      11.201   2.290  28.865  0.00  0.00     0.028 H 
ENDBRANCH  24  60
ENDBRANCH   1  24
BRANCH   2  64
ATOM     64  C18 TKA d   1      12.746   4.361  25.145  0.00  0.00    -0.068 C 
ATOM     65  H   TKA d   1      13.270   3.575  24.582  0.00  0.00     0.028 H 
ATOM     66  H   TKA d   1      12.557   5.220  24.485  0.00  0.00     0.028 H 
ATOM     67  H   TKA d   1      11.789   3.968  25.519  0.00  0.00     0.028 H 
ENDBRANCH   2  64
BRANCH  10  68
ATOM     68  C06 TKA d   1      14.996   7.719  22.859  0.00  0.00    -0.080 C 
ATOM     69  C05 TKA d   1      14.680   7.657  21.577  0.00  0.00    -0.074 C 
ATOM     70  C04 TKA d   1      14.542   8.994  20.817  0.00  0.00    -0.017 C 
ATOM     71  C10 TKA d   1      14.438   6.389  20.703  0.00  0.00    -0.017 C 
ATOM     72  C03 TKA d   1      15.168   8.961  19.386  0.00  0.00     0.062 C 
ATOM     73  H   TKA d   1      15.045   9.780  21.400  0.00  0.00     0.043 H 
ATOM     74  H   TKA d   1      13.473   9.234  20.724  0.00  0.00     0.043 H 
ATOM     75  C02 TKA d   1      14.677   7.729  18.570  0.00  0.00    -0.032 C 
ATOM     76  H   TKA d   1      14.881   9.880  18.854  0.00  0.00     0.090 H 
ATOM     77  C01 TKA d   1      15.044   6.400  19.252  0.00  0.00     0.062 C 
ATOM     78  C28 TKA d   1      13.955   7.799  17.412  0.00  0.00    -0.114 C 
ATOM     79  H   TKA d   1      16.137   6.294  19.307  0.00  0.00     0.090 H 
ATOM     80  H   TKA d   1      13.723   8.768  16.972  0.00  0.00     0.067 H 
ATOM     81  H   TKA d   1      13.611   6.886  16.929  0.00  0.00     0.067 H 
ATOM     82  H   TKA d   1      13.351   6.253  20.608  0.00  0.00     0.043 H 
ATOM     83  H   TKA d   1      14.870   5.530  21.237  0.00  0.00     0.043 H 
ATOM     84  H   TKA d   1      15.120   8.720  23.268  0.00  0.00     0.083 H 
BRANCH  72  85
ATOM     85  O02 TKA d   1      16.611   8.894  19.486  0.00  0.00    -0.391 OA
ATOM     86  H   TKA d   1      16.989   8.908  18.614  0.00  0.00     0.210 HD
ENDBRANCH  72  85
BRANCH  77  87
ATOM     87  O01 TKA d   1      14.482   5.310  18.463  0.00  0.00    -0.391 OA
ATOM     88  H   TKA d   1      13.539   5.414  18.408  0.00  0.00     0.210 HD
ENDBRANCH  77  87
ENDBRANCH  10  68
TORSDOF 11
