REMARK  12 active torsions:
REMARK  status: ('A' for Active; 'I' for Inactive)
REMARK    1  A    between atoms: C29_1  and  C26_11 
REMARK    2  A    between atoms: C26_11  and  C25_12 
REMARK    3  A    between atoms: C25_12  and  C24_13 
REMARK    4  A    between atoms: C25_12  and  O03_19 
REMARK    5  A    between atoms: C23_14  and  C22_15 
REMARK    6  A    between atoms: C22_15  and  C20_16 
REMARK    7  A    between atoms: C20_16  and  C17_17 
REMARK    8  A    between atoms: C20_16  and  C21_18 
REMARK    9  A    between atoms: C13_20  and  C18_28 
REMARK   10  A    between atoms: C07_29  and  C06_30 
REMARK   11  A    between atoms: C03_33  and  O02_39 
REMARK   12  A    between atoms: C01_35  and  O01_38 
ROOT
ATOM      1  C17 TK3 d   1       7.762   3.110  38.212  0.00  0.00    -0.043 C 
ATOM      2  C13 TK3 d   1       7.667   4.394  37.316  0.00  0.00    -0.033 C 
ATOM      3  C14 TK3 d   1       9.090   4.977  37.590  0.00  0.00    -0.025 C 
ATOM      4  C15 TK3 d   1      10.028   3.781  37.385  0.00  0.00    -0.057 C 
ATOM      5  C16 TK3 d   1       9.227   2.606  37.971  0.00  0.00    -0.060 C 
ATOM      6  C12 TK3 d   1       6.646   5.480  37.809  0.00  0.00    -0.057 C 
ATOM      7  C11 TK3 d   1       6.842   6.863  37.127  0.00  0.00    -0.061 C 
ATOM      8  C09 TK3 d   1       8.311   7.343  37.202  0.00  0.00    -0.044 C 
ATOM      9  C08 TK3 d   1       9.307   6.264  36.757  0.00  0.00    -0.075 C 
ATOM     10  C07 TK3 d   1      10.250   6.379  35.806  0.00  0.00    -0.080 C 
ATOM     11  H   TK3 d   1       7.682   3.442  39.258  0.00  0.00     0.041 H 
ATOM     12  H   TK3 d   1       9.164   5.277  38.646  0.00  0.00     0.048 H 
ATOM     13  H   TK3 d   1      10.974   3.924  37.928  0.00  0.00     0.034 H 
ATOM     14  H   TK3 d   1      10.238   3.622  36.317  0.00  0.00     0.034 H 
ATOM     15  H   TK3 d   1       9.223   1.764  37.263  0.00  0.00     0.033 H 
ATOM     16  H   TK3 d   1       9.675   2.283  38.922  0.00  0.00     0.033 H 
ATOM     17  H   TK3 d   1       6.768   5.606  38.895  0.00  0.00     0.034 H 
ATOM     18  H   TK3 d   1       5.628   5.125  37.593  0.00  0.00     0.034 H 
ATOM     19  H   TK3 d   1       6.201   7.601  37.631  0.00  0.00     0.033 H 
ATOM     20  H   TK3 d   1       6.548   6.783  36.070  0.00  0.00     0.033 H 
ATOM     21  H   TK3 d   1       8.537   7.624  38.241  0.00  0.00     0.039 H 
ATOM     22  H   TK3 d   1       8.428   8.221  36.550  0.00  0.00     0.039 H 
ATOM     23  H   TK3 d   1      10.866   5.499  35.627  0.00  0.00     0.083 H 
ENDROOT
BRANCH   1  24
ATOM     24  C20 TK3 d   1       6.674   1.982  38.058  0.00  0.00    -0.044 C 
ATOM     25  H   TK3 d   1       6.667   1.682  37.000  0.00  0.00     0.041 H 
BRANCH  24  26
ATOM     26  C22 TK3 d   1       6.973   0.724  38.933  0.00  0.00    -0.006 C 
ATOM     27  H   TK3 d   1       8.059   0.546  38.934  0.00  0.00     0.052 H 
ATOM     28  H   TK3 d   1       6.633   0.921  39.960  0.00  0.00     0.052 H 
BRANCH  26  29
ATOM     29  C23 TK3 d   1       6.304  -0.477  38.443  0.00  0.00    -0.104 C 
ATOM     30  C24 TK3 d   1       5.730  -1.416  38.003  0.00  0.00    -0.075 C 
BRANCH  30  31
ATOM     31  C25 TK3 d   1       4.983  -2.521  37.401  0.00  0.00     0.094 C 
ATOM     32  H   TK3 d   1       4.015  -2.637  37.910  0.00  0.00     0.103 H 
BRANCH  31  33
ATOM     33  C26 TK3 d   1       4.744  -2.222  35.885  0.00  0.00    -0.024 C 
ATOM     34  H   TK3 d   1       5.710  -1.897  35.471  0.00  0.00     0.039 H 
ATOM     35  H   TK3 d   1       4.447  -3.173  35.419  0.00  0.00     0.039 H 
BRANCH  33  36
ATOM     36  C29 TK3 d   1       3.685  -1.156  35.447  0.00  0.00    -0.036 C 
ATOM     37  C30 TK3 d   1       2.359  -1.219  36.303  0.00  0.00    -0.054 C 
ATOM     38  C31 TK3 d   1       1.313  -0.188  35.747  0.00  0.00    -0.053 C 
ATOM     39  H   TK3 d   1       2.590  -0.975  37.351  0.00  0.00     0.034 H 
ATOM     40  H   TK3 d   1       1.937  -2.233  36.247  0.00  0.00     0.034 H 
ATOM     41  C32 TK3 d   1       1.906   1.264  35.839  0.00  0.00    -0.058 C 
ATOM     42  C36 TK3 d   1       0.988  -0.525  34.249  0.00  0.00    -0.058 C 
ATOM     43  H   TK3 d   1       0.391  -0.245  36.343  0.00  0.00     0.040 H 
ATOM     44  C33 TK3 d   1       3.219   1.349  34.982  0.00  0.00    -0.053 C 
ATOM     45  H   TK3 d   1       2.137   1.500  36.888  0.00  0.00     0.034 H 
ATOM     46  H   TK3 d   1       1.170   1.986  35.455  0.00  0.00     0.034 H 
ATOM     47  C34 TK3 d   1       4.260   0.318  35.522  0.00  0.00    -0.054 C 
ATOM     48  C38 TK3 d   1       2.901   1.013  33.488  0.00  0.00    -0.058 C 
ATOM     49  H   TK3 d   1       3.635   2.365  35.050  0.00  0.00     0.040 H 
ATOM     50  H   TK3 d   1       5.176   0.379  34.915  0.00  0.00     0.034 H 
ATOM     51  H   TK3 d   1       4.497   0.560  36.569  0.00  0.00     0.034 H 
ATOM     52  C35 TK3 d   1       2.295  -0.433  33.393  0.00  0.00    -0.053 C 
ATOM     53  H   TK3 d   1       3.827   1.062  32.896  0.00  0.00     0.034 H 
ATOM     54  H   TK3 d   1       2.176   1.741  33.095  0.00  0.00     0.034 H 
ATOM     55  C37 TK3 d   1       3.332  -1.472  33.944  0.00  0.00    -0.054 C 
ATOM     56  H   TK3 d   1       2.063  -0.663  32.343  0.00  0.00     0.040 H 
ATOM     57  H   TK3 d   1       2.902  -2.482  33.878  0.00  0.00     0.034 H 
ATOM     58  H   TK3 d   1       4.249  -1.423  33.339  0.00  0.00     0.034 H 
ATOM     59  H   TK3 d   1       0.248   0.193  33.865  0.00  0.00     0.034 H 
ATOM     60  H   TK3 d   1       0.579  -1.544  34.184  0.00  0.00     0.034 H 
ENDBRANCH  33  36
ENDBRANCH  31  33
BRANCH  31  61
ATOM     61  O03 TK3 d   1       5.739  -3.702  37.544  0.00  0.00    -0.383 OA
ATOM     62  H   TK3 d   1       5.885  -3.873  38.467  0.00  0.00     0.211 HD
ENDBRANCH  31  61
ENDBRANCH  30  31
ENDBRANCH  26  29
ENDBRANCH  24  26
BRANCH  24  63
ATOM     63  C21 TK3 d   1       5.241   2.431  38.453  0.00  0.00    -0.072 C 
ATOM     64  H   TK3 d   1       4.543   1.591  38.318  0.00  0.00     0.028 H 
ATOM     65  H   TK3 d   1       4.931   3.271  37.814  0.00  0.00     0.028 H 
ATOM     66  H   TK3 d   1       5.233   2.748  39.506  0.00  0.00     0.028 H 
ENDBRANCH  24  63
ENDBRANCH   1  24
BRANCH   2  67
ATOM     67  C18 TK3 d   1       7.412   4.016  35.799  0.00  0.00    -0.068 C 
ATOM     68  H   TK3 d   1       8.141   3.255  35.483  0.00  0.00     0.028 H 
ATOM     69  H   TK3 d   1       7.525   4.914  35.173  0.00  0.00     0.028 H 
ATOM     70  H   TK3 d   1       6.393   3.617  35.687  0.00  0.00     0.028 H 
ENDBRANCH   2  67
BRANCH  10  71
ATOM     71  C06 TK3 d   1      10.544   7.557  34.981  0.00  0.00    -0.080 C 
ATOM     72  C05 TK3 d   1      11.088   7.577  33.759  0.00  0.00    -0.074 C 
ATOM     73  C04 TK3 d   1      11.343   8.904  33.067  0.00  0.00    -0.017 C 
ATOM     74  C10 TK3 d   1      11.501   6.339  32.950  0.00  0.00    -0.017 C 
ATOM     75  C03 TK3 d   1      12.699   9.009  32.313  0.00  0.00     0.062 C 
ATOM     76  H   TK3 d   1      11.316   9.696  33.830  0.00  0.00     0.043 H 
ATOM     77  H   TK3 d   1      10.535   9.069  32.339  0.00  0.00     0.043 H 
ATOM     78  C02 TK3 d   1      12.905   7.805  31.397  0.00  0.00    -0.032 C 
ATOM     79  H   TK3 d   1      12.697   9.927  31.706  0.00  0.00     0.090 H 
ATOM     80  C01 TK3 d   1      12.824   6.476  32.162  0.00  0.00     0.062 C 
ATOM     81  C28 TK3 d   1      13.077   7.905  30.063  0.00  0.00    -0.114 C 
ATOM     82  H   TK3 d   1      13.661   6.432  32.874  0.00  0.00     0.090 H 
ATOM     83  H   TK3 d   1      13.125   8.886  29.592  0.00  0.00     0.067 H 
ATOM     84  H   TK3 d   1      13.168   7.005  29.457  0.00  0.00     0.067 H 
ATOM     85  H   TK3 d   1      10.698   6.120  32.231  0.00  0.00     0.043 H 
ATOM     86  H   TK3 d   1      11.607   5.496  33.649  0.00  0.00     0.043 H 
ATOM     87  H   TK3 d   1      10.291   8.524  35.413  0.00  0.00     0.083 H 
BRANCH  75  88
ATOM     88  O02 TK3 d   1      13.784   9.065  33.249  0.00  0.00    -0.391 OA
ATOM     89  H   TK3 d   1      14.604   9.154  32.777  0.00  0.00     0.210 HD
ENDBRANCH  75  88
BRANCH  80  90
ATOM     90  O01 TK3 d   1      12.935   5.395  31.250  0.00  0.00    -0.391 OA
ATOM     91  H   TK3 d   1      12.200   5.413  30.648  0.00  0.00     0.210 HD
ENDBRANCH  80  90
ENDBRANCH  10  71
TORSDOF 12
