REMARK  12 active torsions:
REMARK  status: ('A' for Active; 'I' for Inactive)
REMARK    1  A    between atoms: C29_1  and  C26_11 
REMARK    2  A    between atoms: C26_11  and  C25_12 
REMARK    3  A    between atoms: C25_12  and  C24_13 
REMARK    4  A    between atoms: C25_12  and  O03_19 
REMARK    5  A    between atoms: C23_14  and  C22_15 
REMARK    6  A    between atoms: C22_15  and  C20_16 
REMARK    7  A    between atoms: C20_16  and  C17_17 
REMARK    8  A    between atoms: C20_16  and  C21_18 
REMARK    9  A    between atoms: C13_20  and  C18_28 
REMARK   10  A    between atoms: C07_29  and  C06_30 
REMARK   11  A    between atoms: C03_33  and  O02_39 
REMARK   12  A    between atoms: C01_35  and  O01_38 
ROOT
ATOM      1  C17 TKD d   1      14.372   1.410  27.519  0.00  0.00    -0.043 C 
ATOM      2  C13 TKD d   1      13.774   2.706  26.881  0.00  0.00    -0.033 C 
ATOM      3  C14 TKD d   1      15.085   3.268  26.218  0.00  0.00    -0.025 C 
ATOM      4  C15 TKD d   1      15.671   2.059  25.484  0.00  0.00    -0.057 C 
ATOM      5  C16 TKD d   1      15.317   0.880  26.390  0.00  0.00    -0.060 C 
ATOM      6  C12 TKD d   1      13.293   3.779  27.914  0.00  0.00    -0.057 C 
ATOM      7  C11 TKD d   1      13.059   5.176  27.279  0.00  0.00    -0.061 C 
ATOM      8  C09 TKD d   1      14.241   5.642  26.395  0.00  0.00    -0.044 C 
ATOM      9  C08 TKD d   1      14.719   4.549  25.431  0.00  0.00    -0.075 C 
ATOM     10  C07 TKD d   1      14.854   4.640  24.100  0.00  0.00    -0.080 C 
ATOM     11  H   TKD d   1      14.998   1.732  28.364  0.00  0.00     0.041 H 
ATOM     12  H   TKD d   1      15.804   3.567  26.995  0.00  0.00     0.048 H 
ATOM     13  H   TKD d   1      16.761   2.157  25.375  0.00  0.00     0.034 H 
ATOM     14  H   TKD d   1      15.212   1.942  24.491  0.00  0.00     0.034 H 
ATOM     15  H   TKD d   1      14.803   0.101  25.807  0.00  0.00     0.033 H 
ATOM     16  H   TKD d   1      16.232   0.462  26.834  0.00  0.00     0.033 H 
ATOM     17  H   TKD d   1      14.057   3.875  28.700  0.00  0.00     0.034 H 
ATOM     18  H   TKD d   1      12.348   3.435  28.361  0.00  0.00     0.034 H 
ATOM     19  H   TKD d   1      12.915   5.909  28.087  0.00  0.00     0.033 H 
ATOM     20  H   TKD d   1      12.152   5.132  26.658  0.00  0.00     0.033 H 
ATOM     21  H   TKD d   1      15.079   5.928  27.048  0.00  0.00     0.039 H 
ATOM     22  H   TKD d   1      13.920   6.515  25.808  0.00  0.00     0.039 H 
ATOM     23  H   TKD d   1      15.208   3.743  23.594  0.00  0.00     0.083 H 
ENDROOT
BRANCH   1  24
ATOM     24  C20 TKD d   1      13.414   0.307  28.128  0.00  0.00    -0.044 C 
ATOM     25  H   TKD d   1      12.655   0.076  27.366  0.00  0.00     0.041 H 
BRANCH  24  26
ATOM     26  C22 TKD d   1      14.156  -0.999  28.513  0.00  0.00    -0.006 C 
ATOM     27  H   TKD d   1      14.931  -1.191  27.757  0.00  0.00     0.052 H 
ATOM     28  H   TKD d   1      14.630  -0.850  29.495  0.00  0.00     0.052 H 
BRANCH  26  29
ATOM     29  C23 TKD d   1      13.301  -2.164  28.593  0.00  0.00    -0.104 C 
ATOM     30  C24 TKD d   1      12.578  -3.086  28.657  0.00  0.00    -0.075 C 
BRANCH  30  31
ATOM     31  C25 TKD d   1      11.646  -4.185  28.729  0.00  0.00     0.094 C 
ATOM     32  H   TKD d   1      12.148  -5.121  28.443  0.00  0.00     0.103 H 
BRANCH  31  33
ATOM     33  C26 TKD d   1      10.479  -3.910  27.714  0.00  0.00    -0.024 C 
ATOM     34  H   TKD d   1      10.959  -3.608  26.771  0.00  0.00     0.039 H 
ATOM     35  H   TKD d   1       9.964  -4.872  27.572  0.00  0.00     0.039 H 
BRANCH  33  36
ATOM     36  C29 TKD d   1       9.350  -2.845  27.992  0.00  0.00    -0.036 C 
ATOM     37  C30 TKD d   1       8.731  -2.941  29.438  0.00  0.00    -0.054 C 
ATOM     38  C31 TKD d   1       7.544  -1.926  29.584  0.00  0.00    -0.053 C 
ATOM     39  H   TKD d   1       9.506  -2.704  30.182  0.00  0.00     0.034 H 
ATOM     40  H   TKD d   1       8.359  -3.962  29.608  0.00  0.00     0.034 H 
ATOM     41  C32 TKD d   1       8.079  -0.463  29.364  0.00  0.00    -0.058 C 
ATOM     42  C36 TKD d   1       6.438  -2.259  28.517  0.00  0.00    -0.058 C 
ATOM     43  H   TKD d   1       7.113  -2.009  30.593  0.00  0.00     0.040 H 
ATOM     44  C33 TKD d   1       8.691  -0.338  27.935  0.00  0.00    -0.053 C 
ATOM     45  H   TKD d   1       8.852  -0.239  30.114  0.00  0.00     0.034 H 
ATOM     46  H   TKD d   1       7.248   0.250  29.470  0.00  0.00     0.034 H 
ATOM     47  C34 TKD d   1       9.861  -1.367  27.783  0.00  0.00    -0.054 C 
ATOM     48  C38 TKD d   1       7.591  -0.645  26.871  0.00  0.00    -0.058 C 
ATOM     49  H   TKD d   1       9.074   0.682  27.785  0.00  0.00     0.040 H 
ATOM     50  H   TKD d   1      10.291  -1.275  26.775  0.00  0.00     0.034 H 
ATOM     51  H   TKD d   1      10.634  -1.145  28.533  0.00  0.00     0.034 H 
ATOM     52  C35 TKD d   1       7.040  -2.104  27.082  0.00  0.00    -0.053 C 
ATOM     53  H   TKD d   1       8.024  -0.560  25.863  0.00  0.00     0.034 H 
ATOM     54  H   TKD d   1       6.767   0.076  26.979  0.00  0.00     0.034 H 
ATOM     55  C37 TKD d   1       8.218  -3.122  26.926  0.00  0.00    -0.054 C 
ATOM     56  H   TKD d   1       6.263  -2.314  26.332  0.00  0.00     0.040 H 
ATOM     57  H   TKD d   1       7.833  -4.143  27.067  0.00  0.00     0.034 H 
ATOM     58  H   TKD d   1       8.644  -3.027  25.916  0.00  0.00     0.034 H 
ATOM     59  H   TKD d   1       5.592  -1.567  28.637  0.00  0.00     0.034 H 
ATOM     60  H   TKD d   1       6.090  -3.293  28.659  0.00  0.00     0.034 H 
ENDBRANCH  33  36
ENDBRANCH  31  33
BRANCH  31  61
ATOM     61  O03 TKD d   1      11.214  -4.290  30.083  0.00  0.00    -0.383 OA
ATOM     62  H   TKD d   1      10.793  -3.479  30.344  0.00  0.00     0.211 HD
ENDBRANCH  31  61
ENDBRANCH  30  31
ENDBRANCH  26  29
ENDBRANCH  24  26
BRANCH  24  63
ATOM     63  C21 TKD d   1      12.702   0.754  29.423  0.00  0.00    -0.072 C 
ATOM     64  H   TKD d   1      12.057  -0.059  29.786  0.00  0.00     0.028 H 
ATOM     65  H   TKD d   1      12.089   1.644  29.216  0.00  0.00     0.028 H 
ATOM     66  H   TKD d   1      13.453   0.996  30.189  0.00  0.00     0.028 H 
ENDBRANCH  24  63
ENDBRANCH   1  24
BRANCH   2  67
ATOM     67  C18 TKD d   1      12.624   2.360  25.836  0.00  0.00    -0.068 C 
ATOM     68  H   TKD d   1      12.990   1.605  25.125  0.00  0.00     0.028 H 
ATOM     69  H   TKD d   1      12.339   3.271  25.290  0.00  0.00     0.028 H 
ATOM     70  H   TKD d   1      11.748   1.965  26.372  0.00  0.00     0.028 H 
ENDBRANCH   2  67
BRANCH  10  71
ATOM     71  C06 TKD d   1      14.586   5.789  23.247  0.00  0.00    -0.080 C 
ATOM     72  C05 TKD d   1      14.365   5.734  21.919  0.00  0.00    -0.074 C 
ATOM     73  C04 TKD d   1      14.149   7.031  21.151  0.00  0.00    -0.017 C 
ATOM     74  C10 TKD d   1      14.346   4.444  21.071  0.00  0.00    -0.017 C 
ATOM     75  C03 TKD d   1      14.791   7.036  19.737  0.00  0.00     0.062 C 
ATOM     76  H   TKD d   1      14.586   7.856  21.733  0.00  0.00     0.043 H 
ATOM     77  H   TKD d   1      13.067   7.193  21.041  0.00  0.00     0.043 H 
ATOM     78  C02 TKD d   1      14.392   5.789  18.962  0.00  0.00    -0.032 C 
ATOM     79  H   TKD d   1      14.464   7.933  19.190  0.00  0.00     0.090 H 
ATOM     80  C01 TKD d   1      14.901   4.531  19.631  0.00  0.00     0.062 C 
ATOM     81  C28 TKD d   1      13.631   5.765  17.847  0.00  0.00    -0.114 C 
ATOM     82  H   TKD d   1      16.000   4.561  19.671  0.00  0.00     0.090 H 
ATOM     83  H   TKD d   1      13.288   6.698  17.402  0.00  0.00     0.067 H 
ATOM     84  H   TKD d   1      13.360   4.813  17.393  0.00  0.00     0.067 H 
ATOM     85  H   TKD d   1      13.300   4.110  21.002  0.00  0.00     0.043 H 
ATOM     86  H   TKD d   1      14.938   3.688  21.608  0.00  0.00     0.043 H 
ATOM     87  H   TKD d   1      14.562   6.770  23.719  0.00  0.00     0.083 H 
BRANCH  75  88
ATOM     88  O02 TKD d   1      16.211   7.035  19.866  0.00  0.00    -0.391 OA
ATOM     89  H   TKD d   1      16.485   7.807  20.348  0.00  0.00     0.210 HD
ENDBRANCH  75  88
BRANCH  80  90
ATOM     90  O01 TKD d   1      14.495   3.399  18.880  0.00  0.00    -0.391 OA
ATOM     91  H   TKD d   1      13.546   3.366  18.846  0.00  0.00     0.210 HD
ENDBRANCH  80  90
ENDBRANCH  10  71
TORSDOF 12
