REMARK  15 active torsions:
REMARK  status: ('A' for Active; 'I' for Inactive)
REMARK    1  A    between atoms: N12_12  and  C1_1 
REMARK    2  A    between atoms: C6_6  and  O11_11 
REMARK       I    between atoms: C35_35  and  N12_12 
REMARK    3  A    between atoms: C13_13  and  C14_14 
REMARK    4  A    between atoms: C33_33  and  C13_13 
REMARK    5  A    between atoms: C13_13  and  O38_38 
REMARK    6  A    between atoms: C14_14  and  C15_15 
REMARK    7  A    between atoms: C14_14  and  N16_16 
REMARK    8  A    between atoms: C15_15  and  N17_17 
REMARK    9  A    between atoms: N20_20  and  C25_25 
REMARK   10  A    between atoms: C22_22  and  C23_23 
REMARK   11  A    between atoms: C22_22  and  C24_24 
REMARK   12  A    between atoms: C34_34  and  C33_33 
REMARK   13  A    between atoms: C34_34  and  C35_35 
REMARK   14  A    between atoms: C34_34  and  C37_37 
REMARK   15  A    between atoms: C37_37  and  C39_39 
ROOT
ATOM      1  C13 HHE d   1     179.474 202.020 100.357  0.00  0.00     0.065 C 
ATOM      2  H17 HHE d   1     179.526 201.052 100.876  0.00  0.00     0.086 H 
ENDROOT
BRANCH   1   3
ATOM      3  C14 HHE d   1     178.666 201.843  99.058  0.00  0.00     0.147 C 
ATOM      4  H18 HHE d   1     177.615 201.650  99.321  0.00  0.00     0.090 H 
BRANCH   3   5
ATOM      5  C15 HHE d   1     179.154 200.693  98.158  0.00  0.00     0.113 C 
ATOM      6  H19 HHE d   1     179.327 199.800  98.777  0.00  0.00     0.079 H 
ATOM      7  H20 HHE d   1     180.095 200.991  97.673  0.00  0.00     0.079 H 
BRANCH   5   8
ATOM      8  N17 HHE d   1     178.146 200.370  97.109  0.00  0.00    -0.051 N 
ATOM      9  C18 HHE d   1     176.980 199.699  97.698  0.00  0.00     0.157 C 
ATOM     10  C19 HHE d   1     175.963 199.299  96.659  0.00  0.00     0.250 C 
ATOM     11  H25 HHE d   1     176.503 200.384  98.415  0.00  0.00     0.090 H 
ATOM     12  H26 HHE d   1     177.321 198.796  98.225  0.00  0.00     0.090 H 
ATOM     13  N20 HHE d   1     176.245 199.208  95.340  0.00  0.00    -0.312 N 
ATOM     14  O31 HHE d   1     174.850 199.034  97.037  0.00  0.00    -0.271 OA
ATOM     15  C21 HHE d   1     177.575 199.521  94.795  0.00  0.00     0.034 C 
ATOM     16  C22 HHE d   1     178.649 199.579  95.908  0.00  0.00     0.137 C 
ATOM     17  H27 HHE d   1     177.533 200.497  94.289  0.00  0.00     0.068 H 
ATOM     18  H28 HHE d   1     177.855 198.743  94.069  0.00  0.00     0.068 H 
ATOM     19  H24 HHE d   1     177.829 201.256  96.747  0.00  0.00     0.281 HD
BRANCH  13  20
ATOM     20  C25 HHE d   1     175.263 198.850  94.416  0.00  0.00     0.059 A 
ATOM     21  C26 HHE d   1     174.660 199.869  93.703  0.00  0.00    -0.055 A 
ATOM     22  C27 HHE d   1     173.729 199.540  92.743  0.00  0.00    -0.081 A 
ATOM     23  H35 HHE d   1     174.914 200.905  93.895  0.00  0.00     0.087 H 
ATOM     24  C28 HHE d   1     173.349 198.226  92.506  0.00  0.00    -0.081 A 
ATOM     25  H36 HHE d   1     173.279 200.331  92.154  0.00  0.00     0.083 H 
ATOM     26  C29 HHE d   1     173.944 197.198  93.234  0.00  0.00    -0.060 A 
ATOM     27  H37 HHE d   1     172.595 198.002  91.760  0.00  0.00     0.083 H 
ATOM     28  C30 HHE d   1     174.900 197.548  94.160  0.00  0.00     0.060 A 
ATOM     29  H38 HHE d   1     173.665 196.162  93.077  0.00  0.00     0.086 H 
ATOM     30 CL   HHE d   1     175.576 196.276  95.043  0.00  0.00    -0.082 Cl
ENDBRANCH  13  20
BRANCH  16  31
ATOM     31  C23 HHE d   1     179.870 200.246  95.257  0.00  0.00    -0.044 C 
ATOM     32  H29 HHE d   1     180.201 199.645  94.397  0.00  0.00     0.030 H 
ATOM     33  H30 HHE d   1     180.686 200.314  95.992  0.00  0.00     0.030 H 
ATOM     34  H31 HHE d   1     179.598 201.256  94.916  0.00  0.00     0.030 H 
ENDBRANCH  16  31
BRANCH  16  35
ATOM     35  C24 HHE d   1     179.029 198.126  96.290  0.00  0.00    -0.044 C 
ATOM     36  H32 HHE d   1     179.386 197.593  95.396  0.00  0.00     0.030 H 
ATOM     37  H33 HHE d   1     178.146 197.611  96.696  0.00  0.00     0.030 H 
ATOM     38  H34 HHE d   1     179.825 198.143  97.049  0.00  0.00     0.030 H 
ENDBRANCH  16  35
ENDBRANCH   5   8
ENDBRANCH   3   5
BRANCH   3  39
ATOM     39  N16 HHE d   1     178.768 203.120  98.315  0.00  0.00    -0.071 N 
ATOM     40  H21 HHE d   1     178.449 203.876  98.901  0.00  0.00     0.274 HD
ATOM     41  H22 HHE d   1     178.196 203.073  97.486  0.00  0.00     0.274 HD
ATOM     42  H23 HHE d   1     179.728 203.280  98.052  0.00  0.00     0.274 HD
ENDBRANCH   3  39
ENDBRANCH   1   3
BRANCH   1  43
ATOM     43  C33 HHE d   1     178.728 203.025 101.265  0.00  0.00    -0.028 C 
ATOM     44  H39 HHE d   1     177.738 202.610 101.504  0.00  0.00     0.038 H 
ATOM     45  H40 HHE d   1     178.606 203.969 100.713  0.00  0.00     0.038 H 
BRANCH  43  46
ATOM     46  C34 HHE d   1     179.464 203.323 102.585  0.00  0.00     0.025 C 
ATOM     47  H41 HHE d   1     180.423 203.795 102.326  0.00  0.00     0.054 H 
BRANCH  46  48
ATOM     48  C35 HHE d   1     179.779 202.109 103.445  0.00  0.00     0.222 C 
ATOM     49  N12 HHE d   1     181.044 201.789 103.803  0.00  0.00    -0.355 N 
ATOM     50  H16 HHE d   1     181.794 202.369 103.485  0.00  0.00     0.162 HD
ATOM     51  O36 HHE d   1     178.865 201.432 103.832  0.00  0.00    -0.273 OA
BRANCH  49  52
ATOM     52  C1  HHE d   1     181.361 200.624 104.639  0.00  0.00     0.019 C 
ATOM     53  C2  HHE d   1     182.780 200.149 104.301  0.00  0.00    -0.031 C 
ATOM     54  C4  HHE d   1     183.136 198.961 105.202  0.00  0.00    -0.031 C 
ATOM     55  C9  HHE d   1     183.869 201.265 104.536  0.00  0.00    -0.056 C 
ATOM     56  H2  HHE d   1     182.807 199.838 103.246  0.00  0.00     0.043 H 
ATOM     57  C6  HHE d   1     183.088 199.396 106.689  0.00  0.00     0.059 C 
ATOM     58  H4  HHE d   1     184.149 198.608 104.957  0.00  0.00     0.038 H 
ATOM     59  H5  HHE d   1     182.414 198.148 105.036  0.00  0.00     0.038 H 
ATOM     60  C5  HHE d   1     181.698 199.962 107.029  0.00  0.00    -0.031 C 
ATOM     61  C10 HHE d   1     184.158 200.500 106.913  0.00  0.00    -0.033 C 
ATOM     62  C3  HHE d   1     181.383 201.118 106.082  0.00  0.00    -0.031 C 
ATOM     63  H6  HHE d   1     180.940 199.173 106.912  0.00  0.00     0.038 H 
ATOM     64  H7  HHE d   1     181.692 200.325 108.067  0.00  0.00     0.038 H 
ATOM     65  C7  HHE d   1     182.453 202.257 106.267  0.00  0.00    -0.056 C 
ATOM     66  H3  HHE d   1     180.390 201.522 106.331  0.00  0.00     0.043 H 
ATOM     67  C8  HHE d   1     183.877 201.732 106.005  0.00  0.00    -0.051 C 
ATOM     68  H8  HHE d   1     182.395 202.639 107.297  0.00  0.00     0.034 H 
ATOM     69  H9  HHE d   1     182.236 203.072 105.561  0.00  0.00     0.034 H 
ATOM     70  H10 HHE d   1     184.629 202.517 106.175  0.00  0.00     0.040 H 
ATOM     71  H13 HHE d   1     185.152 200.094 106.673  0.00  0.00     0.037 H 
ATOM     72  H14 HHE d   1     184.136 200.816 107.966  0.00  0.00     0.037 H 
ATOM     73  H11 HHE d   1     183.648 202.125 103.887  0.00  0.00     0.034 H 
ATOM     74  H12 HHE d   1     184.860 200.859 104.283  0.00  0.00     0.034 H 
ATOM     75  H1  HHE d   1     180.627 199.817 104.497  0.00  0.00     0.073 H 
BRANCH  57  76
ATOM     76  O11 HHE d   1     183.239 198.240 107.526  0.00  0.00    -0.390 OA
ATOM     77  H15 HHE d   1     182.550 197.616 107.330  0.00  0.00     0.210 HD
ENDBRANCH  57  76
ENDBRANCH  49  52
ENDBRANCH  46  48
BRANCH  46  78
ATOM     78  C37 HHE d   1     178.626 204.330 103.402  0.00  0.00    -0.057 C 
ATOM     79  H42 HHE d   1     177.658 203.875 103.659  0.00  0.00     0.033 H 
ATOM     80  H43 HHE d   1     178.458 205.236 102.802  0.00  0.00     0.033 H 
BRANCH  78  81
ATOM     81  C39 HHE d   1     179.379 204.709 104.707  0.00  0.00    -0.076 C 
ATOM     82  H45 HHE d   1     178.776 205.426 105.283  0.00  0.00     0.027 H 
ATOM     83  H46 HHE d   1     180.347 205.165 104.453  0.00  0.00     0.027 H 
ATOM     84  H47 HHE d   1     179.547 203.804 105.309  0.00  0.00     0.027 H 
ENDBRANCH  78  81
ENDBRANCH  46  78
ENDBRANCH  43  46
ENDBRANCH   1  43
BRANCH   1  85
ATOM     85  O38 HHE d   1     180.832 202.449 100.065  0.00  0.00    -0.393 OA
ATOM     86  H44 HHE d   1     181.253 201.806  99.507  0.00  0.00     0.210 HD
ENDBRANCH   1  85
TORSDOF 15
