REMARK  4 active torsions:
REMARK  status: ('A' for Active; 'I' for Inactive)
REMARK    1  A    between atoms: N2_3  and  C5_4 
REMARK    2  A    between atoms: C4_5  and  N3_6 
REMARK    3  A    between atoms: C3_8  and  C6_10 
REMARK    4  A    between atoms: C7_12  and  C8_13 
ROOT
ATOM      1  C6  B00 d   1      16.788  37.508  -9.775  0.00  0.00    -0.005 A 
ATOM      2  C14 B00 d   1      17.709  37.582 -11.001  0.00  0.00    -0.048 A 
ATOM      3  C7  B00 d   1      18.242  37.007  -9.686  0.00  0.00    -0.019 A 
ATOM      4  H   B00 d   1      15.834  37.056  -9.505  0.00  0.00     0.050 H 
ATOM      5  H   B00 d   1      18.009  38.313 -11.752  0.00  0.00     0.035 H 
ATOM      6  H   B00 d   1      17.683  37.313 -12.057  0.00  0.00     0.035 H 
ATOM      7  H   B00 d   1      18.709  36.073  -9.372  0.00  0.00     0.048 H 
ENDROOT
BRANCH   1   8
ATOM      8  C3  B00 d   1      16.469  38.864  -9.231  0.00  0.00     0.036 A 
ATOM      9  N1  B00 d   1      15.872  38.985  -8.004  0.00  0.00    -0.195 N 
ATOM     10  C4  B00 d   1      15.548  40.192  -7.466  0.00  0.00     0.680 A 
ATOM     11  H   B00 d   1      15.663  38.139  -7.474  0.00  0.00     0.184 HD
ATOM     12  N2  B00 d   1      15.807  41.383  -8.208  0.00  0.00    -0.152 N 
ATOM     13  C1  B00 d   1      16.425  41.279  -9.480  0.00  0.00     0.263 A 
ATOM     14  O   B00 d   1      16.685  42.302 -10.149  0.00  0.00    -0.267 OA
ATOM     15  C2  B00 d   1      16.739  40.016  -9.985  0.00  0.00     0.006 A 
ATOM     16  H   B00 d   1      17.196  39.924 -10.970  0.00  0.00     0.095 H 
BRANCH  10  17
ATOM     17  N3  B00 d   1      14.969  40.242  -6.230  0.00  0.00    -0.234 N 
ATOM     18  H   B00 d   1      14.783  39.379  -5.719  0.00  0.00     0.174 HD
ATOM     19  H   B00 d   1      14.723  41.142  -5.818  0.00  0.00     0.174 HD
ENDBRANCH  10  17
BRANCH  12  20
ATOM     20  C5  B00 d   1      15.490  42.719  -7.685  0.00  0.00     0.006 C 
ATOM     21  H   B00 d   1      14.420  42.786  -7.488  0.00  0.00     0.058 H 
ATOM     22  H   B00 d   1      16.043  42.886  -6.760  0.00  0.00     0.058 H 
ATOM     23  H   B00 d   1      15.773  43.472  -8.420  0.00  0.00     0.058 H 
ENDBRANCH  12  20
ENDBRANCH   1   8
BRANCH   3  24
ATOM     24  C8  B00 d   1      19.207  37.889  -8.965  0.00  0.00    -0.053 A 
ATOM     25  C13 B00 d   1      19.108  38.060  -7.574  0.00  0.00    -0.076 A 
ATOM     26  C12 B00 d   1      20.009  38.875  -6.884  0.00  0.00    -0.082 A 
ATOM     27  H   B00 d   1      18.317  37.549  -7.025  0.00  0.00     0.084 H 
ATOM     28  C11 B00 d   1      21.033  39.514  -7.587  0.00  0.00    -0.083 A 
ATOM     29  H   B00 d   1      19.914  39.011  -5.807  0.00  0.00     0.083 H 
ATOM     30  C10 B00 d   1      21.146  39.342  -8.966  0.00  0.00    -0.082 A 
ATOM     31  H   B00 d   1      21.744  40.148  -7.057  0.00  0.00     0.083 H 
ATOM     32  C9  B00 d   1      20.245  38.525  -9.658  0.00  0.00    -0.076 A 
ATOM     33  H   B00 d   1      21.943  39.849  -9.510  0.00  0.00     0.083 H 
ATOM     34  H   B00 d   1      20.351  38.384 -10.734  0.00  0.00     0.084 H 
ENDBRANCH   3  24
TORSDOF 4
