REMARK  7 active torsions:
REMARK  status: ('A' for Active; 'I' for Inactive)
REMARK    1  A    between atoms: N2_3  and  C5_4 
REMARK    2  A    between atoms: C4_5  and  N3_6 
REMARK    3  A    between atoms: C3_8  and  C6_10 
REMARK    4  A    between atoms: C7_12  and  C8_13 
REMARK    5  A    between atoms: C10_17  and  C14_19 
REMARK    6  A    between atoms: C16_23  and  O2_25 
REMARK    7  A    between atoms: O2_25  and  C17_26 
ROOT
ATOM      1  C8  0B1 d   1     -19.179 -38.320  -9.124  0.00  0.00    -0.052 A 
ATOM      2  C13 0B1 d   1     -20.221 -38.895  -9.873  0.00  0.00    -0.076 A 
ATOM      3  C12 0B1 d   1     -21.195 -39.696  -9.264  0.00  0.00    -0.082 A 
ATOM      4  C11 0B1 d   1     -21.153 -39.914  -7.888  0.00  0.00    -0.072 A 
ATOM      5  C10 0B1 d   1     -20.129 -39.332  -7.131  0.00  0.00    -0.025 A 
ATOM      6  C9  0B1 d   1     -19.161 -38.530  -7.739  0.00  0.00    -0.066 A 
ATOM      7  H   0B1 d   1     -20.271 -38.714 -10.947  0.00  0.00     0.084 H 
ATOM      8  H   0B1 d   1     -21.984 -40.148  -9.865  0.00  0.00     0.083 H 
ATOM      9  H   0B1 d   1     -21.910 -40.532  -7.406  0.00  0.00     0.084 H 
ATOM     10  H   0B1 d   1     -18.385 -38.064  -7.131  0.00  0.00     0.085 H 
ENDROOT
BRANCH   1  11
ATOM     11  C7  0B1 d   1     -18.154 -37.434  -9.769  0.00  0.00    -0.019 A 
ATOM     12  C6  0B1 d   1     -16.670 -37.858  -9.834  0.00  0.00    -0.006 A 
ATOM     13  C21 0B1 d   1     -17.580 -37.991 -11.069  0.00  0.00    -0.048 A 
ATOM     14  H   0B1 d   1     -15.752 -37.350  -9.538  0.00  0.00     0.050 H 
ATOM     15  H   0B1 d   1     -17.835 -38.745 -11.814  0.00  0.00     0.035 H 
ATOM     16  H   0B1 d   1     -17.559 -37.729 -12.127  0.00  0.00     0.035 H 
ATOM     17  H   0B1 d   1     -18.639 -36.521  -9.425  0.00  0.00     0.048 H 
BRANCH  12  18
ATOM     18  C3  0B1 d   1     -16.278 -39.202  -9.320  0.00  0.00     0.045 A 
ATOM     19  N1  0B1 d   1     -15.876 -39.370  -8.019  0.00  0.00    -0.071 NA
ATOM     20  C4  0B1 d   1     -15.495 -40.598  -7.526  0.00  0.00     0.724 A 
ATOM     21  N2  0B1 d   1     -15.503 -41.734  -8.389  0.00  0.00    -0.152 N 
ATOM     22  C1  0B1 d   1     -15.908 -41.571  -9.739  0.00  0.00     0.243 A 
ATOM     23  O1  0B1 d   1     -15.919 -42.568 -10.506  0.00  0.00    -0.272 OA
ATOM     24  C2  0B1 d   1     -16.289 -40.304 -10.198  0.00  0.00     0.048 A 
ATOM     25  H   0B1 d   1     -17.337 -40.419 -10.476  0.00  0.00     0.056 H 
ATOM     26  H   0B1 d   1     -15.546 -40.055 -10.956  0.00  0.00     0.056 H 
BRANCH  20  27
ATOM     27  N3  0B1 d   1     -15.109 -40.746  -6.217  0.00  0.00    -0.116 NA
ATOM     28  H   0B1 d   1     -15.101 -39.939  -5.593  0.00  0.00     0.206 HD
ENDBRANCH  20  27
BRANCH  21  29
ATOM     29  C5  0B1 d   1     -15.122 -43.076  -7.924  0.00  0.00     0.005 C 
ATOM     30  H   0B1 d   1     -14.094 -43.055  -7.562  0.00  0.00     0.058 H 
ATOM     31  H   0B1 d   1     -15.787 -43.382  -7.116  0.00  0.00     0.058 H 
ATOM     32  H   0B1 d   1     -15.203 -43.782  -8.750  0.00  0.00     0.058 H 
ENDBRANCH  21  29
ENDBRANCH  12  18
ENDBRANCH   1  11
BRANCH   5  33
ATOM     33  C14 0B1 d   1     -20.092 -39.563  -5.663  0.00  0.00    -0.023 A 
ATOM     34  C20 0B1 d   1     -19.549 -38.611  -4.794  0.00  0.00    -0.072 A 
ATOM     35  C19 0B1 d   1     -19.541 -38.858  -3.420  0.00  0.00    -0.080 A 
ATOM     36  H   0B1 d   1     -19.135 -37.682  -5.187  0.00  0.00     0.084 H 
ATOM     37  C18 0B1 d   1     -20.100 -40.039  -2.926  0.00  0.00    -0.051 A 
ATOM     38  H   0B1 d   1     -19.101 -38.133  -2.736  0.00  0.00     0.083 H 
ATOM     39  C16 0B1 d   1     -20.642 -40.990  -3.789  0.00  0.00     0.069 A 
ATOM     40  H   0B1 d   1     -20.113 -40.219  -1.851  0.00  0.00     0.087 H 
ATOM     41  C15 0B1 d   1     -20.638 -40.737  -5.158  0.00  0.00    -0.040 A 
ATOM     42  H   0B1 d   1     -21.068 -41.468  -5.842  0.00  0.00     0.089 H 
BRANCH  39  43
ATOM     43  O2  0B1 d   1     -21.181 -42.164  -3.294  0.00  0.00    -0.356 OA
BRANCH  43  44
ATOM     44  C17 0B1 d   1     -21.338 -43.346  -4.091  0.00  0.00     0.010 C 
ATOM     45  H   0B1 d   1     -21.988 -43.128  -4.938  0.00  0.00     0.066 H 
ATOM     46  H   0B1 d   1     -20.363 -43.670  -4.454  0.00  0.00     0.066 H 
ATOM     47  H   0B1 d   1     -21.782 -44.135  -3.484  0.00  0.00     0.066 H 
ENDBRANCH  43  44
ENDBRANCH  39  43
ENDBRANCH   5  33
TORSDOF 7
