REMARK  5 active torsions:
REMARK  status: ('A' for Active; 'I' for Inactive)
REMARK    1  A    between atoms: N2_3  and  C5_4 
REMARK    2  A    between atoms: C3_8  and  C6_10 
REMARK    3  A    between atoms: C7_12  and  C8_13 
REMARK    4  A    between atoms: C11_16  and  C14_19 
REMARK    5  A    between atoms: C16_23  and  C20_24 
ROOT
ATOM      1  C8  B02 d   1      19.713  37.236  -8.496  0.00  0.00    -0.053 A 
ATOM      2  C13 B02 d   1      20.940  37.694  -8.970  0.00  0.00    -0.076 A 
ATOM      3  C12 B02 d   1      21.735  38.548  -8.203  0.00  0.00    -0.072 A 
ATOM      4  C11 B02 d   1      21.318  38.951  -6.937  0.00  0.00    -0.026 A 
ATOM      5  C10 B02 d   1      20.103  38.481  -6.439  0.00  0.00    -0.072 A 
ATOM      6  C9  B02 d   1      19.320  37.622  -7.212  0.00  0.00    -0.076 A 
ATOM      7  H   B02 d   1      21.285  37.381  -9.955  0.00  0.00     0.084 H 
ATOM      8  H   B02 d   1      22.688  38.901  -8.598  0.00  0.00     0.084 H 
ATOM      9  H   B02 d   1      19.765  38.784  -5.448  0.00  0.00     0.084 H 
ATOM     10  H   B02 d   1      18.382  37.244  -6.805  0.00  0.00     0.084 H 
ENDROOT
BRANCH   1  11
ATOM     11  C7  B02 d   1      18.894  36.270  -9.308  0.00  0.00    -0.019 A 
ATOM     12  C6  B02 d   1      17.415  36.648  -9.460  0.00  0.00    -0.006 A 
ATOM     13  C21 B02 d   1      18.372  36.760 -10.658  0.00  0.00    -0.048 A 
ATOM     14  H   B02 d   1      16.479  36.141  -9.227  0.00  0.00     0.050 H 
ATOM     15  H   B02 d   1      18.642  37.488 -11.423  0.00  0.00     0.035 H 
ATOM     16  H   B02 d   1      18.408  36.461 -11.706  0.00  0.00     0.035 H 
ATOM     17  H   B02 d   1      19.449  35.389  -8.985  0.00  0.00     0.048 H 
BRANCH  12  18
ATOM     18  C3  B02 d   1      17.093  38.014  -8.955  0.00  0.00     0.045 A 
ATOM     19  N1  B02 d   1      16.606  38.174  -7.696  0.00  0.00    -0.071 NA
ATOM     20  C4  B02 d   1      16.294  39.404  -7.204  0.00  0.00     0.724 A 
ATOM     21  N2  B02 d   1      16.474  40.560  -8.015  0.00  0.00    -0.152 N 
ATOM     22  N3  B02 d   1      15.815  39.511  -5.939  0.00  0.00    -0.116 NA
ATOM     23  C1  B02 d   1      16.983  40.419  -9.328  0.00  0.00     0.243 A 
ATOM     24  O   B02 d   1      17.156  41.433 -10.060  0.00  0.00    -0.272 OA
ATOM     25  C2  B02 d   1      17.286  39.132  -9.785  0.00  0.00     0.048 A 
ATOM     26  H   B02 d   1      18.362  39.155  -9.956  0.00  0.00     0.056 H 
ATOM     27  H   B02 d   1      16.596  38.973 -10.613  0.00  0.00     0.056 H 
ATOM     28  H   B02 d   1      15.692  38.675  -5.368  0.00  0.00     0.206 HD
BRANCH  21  29
ATOM     29  C5  B02 d   1      16.169  41.909  -7.520  0.00  0.00     0.005 C 
ATOM     30  H   B02 d   1      15.116  41.964  -7.244  0.00  0.00     0.058 H 
ATOM     31  H   B02 d   1      16.786  42.123  -6.647  0.00  0.00     0.058 H 
ATOM     32  H   B02 d   1      16.379  42.638  -8.303  0.00  0.00     0.058 H 
ENDBRANCH  21  29
ENDBRANCH  12  18
ENDBRANCH   1  11
BRANCH   4  33
ATOM     33  C14 B02 d   1      22.180  39.862  -6.116  0.00  0.00    -0.025 A 
ATOM     34  C19 B02 d   1      23.520  40.018  -6.463  0.00  0.00    -0.072 A 
ATOM     35  C18 B02 d   1      24.337  40.852  -5.704  0.00  0.00    -0.082 A 
ATOM     36  H   B02 d   1      23.927  39.489  -7.325  0.00  0.00     0.084 H 
ATOM     37  C17 B02 d   1      23.841  41.525  -4.596  0.00  0.00    -0.077 A 
ATOM     38  H   B02 d   1      25.383  40.978  -5.984  0.00  0.00     0.083 H 
ATOM     39  C16 B02 d   1      22.513  41.363  -4.227  0.00  0.00    -0.061 A 
ATOM     40  H   B02 d   1      24.493  42.179  -4.017  0.00  0.00     0.084 H 
ATOM     41  C15 B02 d   1      21.686  40.529  -4.983  0.00  0.00    -0.067 A 
ATOM     42  H   B02 d   1      20.645  40.394  -4.690  0.00  0.00     0.085 H 
BRANCH  39  43
ATOM     43  C20 B02 d   1      21.984  42.100  -3.025  0.00  0.00    -0.051 C 
ATOM     44  H   B02 d   1      21.172  42.759  -3.333  0.00  0.00     0.033 H 
ATOM     45  H   B02 d   1      21.613  41.382  -2.294  0.00  0.00     0.033 H 
ATOM     46  H   B02 d   1      22.785  42.691  -2.581  0.00  0.00     0.033 H 
ENDBRANCH  39  43
ENDBRANCH   4  33
TORSDOF 5
