REMARK  14 active torsions:
REMARK  status: ('A' for Active; 'I' for Inactive)
REMARK    1  A    between atoms: CAB_2  and  OAA_1 
REMARK    2  A    between atoms: CAC_3  and  CAD_4 
REMARK    3  A    between atoms: CAD_4  and  CAE_5 
REMARK    4  A    between atoms: CAF_6  and  CAG_7 
REMARK    5  A    between atoms: CAF_6  and  CAR_18 
REMARK    6  A    between atoms: CAG_7  and  CAH_8 
REMARK    7  A    between atoms: CAH_8  and  CAI_9 
REMARK    8  A    between atoms: CAJ_10  and  CAK_11 
REMARK    9  A    between atoms: CAJ_10  and  CAS_19 
REMARK   10  A    between atoms: CAK_11  and  OAL_12 
REMARK   11  A    between atoms: CAK_11  and  CAT_20 
REMARK   12  A    between atoms: CAN_14  and  CAO_15 
REMARK   13  A    between atoms: CAP_16  and  OAQ_17 
REMARK   14  A    between atoms: CAU_21  and  CAX_24 
ROOT
ATOM      1  CAE CHW d   1     -49.491  -5.531 -25.305  0.00  0.00    -0.097 C 
ATOM      2  CAF CHW d   1     -50.533  -4.875 -25.919  0.00  0.00    -0.087 C 
ATOM      3  H4  CHW d   1     -49.746  -6.245 -24.523  0.00  0.00     0.077 H 
ENDROOT
BRANCH   2   4
ATOM      4  CAG CHW d   1     -51.951  -5.167 -25.449  0.00  0.00    -0.042 C 
ATOM      5  H5  CHW d   1     -51.911  -5.864 -24.599  0.00  0.00     0.040 H 
ATOM      6  H6  CHW d   1     -52.515  -5.626 -26.274  0.00  0.00     0.040 H 
BRANCH   4   7
ATOM      7  CAH CHW d   1     -52.598  -4.000 -25.050  0.00  0.00    -0.046 C 
ATOM      8  H7  CHW d   1     -51.848  -3.368 -24.552  0.00  0.00     0.039 H 
ATOM      9  H8  CHW d   1     -53.373  -4.291 -24.325  0.00  0.00     0.039 H 
BRANCH   7  10
ATOM     10  CAI CHW d   1     -53.216  -3.216 -26.016  0.00  0.00    -0.098 C 
ATOM     11  CAJ CHW d   1     -53.915  -2.047 -25.721  0.00  0.00    -0.059 C 
ATOM     12  H9  CHW d   1     -53.151  -3.531 -27.056  0.00  0.00     0.077 H 
BRANCH  11  13
ATOM     13  CAK CHW d   1     -54.537  -1.290 -26.895  0.00  0.00     0.053 C 
ATOM     14  H10 CHW d   1     -54.709  -1.993 -27.723  0.00  0.00     0.089 H 
BRANCH  13  15
ATOM     15  OAL CHW d   1     -55.781  -0.730 -26.506  0.00  0.00    -0.392 OA
ATOM     16  H11 CHW d   1     -56.160  -0.262 -27.241  0.00  0.00     0.210 HD
ENDBRANCH  13  15
BRANCH  13  17
ATOM     17  CAT CHW d   1     -53.582  -0.204 -27.364  0.00  0.00    -0.049 C 
ATOM     18  H20 CHW d   1     -54.031   0.339 -28.208  0.00  0.00     0.031 H 
ATOM     19  H21 CHW d   1     -52.635  -0.662 -27.685  0.00  0.00     0.031 H 
ATOM     20  H22 CHW d   1     -53.389   0.496 -26.538  0.00  0.00     0.031 H 
ENDBRANCH  13  17
ENDBRANCH  11  13
BRANCH  11  21
ATOM     21  CAS CHW d   1     -54.076  -1.522 -24.274  0.00  0.00    -0.052 C 
ATOM     22  H17 CHW d   1     -53.561  -2.201 -23.578  0.00  0.00     0.033 H 
ATOM     23  H18 CHW d   1     -55.145  -1.476 -24.017  0.00  0.00     0.033 H 
ATOM     24  H19 CHW d   1     -53.637  -0.516 -24.198  0.00  0.00     0.033 H 
ENDBRANCH  11  21
ENDBRANCH   7  10
ENDBRANCH   4   7
ENDBRANCH   2   4
BRANCH   2  25
ATOM     25  CAR CHW d   1     -50.251  -3.934 -27.073  0.00  0.00    -0.055 C 
ATOM     26  H14 CHW d   1     -49.165  -3.872 -27.239  0.00  0.00     0.033 H 
ATOM     27  H15 CHW d   1     -50.643  -2.934 -26.835  0.00  0.00     0.033 H 
ATOM     28  H16 CHW d   1     -50.740  -4.313 -27.983  0.00  0.00     0.033 H 
ENDBRANCH   2  25
BRANCH   1  29
ATOM     29  CAD CHW d   1     -48.145  -5.364 -25.593  0.00  0.00    -0.020 C 
ATOM     30  H2  CHW d   1     -47.594  -6.280 -25.333  0.00  0.00     0.046 H 
ATOM     31  H3  CHW d   1     -48.019  -5.152 -26.665  0.00  0.00     0.046 H 
BRANCH  29  32
ATOM     32  CAC CHW d   1     -47.615  -4.199 -24.776  0.00  0.00     0.014 A 
ATOM     33  CAB CHW d   1     -46.443  -3.574 -25.169  0.00  0.00     0.088 A 
ATOM     34  CAO CHW d   1     -45.939  -2.480 -24.452  0.00  0.00     0.043 A 
ATOM     35  CAU CHW d   1     -46.597  -2.024 -23.314  0.00  0.00    -0.021 A 
ATOM     36  CAV CHW d   1     -47.770  -2.657 -22.920  0.00  0.00     0.074 A 
ATOM     37  CAP CHW d   1     -48.262  -3.710 -23.634  0.00  0.00     0.097 A 
ATOM     38 CLAW CHW d   1     -48.716  -2.234 -21.532  0.00  0.00    -0.081 Cl
BRANCH  33  39
ATOM     39  OAA CHW d   1     -45.829  -4.048 -26.281  0.00  0.00    -0.359 OA
ATOM     40  H1  CHW d   1     -45.598  -4.960 -26.150  0.00  0.00     0.217 HD
ENDBRANCH  33  39
BRANCH  34  41
ATOM     41  CAN CHW d   1     -44.655  -1.790 -24.880  0.00  0.00     0.121 C 
ATOM     42  OAM CHW d   1     -44.307  -1.808 -26.049  0.00  0.00    -0.301 OA
ATOM     43  H12 CHW d   1     -44.043  -1.277 -24.140  0.00  0.00     0.151 H 
ENDBRANCH  34  41
BRANCH  35  44
ATOM     44  CAX CHW d   1     -46.041  -0.845 -22.520  0.00  0.00    -0.049 C 
ATOM     45  H23 CHW d   1     -45.114  -0.489 -22.993  0.00  0.00     0.033 H 
ATOM     46  H24 CHW d   1     -45.828  -1.165 -21.489  0.00  0.00     0.033 H 
ATOM     47  H25 CHW d   1     -46.781  -0.031 -22.506  0.00  0.00     0.033 H 
ENDBRANCH  35  44
BRANCH  37  48
ATOM     48  OAQ CHW d   1     -49.419  -4.227 -23.135  0.00  0.00    -0.358 OA
ATOM     49  H13 CHW d   1     -49.673  -3.741 -22.360  0.00  0.00     0.217 HD
ENDBRANCH  37  48
ENDBRANCH  29  32
ENDBRANCH   1  29
TORSDOF 14
