REMARK  13 active torsions:
REMARK  status: ('A' for Active; 'I' for Inactive)
REMARK    1  A    between atoms: C4_4  and  C21_23 
REMARK    2  A    between atoms: C5_5  and  N2_26 
REMARK    3  A    between atoms: C9_10  and  C14_16 
REMARK    4  A    between atoms: C11_12  and  N1_15 
REMARK    5  A    between atoms: C12_13  and  C20_22 
REMARK    6  A    between atoms: N1_15  and  C22_24 
REMARK    7  A    between atoms: C19_21  and  C26_29 
REMARK    8  A    between atoms: C22_24  and  C23_25 
REMARK    9  A    between atoms: N2_26  and  C24_27 
REMARK   10  A    between atoms: C24_27  and  C25_28 
REMARK   11  A    between atoms: C26_29  and  O2_31 
REMARK   12  A    between atoms: O2_31  and  C28_32 
REMARK   13  A    between atoms: C28_32  and  C29_33 
ROOT
ATOM      1  C1  RHQ d   1       5.013  16.543 -34.470  0.00  0.00     0.085 A 
ATOM      2  C2  RHQ d   1       3.831  16.482 -35.186  0.00  0.00    -0.011 A 
ATOM      3  C3  RHQ d   1       2.907  17.523 -35.116  0.00  0.00    -0.065 A 
ATOM      4  C4  RHQ d   1       3.170  18.641 -34.319  0.00  0.00    -0.035 A 
ATOM      5  C5  RHQ d   1       4.358  18.711 -33.599  0.00  0.00     0.036 A 
ATOM      6  C6  RHQ d   1       5.267  17.649 -33.682  0.00  0.00    -0.024 A 
ATOM      7  O1  RHQ d   1       5.929  15.508 -34.514  0.00  0.00    -0.310 OA
ATOM      8  C7  RHQ d   1       5.694  14.391 -35.293  0.00  0.00     0.085 A 
ATOM      9  C8  RHQ d   1       4.520  14.310 -36.034  0.00  0.00    -0.011 A 
ATOM     10  C9  RHQ d   1       3.574  15.373 -35.965  0.00  0.00     0.029 A 
ATOM     11  C10 RHQ d   1       6.634  13.370 -35.312  0.00  0.00    -0.024 A 
ATOM     12  C11 RHQ d   1       6.421  12.231 -36.083  0.00  0.00     0.036 A 
ATOM     13  C12 RHQ d   1       5.244  12.131 -36.824  0.00  0.00    -0.035 A 
ATOM     14  C13 RHQ d   1       4.302  13.155 -36.802  0.00  0.00    -0.065 A 
ATOM     15  H1  RHQ d   1       1.983  17.466 -35.680  0.00  0.00     0.085 H 
ATOM     16  H2  RHQ d   1       6.190  17.696 -33.116  0.00  0.00     0.091 H 
ATOM     17  H3  RHQ d   1       3.072  14.873 -35.124  0.00  0.00     0.062 H 
ATOM     18  H4  RHQ d   1       7.539  13.460 -34.723  0.00  0.00     0.091 H 
ATOM     19  H5  RHQ d   1       3.392  13.060 -37.383  0.00  0.00     0.085 H 
ENDROOT
BRANCH  10  20
ATOM     20  C14 RHQ d   1       2.300  15.364 -36.752  0.00  0.00    -0.029 A 
ATOM     21  C15 RHQ d   1       1.204  14.693 -36.231  0.00  0.00    -0.075 A 
ATOM     22  C16 RHQ d   1       0.005  14.663 -36.970  0.00  0.00    -0.082 A 
ATOM     23  H7  RHQ d   1       1.269  14.198 -35.269  0.00  0.00     0.084 H 
ATOM     24  C17 RHQ d   1      -0.109  15.278 -38.225  0.00  0.00    -0.082 A 
ATOM     25  H8  RHQ d   1      -0.855  14.149 -36.556  0.00  0.00     0.083 H 
ATOM     26  C18 RHQ d   1       0.996  15.952 -38.741  0.00  0.00    -0.067 A 
ATOM     27  H9  RHQ d   1      -1.038  15.230 -38.782  0.00  0.00     0.083 H 
ATOM     28  C19 RHQ d   1       2.191  16.009 -38.018  0.00  0.00     0.046 A 
ATOM     29  H10 RHQ d   1       0.928  16.435 -39.709  0.00  0.00     0.085 H 
BRANCH  28  30
ATOM     30  C26 RHQ d   1       3.305  16.787 -38.702  0.00  0.00     0.293 C 
ATOM     31  O27 RHQ d   1       4.400  16.982 -38.168  0.00  0.00    -0.259 OA
BRANCH  30  32
ATOM     32  O2  RHQ d   1       3.068  17.343 -40.058  0.00  0.00    -0.318 OA
BRANCH  32  33
ATOM     33  C28 RHQ d   1       4.107  18.010 -40.805  0.00  0.00     0.026 C 
ATOM     34  H28 RHQ d   1       5.030  17.414 -40.752  0.00  0.00     0.074 H 
ATOM     35  H29 RHQ d   1       4.286  19.004 -40.368  0.00  0.00     0.074 H 
BRANCH  33  36
ATOM     36  C29 RHQ d   1       3.693  18.171 -42.274  0.00  0.00    -0.056 C 
ATOM     37  H30 RHQ d   1       4.496  18.680 -42.827  0.00  0.00     0.030 H 
ATOM     38  H31 RHQ d   1       2.771  18.769 -42.332  0.00  0.00     0.030 H 
ATOM     39  H32 RHQ d   1       3.515  17.179 -42.716  0.00  0.00     0.030 H 
ENDBRANCH  33  36
ENDBRANCH  32  33
ENDBRANCH  30  32
ENDBRANCH  28  30
ENDBRANCH  10  20
BRANCH   4  40
ATOM     40  C21 RHQ d   1       2.197  19.813 -34.242  0.00  0.00    -0.049 C 
ATOM     41  H14 RHQ d   1       1.315  19.599 -34.864  0.00  0.00     0.033 H 
ATOM     42  H15 RHQ d   1       2.692  20.725 -34.608  0.00  0.00     0.033 H 
ATOM     43  H16 RHQ d   1       1.882  19.960 -33.198  0.00  0.00     0.033 H 
ENDBRANCH   4  40
BRANCH  13  44
ATOM     44  C20 RHQ d   1       4.955  10.923 -37.683  0.00  0.00    -0.049 C 
ATOM     45  H11 RHQ d   1       5.784  10.206 -37.598  0.00  0.00     0.033 H 
ATOM     46  H12 RHQ d   1       4.848  11.236 -38.732  0.00  0.00     0.033 H 
ATOM     47  H13 RHQ d   1       4.022  10.447 -37.345  0.00  0.00     0.033 H 
ENDBRANCH  13  44
BRANCH   5  48
ATOM     48  N2  RHQ d   1       4.598  19.860 -32.786  0.00  0.00    -0.390 N 
ATOM     49  H22 RHQ d   1       4.143  20.775 -32.918  0.00  0.00     0.159 HD
BRANCH  48  50
ATOM     50  C24 RHQ d   1       5.635  19.546 -31.678  0.00  0.00    -0.011 C 
ATOM     51  H23 RHQ d   1       6.600  19.274 -32.130  0.00  0.00     0.063 H 
ATOM     52  H24 RHQ d   1       5.277  18.716 -31.050  0.00  0.00     0.063 H 
BRANCH  50  53
ATOM     53  C25 RHQ d   1       5.787  20.802 -30.843  0.00  0.00    -0.061 C 
ATOM     54  H25 RHQ d   1       6.518  20.623 -30.041  0.00  0.00     0.029 H 
ATOM     55  H26 RHQ d   1       4.816  21.069 -30.401  0.00  0.00     0.029 H 
ATOM     56  H27 RHQ d   1       6.138  21.626 -31.481  0.00  0.00     0.029 H 
ENDBRANCH  50  53
ENDBRANCH  48  50
ENDBRANCH   5  48
BRANCH  12  57
ATOM     57  N1  RHQ d   1       7.352  11.240 -36.094  0.00  0.00    -0.390 N 
ATOM     58  H6  RHQ d   1       7.351  10.525 -36.836  0.00  0.00     0.159 HD
BRANCH  57  59
ATOM     59  C22 RHQ d   1       8.372  11.210 -35.012  0.00  0.00    -0.011 C 
ATOM     60  H17 RHQ d   1       8.771  12.230 -34.916  0.00  0.00     0.063 H 
ATOM     61  H18 RHQ d   1       9.173  10.532 -35.342  0.00  0.00     0.063 H 
BRANCH  59  62
ATOM     62  C23 RHQ d   1       7.963  10.772 -33.652  0.00  0.00    -0.061 C 
ATOM     63  H19 RHQ d   1       8.832  10.809 -32.978  0.00  0.00     0.029 H 
ATOM     64  H20 RHQ d   1       7.578   9.742 -33.699  0.00  0.00     0.029 H 
ATOM     65  H21 RHQ d   1       7.176  11.441 -33.273  0.00  0.00     0.029 H 
ENDBRANCH  59  62
ENDBRANCH  57  59
ENDBRANCH  12  57
TORSDOF 13
