REMARK  15 active torsions:
REMARK  status: ('A' for Active; 'I' for Inactive)
REMARK    1  A    between atoms: C7_7  and  N4_33 
REMARK    2  A    between atoms: C9_9  and  C30_31 
REMARK    3  A    between atoms: C28_30  and  N1_10 
REMARK    4  A    between atoms: C19_21  and  N2_13 
REMARK    5  A    between atoms: C12_14  and  C29_32 
REMARK    6  A    between atoms: C14_16  and  N3_34 
REMARK    7  A    between atoms: C20_22  and  C19_21 
REMARK    8  A    between atoms: C21_23  and  C20_22 
REMARK    9  A    between atoms: C22_24  and  C21_23 
REMARK   10  A    between atoms: C23_25  and  C22_24 
REMARK   11  A    between atoms: C24_26  and  C23_25 
REMARK   12  A    between atoms: C25_27  and  C24_26 
REMARK   13  A    between atoms: C26_28  and  C25_27 
REMARK   14  A    between atoms: C27_29  and  C26_28 
REMARK   15  A    between atoms: C27_29  and  C28_30 
ROOT
ATOM      1  C23 DEQ d   1     -48.472  -0.592 -28.215  0.00  0.00    -0.065 C 
ATOM      2  H21 DEQ d   1     -48.680  -1.514 -27.652  0.00  0.00     0.033 H 
ATOM      3  H22 DEQ d   1     -49.112   0.219 -27.839  0.00  0.00     0.033 H 
ENDROOT
BRANCH   1   4
ATOM      4  C22 DEQ d   1     -48.755  -0.820 -29.678  0.00  0.00    -0.065 C 
ATOM      5  H19 DEQ d   1     -48.381   0.042 -30.249  0.00  0.00     0.033 H 
ATOM      6  H20 DEQ d   1     -48.230  -1.730 -30.002  0.00  0.00     0.033 H 
BRANCH   4   7
ATOM      7  C21 DEQ d   1     -50.222  -0.984 -29.956  0.00  0.00    -0.064 C 
ATOM      8  H17 DEQ d   1     -50.790  -0.191 -29.447  0.00  0.00     0.033 H 
ATOM      9  H18 DEQ d   1     -50.406  -0.930 -31.039  0.00  0.00     0.033 H 
BRANCH   7  10
ATOM     10  C20 DEQ d   1     -50.639  -2.322 -29.436  0.00  0.00    -0.050 C 
ATOM     11  H15 DEQ d   1     -50.239  -3.098 -30.106  0.00  0.00     0.035 H 
ATOM     12  H16 DEQ d   1     -50.216  -2.453 -28.429  0.00  0.00     0.035 H 
BRANCH  10  13
ATOM     13  C19 DEQ d   1     -52.136  -2.487 -29.352  0.00  0.00     0.000 C 
ATOM     14  H13 DEQ d   1     -52.574  -1.763 -28.649  0.00  0.00     0.064 H 
ATOM     15  H14 DEQ d   1     -52.602  -2.366 -30.341  0.00  0.00     0.064 H 
BRANCH  13  16
ATOM     16  N2  DEQ d   1     -52.291  -3.829 -28.871  0.00  0.00    -0.350 N 
ATOM     17  C11 DEQ d   1     -51.445  -4.744 -29.436  0.00  0.00     0.043 A 
ATOM     18  C10 DEQ d   1     -51.528  -6.120 -28.995  0.00  0.00     0.003 A 
ATOM     19  C18 DEQ d   1     -50.549  -4.392 -30.413  0.00  0.00    -0.056 A 
ATOM     20  C14 DEQ d   1     -52.413  -6.479 -28.033  0.00  0.00     0.145 A 
ATOM     21  C15 DEQ d   1     -50.721  -7.044 -29.571  0.00  0.00    -0.072 A 
ATOM     22  C13 DEQ d   1     -53.245  -5.540 -27.466  0.00  0.00    -0.048 A 
ATOM     23  H8  DEQ d   1     -51.664  -6.272 -27.254  0.00  0.00     0.098 H 
ATOM     24  C12 DEQ d   1     -53.193  -4.221 -27.877  0.00  0.00     0.006 A 
ATOM     25  H7  DEQ d   1     -53.948  -5.838 -26.689  0.00  0.00     0.083 H 
ATOM     26  C16 DEQ d   1     -49.837  -6.645 -30.550  0.00  0.00    -0.082 A 
ATOM     27  H9  DEQ d   1     -50.770  -8.083 -29.266  0.00  0.00     0.084 H 
ATOM     28  C17 DEQ d   1     -49.733  -5.341 -30.975  0.00  0.00    -0.081 A 
ATOM     29  H10 DEQ d   1     -49.196  -7.391 -31.005  0.00  0.00     0.083 H 
ATOM     30  H11 DEQ d   1     -49.017  -5.067 -31.742  0.00  0.00     0.083 H 
ATOM     31  H12 DEQ d   1     -50.485  -3.361 -30.742  0.00  0.00     0.086 H 
BRANCH  20  32
ATOM     32  N3  DEQ d   1     -52.442  -7.891 -27.634  0.00  0.00    -0.068 N 
ATOM     33  H41 DEQ d   1     -51.758  -8.405 -28.168  0.00  0.00     0.275 HD
ATOM     34  H42 DEQ d   1     -53.359  -8.271 -27.809  0.00  0.00     0.275 HD
ATOM     35  H43 DEQ d   1     -52.228  -7.967 -26.652  0.00  0.00     0.275 HD
ENDBRANCH  20  32
BRANCH  24  36
ATOM     36  C29 DEQ d   1     -54.114  -3.239 -27.225  0.00  0.00    -0.037 C 
ATOM     37  H36 DEQ d   1     -54.733  -3.757 -26.478  0.00  0.00     0.035 H 
ATOM     38  H37 DEQ d   1     -54.764  -2.784 -27.987  0.00  0.00     0.035 H 
ATOM     39  H38 DEQ d   1     -53.523  -2.454 -26.731  0.00  0.00     0.035 H 
ENDBRANCH  24  36
ENDBRANCH  13  16
ENDBRANCH  10  13
ENDBRANCH   7  10
ENDBRANCH   4   7
ENDBRANCH   1   4
BRANCH   1  40
ATOM     40  C24 DEQ d   1     -47.020  -0.211 -28.042  0.00  0.00    -0.065 C 
ATOM     41  H23 DEQ d   1     -46.663   0.287 -28.955  0.00  0.00     0.033 H 
ATOM     42  H24 DEQ d   1     -46.424  -1.118 -27.862  0.00  0.00     0.033 H 
BRANCH  40  43
ATOM     43  C25 DEQ d   1     -46.870   0.721 -26.877  0.00  0.00    -0.065 C 
ATOM     44  H25 DEQ d   1     -47.475   0.349 -26.037  0.00  0.00     0.033 H 
ATOM     45  H26 DEQ d   1     -47.222   1.722 -27.168  0.00  0.00     0.033 H 
BRANCH  43  46
ATOM     46  C26 DEQ d   1     -45.429   0.809 -26.448  0.00  0.00    -0.064 C 
ATOM     47  H27 DEQ d   1     -45.392   1.058 -25.377  0.00  0.00     0.033 H 
ATOM     48  H28 DEQ d   1     -44.934   1.603 -27.026  0.00  0.00     0.033 H 
BRANCH  46  49
ATOM     49  C27 DEQ d   1     -44.695  -0.482 -26.671  0.00  0.00    -0.054 C 
ATOM     50  H29 DEQ d   1     -43.843  -0.310 -27.345  0.00  0.00     0.034 H 
ATOM     51  H30 DEQ d   1     -45.375  -1.220 -27.121  0.00  0.00     0.034 H 
BRANCH  49  52
ATOM     52  C28 DEQ d   1     -44.194  -0.999 -25.345  0.00  0.00    -0.016 C 
ATOM     53  H31 DEQ d   1     -44.018  -0.157 -24.660  0.00  0.00     0.056 H 
ATOM     54  H32 DEQ d   1     -44.938  -1.679 -24.906  0.00  0.00     0.056 H 
BRANCH  52  55
ATOM     55  N1  DEQ d   1     -42.954  -1.712 -25.574  0.00  0.00    -0.275 NA
ATOM     56  C5  DEQ d   1     -42.001  -1.329 -24.649  0.00  0.00     0.023 A 
ATOM     57  C1  DEQ d   1     -41.749   0.006 -24.505  0.00  0.00    -0.061 A 
ATOM     58  C6  DEQ d   1     -41.270  -2.228 -23.938  0.00  0.00     0.011 A 
ATOM     59  C2  DEQ d   1     -40.787   0.417 -23.623  0.00  0.00    -0.081 A 
ATOM     60  H1  DEQ d   1     -42.306   0.733 -25.084  0.00  0.00     0.086 H 
ATOM     61  C3  DEQ d   1     -40.055  -0.485 -22.894  0.00  0.00    -0.082 A 
ATOM     62  H2  DEQ d   1     -40.600   1.477 -23.498  0.00  0.00     0.083 H 
ATOM     63  C4  DEQ d   1     -40.301  -1.811 -23.061  0.00  0.00    -0.069 A 
ATOM     64  H3  DEQ d   1     -39.295  -0.147 -22.198  0.00  0.00     0.083 H 
ATOM     65  H4  DEQ d   1     -39.730  -2.542 -22.500  0.00  0.00     0.085 H 
ATOM     66  C7  DEQ d   1     -41.482  -3.550 -24.094  0.00  0.00     0.035 A 
ATOM     67  C8  DEQ d   1     -42.418  -3.982 -24.952  0.00  0.00    -0.060 A 
ATOM     68  C9  DEQ d   1     -43.153  -3.083 -25.651  0.00  0.00     0.014 A 
ATOM     69  H5  DEQ d   1     -42.587  -5.050 -25.086  0.00  0.00     0.082 H 
ATOM     70  H6  DEQ d   1     -43.890  -3.029 -24.836  0.00  0.00     0.070 H 
BRANCH  66  71
ATOM     71  N4  DEQ d   1     -40.714  -4.528 -23.326  0.00  0.00    -0.399 N 
ATOM     72  H39 DEQ d   1     -39.992  -4.210 -22.663  0.00  0.00     0.156 HD
ATOM     73  H40 DEQ d   1     -40.895  -5.535 -23.447  0.00  0.00     0.156 HD
ENDBRANCH  66  71
BRANCH  68  74
ATOM     74  C30 DEQ d   1     -44.168  -3.619 -26.589  0.00  0.00    -0.058 C 
ATOM     75  H33 DEQ d   1     -44.190  -4.716 -26.518  0.00  0.00     0.029 H 
ATOM     76  H34 DEQ d   1     -43.910  -3.324 -27.617  0.00  0.00     0.029 H 
ATOM     77  H35 DEQ d   1     -45.157  -3.215 -26.329  0.00  0.00     0.029 H 
ENDBRANCH  68  74
ENDBRANCH  52  55
ENDBRANCH  49  52
ENDBRANCH  46  49
ENDBRANCH  43  46
ENDBRANCH  40  43
ENDBRANCH   1  40
TORSDOF 15
