REMARK  8 active torsions:
REMARK  status: ('A' for Active; 'I' for Inactive)
REMARK    1  A    between atoms: C5_3  and  C4_1 
REMARK    2  A    between atoms: C4_1  and  C3_10 
REMARK    3  A    between atoms: C14_2  and  C15_15 
REMARK    4  A    between atoms: N6_13  and  C5_3 
REMARK    5  A    between atoms: C3_10  and  O2_12 
REMARK    6  A    between atoms: O2_12  and  C1_11 
REMARK    7  A    between atoms: N17_17  and  O18_18 
REMARK    8  A    between atoms: C23_22  and  C24_23 
ROOT
ATOM      1  C14 HPJ d   1       9.749 -12.176 -28.244  0.00  0.00     0.012 A 
ATOM      2  C11 HPJ d   1       7.233 -11.617 -27.287  0.00  0.00     0.139 A 
ATOM      3  C7  HPJ d   1       5.337 -12.662 -27.493  0.00  0.00    -0.018 A 
ATOM      4  C8  HPJ d   1       6.250 -13.394 -28.134  0.00  0.00    -0.054 A 
ATOM      5  C9  HPJ d   1       7.430 -12.765 -28.051  0.00  0.00     0.012 A 
ATOM      6  C10 HPJ d   1       8.722 -13.098 -28.477  0.00  0.00    -0.056 A 
ATOM      7  C13 HPJ d   1       9.479 -11.044 -27.465  0.00  0.00     0.017 A 
ATOM      8  N6  HPJ d   1       5.940 -11.587 -26.987  0.00  0.00    -0.341 N 
ATOM      9  N12 HPJ d   1       8.255 -10.787 -27.001  0.00  0.00    -0.241 NA
ATOM     10  H   HPJ d   1       4.278 -12.902 -27.399  0.00  0.00     0.111 H 
ATOM     11  H   HPJ d   1       6.067 -14.342 -28.639  0.00  0.00     0.087 H 
ATOM     12  H   HPJ d   1       8.922 -14.047 -28.975  0.00  0.00     0.086 H 
ATOM     13  H   HPJ d   1      10.290 -10.355 -27.232  0.00  0.00     0.116 H 
ENDROOT
BRANCH   1  14
ATOM     14  C15 HPJ d   1      11.072 -12.463 -28.603  0.00  0.00     0.079 A 
ATOM     15  C16 HPJ d   1      11.459 -12.889 -29.873  0.00  0.00    -0.043 A 
ATOM     16  C23 HPJ d   1      12.817 -13.149 -30.190  0.00  0.00    -0.018 A 
ATOM     17  H   HPJ d   1      10.699 -13.026 -30.642  0.00  0.00     0.088 H 
ATOM     18  C22 HPJ d   1      13.777 -13.059 -29.166  0.00  0.00    -0.004 A 
ATOM     19  C20 HPJ d   1      13.403 -12.643 -27.878  0.00  0.00     0.272 A 
ATOM     20  H   HPJ d   1      14.816 -13.313 -29.373  0.00  0.00     0.093 H 
ATOM     21  N17 HPJ d   1      12.063 -12.336 -27.607  0.00  0.00    -0.187 N 
ATOM     22  O21 HPJ d   1      14.216 -12.494 -26.941  0.00  0.00    -0.266 OA
BRANCH  16  23
ATOM     23  C24 HPJ d   1      13.188 -13.583 -31.489  0.00  0.00    -0.026 A 
ATOM     24  C25 HPJ d   1      12.301 -14.337 -32.279  0.00  0.00    -0.072 A 
ATOM     25  C26 HPJ d   1      12.710 -14.792 -33.545  0.00  0.00    -0.082 A 
ATOM     26  H   HPJ d   1      11.301 -14.567 -31.911  0.00  0.00     0.084 H 
ATOM     27  C27 HPJ d   1      13.987 -14.492 -34.040  0.00  0.00    -0.083 A 
ATOM     28  H   HPJ d   1      12.025 -15.386 -34.150  0.00  0.00     0.083 H 
ATOM     29  C28 HPJ d   1      14.867 -13.720 -33.283  0.00  0.00    -0.082 A 
ATOM     30  H   HPJ d   1      14.292 -14.863 -35.018  0.00  0.00     0.083 H 
ATOM     31  C29 HPJ d   1      14.458 -13.270 -32.015  0.00  0.00    -0.072 A 
ATOM     32  H   HPJ d   1      15.856 -13.469 -33.667  0.00  0.00     0.083 H 
ATOM     33  H   HPJ d   1      15.142 -12.662 -31.422  0.00  0.00     0.084 H 
ENDBRANCH  16  23
BRANCH  21  34
ATOM     34  O18 HPJ d   1      11.786 -11.891 -26.305  0.00  0.00    -0.279 OA
ATOM     35  H   HPJ d   1      12.598 -11.879 -25.793  0.00  0.00     0.245 HD
ENDBRANCH  21  34
ENDBRANCH   1  14
BRANCH   8  36
ATOM     36  C5  HPJ d   1       5.281 -10.545 -26.166  0.00  0.00     0.003 C 
ATOM     37  H   HPJ d   1       5.642  -9.566 -26.480  0.00  0.00     0.065 H 
ATOM     38  H   HPJ d   1       4.202 -10.615 -26.303  0.00  0.00     0.065 H 
BRANCH  36  39
ATOM     39  C4  HPJ d   1       5.613 -10.748 -24.664  0.00  0.00    -0.030 C 
ATOM     40  H   HPJ d   1       5.233  -9.879 -24.127  0.00  0.00     0.038 H 
ATOM     41  H   HPJ d   1       6.692 -10.877 -24.584  0.00  0.00     0.038 H 
BRANCH  39  42
ATOM     42  C3  HPJ d   1       4.953 -11.997 -24.044  0.00  0.00     0.020 C 
ATOM     43  H   HPJ d   1       5.332 -12.135 -23.032  0.00  0.00     0.074 H 
ATOM     44  H   HPJ d   1       5.189 -12.867 -24.657  0.00  0.00     0.074 H 
BRANCH  42  45
ATOM     45  O2  HPJ d   1       3.528 -11.832 -23.993  0.00  0.00    -0.396 OA
BRANCH  45  46
ATOM     46  C1  HPJ d   1       2.865 -13.076 -23.718  0.00  0.00     0.004 C 
ATOM     47  H   HPJ d   1       3.102 -13.794 -24.503  0.00  0.00     0.066 H 
ATOM     48  H   HPJ d   1       3.203 -13.462 -22.756  0.00  0.00     0.066 H 
ATOM     49  H   HPJ d   1       1.788 -12.913 -23.687  0.00  0.00     0.066 H 
ENDBRANCH  45  46
ENDBRANCH  42  45
ENDBRANCH  39  42
ENDBRANCH  36  39
ENDBRANCH   8  36
TORSDOF 8
