REMARK  5 active torsions:
REMARK  status: ('A' for Active; 'I' for Inactive)
REMARK    1  A    between atoms: C1_7  and  S1_8 
REMARK    2  A    between atoms: S1_8  and  N1_11 
REMARK    3  A    between atoms: N1_11  and  C12_12 
REMARK    4  A    between atoms: C13_17  and  C15_18 
REMARK    5  A    between atoms: C14_23  and  C16_24 
ROOT
ATOM      1  C12 VWS d   1      30.834  65.200  14.380  0.00  0.00     0.043 A 
ATOM      2  C7  VWS d   1      30.113  63.983  14.560  0.00  0.00    -0.054 A 
ATOM      3  C8  VWS d   1      29.724  63.568  15.864  0.00  0.00    -0.047 A 
ATOM      4  C11 VWS d   1      31.171  66.015  15.517  0.00  0.00    -0.043 A 
ATOM      5  C10 VWS d   1      30.774  65.600  16.823  0.00  0.00     0.019 A 
ATOM      6  C13 VWS d   1      30.898  66.098  18.161  0.00  0.00     0.083 A 
ATOM      7  C9  VWS d   1      30.062  64.392  16.978  0.00  0.00     0.087 A 
ATOM      8  O3  VWS d   1      29.776  64.160  18.248  0.00  0.00    -0.314 OA
ATOM      9  C14 VWS d   1      30.257  65.193  19.026  0.00  0.00     0.068 A 
ATOM     10  H6  VWS d   1      29.861  63.372  13.701  0.00  0.00     0.087 H 
ATOM     11  H7  VWS d   1      29.180  62.642  16.008  0.00  0.00     0.087 H 
ATOM     12  H8  VWS d   1      31.723  66.938  15.382  0.00  0.00     0.088 H 
ENDROOT
BRANCH   1  13
ATOM     13  N1  VWS d   1      31.186  65.666  13.142  0.00  0.00    -0.281 N 
ATOM     14  H5  VWS d   1      30.778  66.548  12.906  0.00  0.00     0.179 HD
BRANCH  13  15
ATOM     15  S1  VWS d   1      32.129  65.058  12.005  0.00  0.00     0.263 S 
ATOM     16  O1  VWS d   1      32.195  65.562  10.646  0.00  0.00    -0.200 OA
ATOM     17  O2  VWS d   1      31.092  64.140  11.553  0.00  0.00    -0.200 OA
BRANCH  15  18
ATOM     18  C1  VWS d   1      33.233  64.006  12.548  0.00  0.00     0.080 A 
ATOM     19  C3  VWS d   1      34.524  64.522  12.665  0.00  0.00    -0.059 A 
ATOM     20  C4  VWS d   1      35.582  63.758  13.147  0.00  0.00    -0.060 A 
ATOM     21  H2  VWS d   1      34.708  65.549  12.371  0.00  0.00     0.086 H 
ATOM     22  C5  VWS d   1      35.350  62.445  13.540  0.00  0.00     0.034 A 
ATOM     23  H1  VWS d   1      36.577  64.182  13.215  0.00  0.00     0.086 H 
ATOM     24 CL1  VWS d   1      36.795  61.628  14.138  0.00  0.00    -0.084 Cl
ATOM     25  C6  VWS d   1      34.063  61.843  13.447  0.00  0.00    -0.060 A 
ATOM     26  C2  VWS d   1      32.992  62.632  12.946  0.00  0.00    -0.059 A 
ATOM     27  H3  VWS d   1      33.905  60.814  13.749  0.00  0.00     0.086 H 
ATOM     28  H4  VWS d   1      31.998  62.208  12.862  0.00  0.00     0.086 H 
ENDBRANCH  15  18
ENDBRANCH  13  15
ENDBRANCH   1  13
BRANCH   6  29
ATOM     29  C15 VWS d   1      31.611  67.390  18.544  0.00  0.00     0.212 C 
ATOM     30  O4  VWS d   1      32.109  68.164  17.691  0.00  0.00    -0.644 OA
ATOM     31  O5  VWS d   1      31.733  67.664  19.764  0.00  0.00    -0.644 OA
ENDBRANCH   6  29
BRANCH   9  32
ATOM     32  C16 VWS d   1      30.010  65.091  20.527  0.00  0.00    -0.030 C 
ATOM     33  H9  VWS d   1      29.443  64.174  20.744  0.00  0.00     0.036 H 
ATOM     34  H10 VWS d   1      29.435  65.966  20.864  0.00  0.00     0.036 H 
ATOM     35  H11 VWS d   1      30.974  65.059  21.056  0.00  0.00     0.036 H 
ENDBRANCH   9  32
TORSDOF 5
