REMARK  11 active torsions:
REMARK  status: ('A' for Active; 'I' for Inactive)
REMARK    1  A    between atoms: N26_26  and  C5_5 
REMARK    2  A    between atoms: C8_8  and  C14_14 
REMARK       I    between atoms: N28_28  and  C8_8 
REMARK    3  A    between atoms: C15_15  and  C21_21 
REMARK    4  A    between atoms: C16_16  and  C17_17 
REMARK    5  A    between atoms: C16_16  and  C18_18 
REMARK    6  A    between atoms: C24_24  and  C19_19 
REMARK    7  A    between atoms: C24_24  and  C20_20 
REMARK    8  A    between atoms: C21_21  and  N27_27 
REMARK    9  A    between atoms: C23_23  and  C22_22 
REMARK   10  A    between atoms: C22_22  and  C24_24 
REMARK   11  A    between atoms: C23_23  and  N28_28 
ROOT
ATOM      1  C10 VYD d   1     178.127 201.098  99.659  0.00  0.00    -0.046 C 
ATOM      2  C11 VYD d   1     178.958 203.353 100.397  0.00  0.00     0.093 C 
ATOM      3  C12 VYD d   1     178.035 203.163  98.245  0.00  0.00     0.086 C 
ATOM      4  C14 VYD d   1     179.156 201.860 100.472  0.00  0.00     0.047 C 
ATOM      5  C15 VYD d   1     178.196 201.649  98.247  0.00  0.00    -0.004 C 
ATOM      6  N25 VYD d   1     179.121 203.767  99.011  0.00  0.00    -0.074 N 
ATOM      7  H   VYD d   1     177.129 201.224 100.078  0.00  0.00     0.035 H 
ATOM      8  H   VYD d   1     178.336 200.028  99.670  0.00  0.00     0.035 H 
ATOM      9  H   VYD d   1     179.690 203.859 101.027  0.00  0.00     0.076 H 
ATOM     10  H   VYD d   1     177.961 203.616 100.751  0.00  0.00     0.076 H 
ATOM     11  H   VYD d   1     177.079 203.428  98.697  0.00  0.00     0.076 H 
ATOM     12  H   VYD d   1     178.065 203.531  97.219  0.00  0.00     0.076 H 
ATOM     13  H   VYD d   1     180.139 201.609 100.073  0.00  0.00     0.057 H 
ATOM     14  H   VYD d   1     179.175 201.346  97.876  0.00  0.00     0.045 H 
ATOM     15  H   VYD d   1     180.025 203.462  98.651  0.00  0.00     0.277 HD
ATOM     16  H   VYD d   1     179.090 204.784  98.935  0.00  0.00     0.277 HD
ENDROOT
BRANCH   5  17
ATOM     17  C21 VYD d   1     177.129 201.101  97.341  0.00  0.00     0.120 C 
ATOM     18  H   VYD d   1     177.321 201.469  96.333  0.00  0.00     0.080 H 
ATOM     19  H   VYD d   1     176.162 201.426  97.724  0.00  0.00     0.080 H 
BRANCH  17  20
ATOM     20  N27 VYD d   1     177.131 199.651  97.298  0.00  0.00     0.108 N 
ATOM     21  C9  VYD d   1     175.700 199.470  97.321  0.00  0.00     0.187 C 
ATOM     22  C7  VYD d   1     175.265 198.374  96.451  0.00  0.00     0.253 C 
ATOM     23  H   VYD d   1     175.406 199.229  98.342  0.00  0.00     0.095 H 
ATOM     24  H   VYD d   1     175.237 200.390  96.964  0.00  0.00     0.095 H 
ATOM     25  N26 VYD d   1     175.699 198.493  95.151  0.00  0.00    -0.312 N 
ATOM     26  O29 VYD d   1     174.579 197.514  96.950  0.00  0.00    -0.271 OA
ATOM     27  C13 VYD d   1     176.821 199.334  94.885  0.00  0.00     0.036 C 
ATOM     28  C16 VYD d   1     177.733 199.180  96.053  0.00  0.00     0.169 C 
ATOM     29  H   VYD d   1     177.316 199.051  93.956  0.00  0.00     0.069 H 
ATOM     30  H   VYD d   1     176.515 200.372  94.756  0.00  0.00     0.069 H 
BRANCH  25  31
ATOM     31  C5  VYD d   1     174.782 198.435  94.119  0.00  0.00     0.059 A 
ATOM     32  C3  VYD d   1     174.335 199.600  93.550  0.00  0.00    -0.055 A 
ATOM     33  C1  VYD d   1     173.425 199.537  92.513  0.00  0.00    -0.081 A 
ATOM     34  H   VYD d   1     174.694 200.564  93.912  0.00  0.00     0.087 H 
ATOM     35  C2  VYD d   1     172.967 198.317  92.046  0.00  0.00    -0.081 A 
ATOM     36  H   VYD d   1     173.063 200.459  92.057  0.00  0.00     0.083 H 
ATOM     37  C4  VYD d   1     173.413 197.134  92.603  0.00  0.00    -0.060 A 
ATOM     38  H   VYD d   1     172.246 198.289  91.229  0.00  0.00     0.083 H 
ATOM     39  C6  VYD d   1     174.321 197.234  93.641  0.00  0.00     0.060 A 
ATOM     40  H   VYD d   1     173.065 196.167  92.241  0.00  0.00     0.086 H 
ATOM     41 CL   VYD d   1     174.913 195.823  94.365  0.00  0.00    -0.082 Cl
ENDBRANCH  25  31
BRANCH  28  42
ATOM     42  C17 VYD d   1     178.921 200.002  95.650  0.00  0.00    -0.041 C 
ATOM     43  H   VYD d   1     179.343 199.601  94.728  0.00  0.00     0.031 H 
ATOM     44  H   VYD d   1     178.609 201.034  95.490  0.00  0.00     0.031 H 
ATOM     45  H   VYD d   1     179.671 199.966  96.440  0.00  0.00     0.031 H 
ENDBRANCH  28  42
BRANCH  28  46
ATOM     46  C18 VYD d   1     178.119 197.740  96.309  0.00  0.00    -0.041 C 
ATOM     47  H   VYD d   1     177.221 197.154  96.507  0.00  0.00     0.031 H 
ATOM     48  H   VYD d   1     178.629 197.341  95.432  0.00  0.00     0.031 H 
ATOM     49  H   VYD d   1     178.784 197.691  97.171  0.00  0.00     0.031 H 
ENDBRANCH  28  46
ENDBRANCH  17  20
ENDBRANCH   5  17
BRANCH   4  50
ATOM     50  C8  VYD d   1     178.989 201.490 101.885  0.00  0.00     0.223 C 
ATOM     51  N28 VYD d   1     180.106 201.808 102.611  0.00  0.00    -0.361 N 
ATOM     52  H   VYD d   1     180.937 202.171 102.145  0.00  0.00     0.162 HD
ATOM     53  O30 VYD d   1     177.973 200.968 102.303  0.00  0.00    -0.273 OA
BRANCH  51  54
ATOM     54  C23 VYD d   1     180.095 201.625 104.035  0.00  0.00    -0.004 C 
ATOM     55  H   VYD d   1     180.783 202.299 104.545  0.00  0.00     0.064 H 
ATOM     56  H   VYD d   1     179.126 201.859 104.475  0.00  0.00     0.064 H 
BRANCH  54  57
ATOM     57  C22 VYD d   1     180.470 200.187 104.215  0.00  0.00    -0.048 C 
ATOM     58  H   VYD d   1     180.301 199.667 103.272  0.00  0.00     0.035 H 
ATOM     59  H   VYD d   1     179.862 199.771 105.019  0.00  0.00     0.035 H 
BRANCH  57  60
ATOM     60  C24 VYD d   1     181.937 200.031 104.593  0.00  0.00    -0.060 C 
ATOM     61  H   VYD d   1     182.022 200.110 105.677  0.00  0.00     0.038 H 
BRANCH  60  62
ATOM     62  C19 VYD d   1     182.444 198.652 104.184  0.00  0.00    -0.073 C 
ATOM     63  H   VYD d   1     182.427 198.567 103.097  0.00  0.00     0.028 H 
ATOM     64  H   VYD d   1     183.464 198.520 104.544  0.00  0.00     0.028 H 
ATOM     65  H   VYD d   1     181.802 197.886 104.620  0.00  0.00     0.028 H 
ENDBRANCH  60  62
BRANCH  60  66
ATOM     66  C20 VYD d   1     182.791 201.152 104.017  0.00  0.00    -0.073 C 
ATOM     67  H   VYD d   1     183.815 201.047 104.375  0.00  0.00     0.028 H 
ATOM     68  H   VYD d   1     182.778 201.095 102.929  0.00  0.00     0.028 H 
ATOM     69  H   VYD d   1     182.390 202.114 104.337  0.00  0.00     0.028 H 
ENDBRANCH  60  66
ENDBRANCH  57  60
ENDBRANCH  54  57
ENDBRANCH  51  54
ENDBRANCH   4  50
TORSDOF 11
