REMARK  10 active torsions:
REMARK  status: ('A' for Active; 'I' for Inactive)
REMARK    1  A    between atoms: C1_1  and  C23_23 
REMARK    2  A    between atoms: C5_5  and  N7_7 
REMARK    3  A    between atoms: N10_10  and  C16_16 
REMARK    4  A    between atoms: C12_12  and  C14_14 
REMARK    5  A    between atoms: C12_12  and  C15_15 
REMARK       I    between atoms: C23_23  and  N25_25 
REMARK    6  A    between atoms: N25_25  and  C26_26 
REMARK    7  A    between atoms: C26_26  and  C27_27 
REMARK    8  A    between atoms: C27_27  and  C28_28 
REMARK    9  A    between atoms: C28_28  and  C29_29 
REMARK   10  A    between atoms: C28_28  and  C30_30 
ROOT
ATOM      1  C1  VYE d   1     179.793 202.150 100.721  0.00  0.00     0.048 C 
ATOM      2  C2  VYE d   1     179.424 203.616 100.517  0.00  0.00     0.093 C 
ATOM      3  N3  VYE d   1     179.510 204.020  99.122  0.00  0.00    -0.072 N 
ATOM      4  C4  VYE d   1     178.623 203.216  98.283  0.00  0.00     0.100 C 
ATOM      5  C5  VYE d   1     178.956 201.729  98.362  0.00  0.00     0.032 C 
ATOM      6  C6  VYE d   1     178.991 201.209  99.801  0.00  0.00    -0.032 C 
ATOM      7  H   VYE d   1     180.840 202.039 100.440  0.00  0.00     0.057 H 
ATOM      8  H   VYE d   1     180.126 204.223 101.088  0.00  0.00     0.076 H 
ATOM      9  H   VYE d   1     178.394 203.754 100.845  0.00  0.00     0.076 H 
ATOM     10  H   VYE d   1     180.470 203.886  98.803  0.00  0.00     0.277 HD
ATOM     11  H   VYE d   1     179.230 204.998  99.048  0.00  0.00     0.277 HD
ATOM     12  H   VYE d   1     178.746 203.539  97.249  0.00  0.00     0.078 H 
ATOM     13  H   VYE d   1     177.601 203.356  98.635  0.00  0.00     0.078 H 
ATOM     14  H   VYE d   1     179.974 201.608  97.993  0.00  0.00     0.074 H 
ATOM     15  H   VYE d   1     177.968 201.151 100.173  0.00  0.00     0.037 H 
ATOM     16  H   VYE d   1     179.472 200.231  99.803  0.00  0.00     0.037 H 
ENDROOT
BRANCH   5  17
ATOM     17  N7  VYE d   1     178.108 200.935  97.474  0.00  0.00    -0.388 N 
ATOM     18  C8  VYE d   1     176.792 200.594  97.952  0.00  0.00     0.066 C 
ATOM     19  C9  VYE d   1     175.850 200.006  96.883  0.00  0.00     0.242 C 
ATOM     20  H   VYE d   1     176.334 201.518  98.305  0.00  0.00     0.078 H 
ATOM     21  H   VYE d   1     176.921 199.828  98.717  0.00  0.00     0.078 H 
ATOM     22  N10 VYE d   1     176.417 199.635  95.674  0.00  0.00    -0.313 N 
ATOM     23  O13 VYE d   1     174.660 199.885  97.119  0.00  0.00    -0.271 OA
ATOM     24  C11 VYE d   1     177.860 199.785  95.391  0.00  0.00     0.025 C 
ATOM     25  C12 VYE d   1     178.746 199.975  96.602  0.00  0.00     0.038 C 
ATOM     26  H   VYE d   1     177.965 200.685  94.786  0.00  0.00     0.068 H 
ATOM     27  H   VYE d   1     178.180 198.858  94.915  0.00  0.00     0.068 H 
BRANCH  22  28
ATOM     28  C16 VYE d   1     175.603 199.109  94.686  0.00  0.00     0.059 A 
ATOM     29  C17 VYE d   1     175.304 197.763  94.585  0.00  0.00     0.060 A 
ATOM     30  C18 VYE d   1     174.487 197.252  93.592  0.00  0.00    -0.060 A 
ATOM     31 CL1  VYE d   1     175.962 196.673  95.735  0.00  0.00    -0.082 Cl
ATOM     32  C19 VYE d   1     173.950 198.135  92.661  0.00  0.00    -0.081 A 
ATOM     33  H   VYE d   1     174.270 196.185  93.541  0.00  0.00     0.086 H 
ATOM     34  C20 VYE d   1     174.238 199.497  92.740  0.00  0.00    -0.081 A 
ATOM     35  H   VYE d   1     173.303 197.761  91.868  0.00  0.00     0.083 H 
ATOM     36  C21 VYE d   1     175.067 199.986  93.754  0.00  0.00    -0.055 A 
ATOM     37  H   VYE d   1     173.815 200.184  92.007  0.00  0.00     0.083 H 
ATOM     38  H   VYE d   1     175.291 201.051  93.812  0.00  0.00     0.087 H 
ENDBRANCH  22  28
BRANCH  25  39
ATOM     39  C14 VYE d   1     180.118 200.500  96.150  0.00  0.00    -0.052 C 
ATOM     40  H   VYE d   1     179.987 201.440  95.613  0.00  0.00     0.030 H 
ATOM     41  H   VYE d   1     180.749 200.664  97.024  0.00  0.00     0.030 H 
ATOM     42  H   VYE d   1     180.588 199.767  95.494  0.00  0.00     0.030 H 
ENDBRANCH  25  39
BRANCH  25  43
ATOM     43  C15 VYE d   1     178.931 198.641  97.340  0.00  0.00    -0.052 C 
ATOM     44  H   VYE d   1     179.554 198.798  98.221  0.00  0.00     0.030 H 
ATOM     45  H   VYE d   1     177.957 198.258  97.646  0.00  0.00     0.030 H 
ATOM     46  H   VYE d   1     179.412 197.923  96.676  0.00  0.00     0.030 H 
ENDBRANCH  25  43
ENDBRANCH   5  17
BRANCH   1  47
ATOM     47  C23 VYE d   1     179.645 201.751 102.197  0.00  0.00     0.223 C 
ATOM     48  O24 VYE d   1     178.706 201.065 102.592  0.00  0.00    -0.273 OA
ATOM     49  N25 VYE d   1     180.635 202.223 102.977  0.00  0.00    -0.361 N 
ATOM     50  H   VYE d   1     181.388 202.788 102.585  0.00  0.00     0.162 HD
BRANCH  49  51
ATOM     51  C26 VYE d   1     180.600 201.903 104.397  0.00  0.00    -0.004 C 
ATOM     52  H   VYE d   1     179.585 202.033 104.773  0.00  0.00     0.064 H 
ATOM     53  H   VYE d   1     181.276 202.567 104.935  0.00  0.00     0.064 H 
BRANCH  51  54
ATOM     54  C27 VYE d   1     181.038 200.452 104.606  0.00  0.00    -0.048 C 
ATOM     55  H   VYE d   1     180.873 199.924 103.667  0.00  0.00     0.035 H 
ATOM     56  H   VYE d   1     180.460 200.055 105.441  0.00  0.00     0.035 H 
BRANCH  54  57
ATOM     57  C28 VYE d   1     182.519 200.300 104.962  0.00  0.00    -0.060 C 
ATOM     58  H   VYE d   1     182.548 200.306 106.052  0.00  0.00     0.038 H 
BRANCH  57  59
ATOM     59  C29 VYE d   1     183.097 198.957 104.515  0.00  0.00    -0.073 C 
ATOM     60  H   VYE d   1     182.551 198.148 105.001  0.00  0.00     0.028 H 
ATOM     61  H   VYE d   1     183.001 198.864 103.433  0.00  0.00     0.028 H 
ATOM     62  H   VYE d   1     184.149 198.905 104.794  0.00  0.00     0.028 H 
ENDBRANCH  57  59
BRANCH  57  63
ATOM     63  C30 VYE d   1     183.389 201.487 104.534  0.00  0.00    -0.073 C 
ATOM     64  H   VYE d   1     183.329 201.609 103.453  0.00  0.00     0.028 H 
ATOM     65  H   VYE d   1     183.031 202.393 105.023  0.00  0.00     0.028 H 
ATOM     66  H   VYE d   1     184.423 201.300 104.823  0.00  0.00     0.028 H 
ENDBRANCH  57  63
ENDBRANCH  54  57
ENDBRANCH  51  54
ENDBRANCH  49  51
ENDBRANCH   1  47
TORSDOF 10
