REMARK  14 active torsions:
REMARK  status: ('A' for Active; 'I' for Inactive)
REMARK    1  A    between atoms: C1_1  and  C23_23 
REMARK    2  A    between atoms: C5_5  and  N7_7 
REMARK    3  A    between atoms: N10_10  and  C16_16 
REMARK    4  A    between atoms: C12_12  and  C14_14 
REMARK    5  A    between atoms: C12_12  and  C15_15 
REMARK       I    between atoms: C23_23  and  N25_25 
REMARK    6  A    between atoms: N25_25  and  C26_26 
REMARK    7  A    between atoms: C26_26  and  C27_27 
REMARK    8  A    between atoms: C26_26  and  C28_28 
REMARK    9  A    between atoms: C27_27  and  C32_32 
REMARK   10  A    between atoms: C28_28  and  C29_29 
REMARK   11  A    between atoms: C29_29  and  C30_30 
REMARK   12  A    between atoms: C29_29  and  C31_31 
REMARK   13  A    between atoms: C32_32  and  C33_33 
REMARK   14  A    between atoms: C32_32  and  C34_34 
ROOT
ATOM      1  C1  VYF d   1     179.885 202.082 100.524  0.00  0.00     0.049 C 
ATOM      2  C2  VYF d   1     179.454 203.547 100.422  0.00  0.00     0.093 C 
ATOM      3  N3  VYF d   1     179.490 204.049  99.053  0.00  0.00    -0.072 N 
ATOM      4  C4  VYF d   1     178.608 203.268  98.194  0.00  0.00     0.111 C 
ATOM      5  C5  VYF d   1     179.004 201.793  98.148  0.00  0.00     0.160 C 
ATOM      6  C6  VYF d   1     179.132 201.173  99.545  0.00  0.00    -0.021 C 
ATOM      7  H   VYF d   1     180.940 202.036 100.252  0.00  0.00     0.057 H 
ATOM      8  H   VYF d   1     180.148 204.143 101.016  0.00  0.00     0.076 H 
ATOM      9  H   VYF d   1     178.427 203.620 100.779  0.00  0.00     0.076 H 
ATOM     10  H   VYF d   1     180.444 203.975  98.700  0.00  0.00     0.277 HD
ATOM     11  H   VYF d   1     179.178 205.020  99.050  0.00  0.00     0.277 HD
ATOM     12  H   VYF d   1     178.677 203.669  97.183  0.00  0.00     0.079 H 
ATOM     13  H   VYF d   1     177.597 203.335  98.596  0.00  0.00     0.079 H 
ATOM     14  H   VYF d   1     180.011 201.751  97.733  0.00  0.00     0.091 H 
ATOM     15  H   VYF d   1     178.127 201.016  99.937  0.00  0.00     0.037 H 
ATOM     16  H   VYF d   1     179.693 200.243  99.450  0.00  0.00     0.037 H 
ENDROOT
BRANCH   1  17
ATOM     17  C23 VYF d   1     179.690 201.585 101.958  0.00  0.00     0.223 C 
ATOM     18  O24 VYF d   1     178.744 200.876 102.271  0.00  0.00    -0.273 OA
ATOM     19  N25 VYF d   1     180.651 202.005 102.802  0.00  0.00    -0.356 N 
ATOM     20  H   VYF d   1     181.418 202.595 102.480  0.00  0.00     0.162 HD
BRANCH  19  21
ATOM     21  C26 VYF d   1     180.552 201.585 104.189  0.00  0.00     0.013 C 
ATOM     22  H   VYF d   1     179.510 201.422 104.463  0.00  0.00     0.072 H 
BRANCH  21  23
ATOM     23  C27 VYF d   1     181.266 200.240 104.379  0.00  0.00    -0.043 C 
ATOM     24  H   VYF d   1     181.308 199.755 103.404  0.00  0.00     0.036 H 
ATOM     25  H   VYF d   1     180.707 199.679 105.128  0.00  0.00     0.036 H 
BRANCH  23  26
ATOM     26  C32 VYF d   1     182.705 200.367 104.886  0.00  0.00    -0.059 C 
ATOM     27  H   VYF d   1     182.658 201.013 105.763  0.00  0.00     0.038 H 
BRANCH  26  28
ATOM     28  C33 VYF d   1     183.275 199.032 105.363  0.00  0.00    -0.073 C 
ATOM     29  H   VYF d   1     182.663 198.648 106.179  0.00  0.00     0.028 H 
ATOM     30  H   VYF d   1     183.270 198.321 104.537  0.00  0.00     0.028 H 
ATOM     31  H   VYF d   1     184.297 199.179 105.712  0.00  0.00     0.028 H 
ENDBRANCH  26  28
BRANCH  26  32
ATOM     32  C34 VYF d   1     183.626 201.077 103.895  0.00  0.00    -0.073 C 
ATOM     33  H   VYF d   1     183.652 200.518 102.960  0.00  0.00     0.028 H 
ATOM     34  H   VYF d   1     183.250 202.083 103.708  0.00  0.00     0.028 H 
ATOM     35  H   VYF d   1     184.631 201.135 104.313  0.00  0.00     0.028 H 
ENDBRANCH  26  32
ENDBRANCH  23  26
ENDBRANCH  21  23
BRANCH  21  36
ATOM     36  C28 VYF d   1     181.068 202.692 105.109  0.00  0.00    -0.043 C 
ATOM     37  H   VYF d   1     182.126 202.839 104.894  0.00  0.00     0.036 H 
ATOM     38  H   VYF d   1     180.885 202.383 106.138  0.00  0.00     0.036 H 
BRANCH  36  39
ATOM     39  C29 VYF d   1     180.355 204.029 104.887  0.00  0.00    -0.059 C 
ATOM     40  H   VYF d   1     180.379 204.204 103.811  0.00  0.00     0.038 H 
BRANCH  39  41
ATOM     41  C30 VYF d   1     181.095 205.205 105.524  0.00  0.00    -0.073 C 
ATOM     42  H   VYF d   1     181.175 205.043 106.599  0.00  0.00     0.028 H 
ATOM     43  H   VYF d   1     182.093 205.282 105.092  0.00  0.00     0.028 H 
ATOM     44  H   VYF d   1     180.543 206.126 105.334  0.00  0.00     0.028 H 
ENDBRANCH  39  41
BRANCH  39  45
ATOM     45  C31 VYF d   1     178.876 203.985 105.271  0.00  0.00    -0.073 C 
ATOM     46  H   VYF d   1     178.368 203.233 104.668  0.00  0.00     0.028 H 
ATOM     47  H   VYF d   1     178.784 203.730 106.327  0.00  0.00     0.028 H 
ATOM     48  H   VYF d   1     178.426 204.961 105.091  0.00  0.00     0.028 H 
ENDBRANCH  39  45
ENDBRANCH  36  39
ENDBRANCH  21  36
ENDBRANCH  19  21
ENDBRANCH   1  17
BRANCH   5  49
ATOM     49  N7  VYF d   1     178.185 201.014  97.210  0.00  0.00     0.114 N 
ATOM     50  C8  VYF d   1     177.067 200.372  97.860  0.00  0.00     0.187 C 
ATOM     51  C9  VYF d   1     176.072 199.837  96.832  0.00  0.00     0.253 C 
ATOM     52  H   VYF d   1     176.561 201.103  98.490  0.00  0.00     0.095 H 
ATOM     53  H   VYF d   1     177.439 199.538  98.454  0.00  0.00     0.095 H 
ATOM     54  N10 VYF d   1     176.624 199.350  95.674  0.00  0.00    -0.312 N 
ATOM     55  O13 VYF d   1     174.870 199.856  97.053  0.00  0.00    -0.271 OA
ATOM     56  C11 VYF d   1     178.087 199.341  95.437  0.00  0.00     0.036 C 
ATOM     57  C12 VYF d   1     178.967 200.026  96.488  0.00  0.00     0.170 C 
ATOM     58  H   VYF d   1     178.242 199.896  94.512  0.00  0.00     0.069 H 
ATOM     59  H   VYF d   1     178.382 198.292  95.440  0.00  0.00     0.069 H 
BRANCH  54  60
ATOM     60  C16 VYF d   1     175.786 198.847  94.691  0.00  0.00     0.059 A 
ATOM     61  C17 VYF d   1     175.435 197.508  94.605  0.00  0.00     0.060 A 
ATOM     62  C18 VYF d   1     174.596 197.033  93.615  0.00  0.00    -0.060 A 
ATOM     63 CL1  VYF d   1     176.049 196.393  95.774  0.00  0.00    -0.082 Cl
ATOM     64  C19 VYF d   1     174.100 197.924  92.671  0.00  0.00    -0.081 A 
ATOM     65  H   VYF d   1     174.328 195.977  93.575  0.00  0.00     0.086 H 
ATOM     66  C20 VYF d   1     174.444 199.274  92.740  0.00  0.00    -0.081 A 
ATOM     67  H   VYF d   1     173.443 197.568  91.877  0.00  0.00     0.083 H 
ATOM     68  C21 VYF d   1     175.291 199.736  93.746  0.00  0.00    -0.055 A 
ATOM     69  H   VYF d   1     174.048 199.972  92.002  0.00  0.00     0.083 H 
ATOM     70  H   VYF d   1     175.564 200.790  93.791  0.00  0.00     0.087 H 
ENDBRANCH  54  60
BRANCH  57  71
ATOM     71  C14 VYF d   1     179.506 198.967  97.455  0.00  0.00    -0.041 C 
ATOM     72  H   VYF d   1     180.139 199.447  98.202  0.00  0.00     0.031 H 
ATOM     73  H   VYF d   1     178.671 198.470  97.950  0.00  0.00     0.031 H 
ATOM     74  H   VYF d   1     180.090 198.233  96.900  0.00  0.00     0.031 H 
ENDBRANCH  57  71
BRANCH  57  75
ATOM     75  C15 VYF d   1     180.138 200.716  95.787  0.00  0.00    -0.041 C 
ATOM     76  H   VYF d   1     179.754 201.459  95.087  0.00  0.00     0.031 H 
ATOM     77  H   VYF d   1     180.767 201.206  96.530  0.00  0.00     0.031 H 
ATOM     78  H   VYF d   1     180.724 199.974  95.246  0.00  0.00     0.031 H 
ENDBRANCH  57  75
ENDBRANCH   5  49
TORSDOF 14
