REMARK  3 active torsions:
REMARK  status: ('A' for Active; 'I' for Inactive)
REMARK    1  A    between atoms: C12_3  and  O20_4 
REMARK    2  A    between atoms: C10_7  and  N6_8 
REMARK    3  A    between atoms: N6_8  and  C2_9 
ROOT
ATOM      1  C2  UUL d   1       2.230 -33.886  -7.970  0.00  0.00     0.171 A 
ATOM      2  N1  UUL d   1       1.425 -34.128  -6.913  0.00  0.00    -0.223 NA
ATOM      3  S4  UUL d   1       2.405 -35.348  -8.870  0.00  0.00    -0.061 SA
ATOM      4  C5  UUL d   1       1.365 -36.236  -7.831  0.00  0.00    -0.013 A 
ATOM      5  C3  UUL d   1       0.980 -35.416  -6.804  0.00  0.00     0.076 A 
ATOM      6  C7  UUL d   1       0.158 -35.807  -5.749  0.00  0.00    -0.007 A 
ATOM      7  C8  UUL d   1      -0.017 -34.919  -4.683  0.00  0.00    -0.069 A 
ATOM      8  C14 UUL d   1      -0.857 -35.223  -3.616  0.00  0.00    -0.061 A 
ATOM      9  C11 UUL d   1      -1.515 -36.458  -3.600  0.00  0.00     0.034 A 
ATOM     10 CL   UUL d   1      -2.547 -36.828  -2.256  0.00  0.00    -0.084 Cl
ATOM     11  C13 UUL d   1      -1.333 -37.338  -4.663  0.00  0.00    -0.061 A 
ATOM     12  C9  UUL d   1      -0.508 -37.040  -5.739  0.00  0.00    -0.069 A 
ATOM     13  H7  UUL d   1       1.063 -37.274  -7.966  0.00  0.00     0.098 H 
ATOM     14  H8  UUL d   1       0.513 -33.974  -4.688  0.00  0.00     0.085 H 
ATOM     15  H9  UUL d   1      -1.000 -34.514  -2.809  0.00  0.00     0.086 H 
ATOM     16  H10 UUL d   1      -1.853 -38.289  -4.650  0.00  0.00     0.086 H 
ATOM     17  H11 UUL d   1      -0.382 -37.745  -6.553  0.00  0.00     0.085 H 
ENDROOT
BRANCH   1  18
ATOM     18  N6  UUL d   1       2.786 -32.708  -8.319  0.00  0.00    -0.335 N 
ATOM     19  H6  UUL d   1       3.348 -32.700  -9.182  0.00  0.00     0.168 HD
BRANCH  18  20
ATOM     20  C10 UUL d   1       2.681 -31.538  -7.652  0.00  0.00     0.034 A 
ATOM     21  C16 UUL d   1       1.559 -31.153  -6.887  0.00  0.00    -0.055 A 
ATOM     22  C19 UUL d   1       1.533 -29.921  -6.226  0.00  0.00    -0.049 A 
ATOM     23  H1  UUL d   1       0.708 -31.820  -6.811  0.00  0.00     0.087 H 
ATOM     24  C12 UUL d   1       2.664 -29.104  -6.336  0.00  0.00     0.065 A 
ATOM     25  H2  UUL d   1       0.669 -29.610  -5.650  0.00  0.00     0.087 H 
ATOM     26  C18 UUL d   1       3.778 -29.490  -7.073  0.00  0.00    -0.049 A 
ATOM     27  C17 UUL d   1       3.792 -30.706  -7.718  0.00  0.00    -0.055 A 
ATOM     28  H4  UUL d   1       4.637 -28.832  -7.140  0.00  0.00     0.087 H 
ATOM     29  H5  UUL d   1       4.668 -31.014  -8.277  0.00  0.00     0.087 H 
BRANCH  24  30
ATOM     30  O20 UUL d   1       2.735 -27.920  -5.692  0.00  0.00    -0.361 OA
ATOM     31  H3  UUL d   1       3.569 -27.507  -5.882  0.00  0.00     0.217 HD
ENDBRANCH  24  30
ENDBRANCH  18  20
ENDBRANCH   1  18
TORSDOF 3
