REMARK  11 active torsions:
REMARK  status: ('A' for Active; 'I' for Inactive)
REMARK    1  A    between atoms: N_1  and  CA_2 
REMARK    2  A    between atoms: CA_2  and  C_3 
REMARK    3  A    between atoms: CA_2  and  CB_5 
REMARK    4  A    between atoms: CB_5  and  OG1_6 
REMARK    5  A    between atoms: CB_5  and  CG2_7 
REMARK    6  A    between atoms: OG1_6  and  C1_9 
REMARK    7  A    between atoms: C2_10  and  O2_15 
REMARK    8  A    between atoms: C3_11  and  O3_16 
REMARK    9  A    between atoms: C4_12  and  O4_17 
REMARK   10  A    between atoms: C5_13  and  C6_14 
REMARK   11  A    between atoms: C6_14  and  O6_19 
ROOT
ATOM      1  H   THR d   1      22.954   2.479   9.679  0.00  0.00     0.133 H 
ATOM      2  H   THR d   1      22.258   1.986  12.081  0.00  0.00     0.094 H 
ATOM      3  H   THR d   1      19.929   1.550  11.899  0.00  0.00     0.091 H 
ATOM      4  H   THR d   1      19.468   4.349  10.788  0.00  0.00     0.091 H 
ATOM      5  H   THR d   1      19.337   1.693   9.302  0.00  0.00     0.090 H 
ATOM      6  C1  MAN d   1      21.932   2.193   9.967  0.00  0.00     0.159 C 
ATOM      7  C2  MAN d   1      21.701   2.656  11.410  0.00  0.00     0.110 C 
ATOM      8  C3  MAN d   1      20.221   2.607  11.806  0.00  0.00     0.092 C 
ATOM      9  C4  MAN d   1      19.312   3.260  10.763  0.00  0.00     0.090 C 
ATOM     10  C5  MAN d   1      19.627   2.753   9.352  0.00  0.00     0.089 C 
ATOM     11  O5  MAN d   1      21.029   2.857   9.061  0.00  0.00    -0.348 OA
ENDROOT
BRANCH   6  12
ATOM     12  OG1 THR d   1      21.846   0.760   9.891  0.00  0.00    -0.351 OA
BRANCH  12  13
ATOM     13  CB  THR d   1      22.095   0.200   8.593  0.00  0.00     0.075 C 
ATOM     14  H   THR d   1      21.772   0.932   7.839  0.00  0.00     0.086 H 
BRANCH  13  15
ATOM     15  CA  THR d   1      23.593  -0.065   8.353  0.00  0.00     0.206 C 
ATOM     16  H   THR d   1      24.073   0.906   8.164  0.00  0.00     0.105 H 
BRANCH  15  17
ATOM     17  N   THR d   1      23.805  -0.900   7.180  0.00  0.00    -0.063 N 
ATOM     18  H   THR d   1      24.793  -1.054   7.051  0.00  0.00     0.275 HD
ATOM     19  H   THR d   1      23.428  -0.439   6.367  0.00  0.00     0.275 HD
ATOM     20  H   THR d   1      23.341  -1.785   7.309  0.00  0.00     0.275 HD
ENDBRANCH  15  17
BRANCH  15  21
ATOM     21  C   THR d   1      24.256  -0.674   9.560  0.00  0.00     0.207 C 
ATOM     22  O   THR d   1      24.219  -1.915   9.718  0.00  0.00    -0.646 OA
ATOM     23  OXT THR d   1      24.827   0.098  10.362  0.00  0.00    -0.646 OA
ENDBRANCH  15  21
ENDBRANCH  13  15
BRANCH  13  24
ATOM     24  CG2 THR d   1      21.229  -1.050   8.432  0.00  0.00    -0.050 C 
ATOM     25  H   THR d   1      20.175  -0.792   8.616  0.00  0.00     0.031 H 
ATOM     26  H   THR d   1      21.551  -1.815   9.154  0.00  0.00     0.031 H 
ATOM     27  H   THR d   1      21.337  -1.442   7.410  0.00  0.00     0.031 H 
ENDBRANCH  13  24
ENDBRANCH  12  13
ENDBRANCH   6  12
BRANCH   7  28
ATOM     28  O2  MAN d   1      22.206   3.988  11.566  0.00  0.00    -0.388 OA
ATOM     29  H   THR d   1      22.116   4.256  12.473  0.00  0.00     0.210 HD
ENDBRANCH   7  28
BRANCH   8  30
ATOM     30  O3  MAN d   1      20.032   3.246  13.075  0.00  0.00    -0.390 OA
ATOM     31  H   THR d   1      20.248   4.168  12.999  0.00  0.00     0.210 HD
ENDBRANCH   8  30
BRANCH  10  32
ATOM     32  C6  MAN d   1      18.848   3.516   8.284  0.00  0.00     0.043 C 
ATOM     33  H   THR d   1      17.794   3.591   8.589  0.00  0.00     0.078 H 
ATOM     34  H   THR d   1      18.916   2.974   7.330  0.00  0.00     0.078 H 
BRANCH  32  35
ATOM     35  O6  MAN d   1      19.385   4.832   8.117  0.00  0.00    -0.398 OA
ATOM     36  H   THR d   1      19.326   5.304   8.940  0.00  0.00     0.209 HD
ENDBRANCH  32  35
ENDBRANCH  10  32
BRANCH   9  37
ATOM     37  O4  MAN d   1      17.947   2.973  11.091  0.00  0.00    -0.390 OA
ATOM     38  H   THR d   1      17.375   3.405  10.467  0.00  0.00     0.210 HD
ENDBRANCH   9  37
TORSDOF 11
