REMARK  10 active torsions:
REMARK  status: ('A' for Active; 'I' for Inactive)
REMARK       I    between atoms: C42_2  and  N5_3 
REMARK    1  A    between atoms: C42_2  and  C37_13 
REMARK    2  A    between atoms: C4_4  and  C6_5 
REMARK       I    between atoms: C6_5  and  N7_7 
REMARK    3  A    between atoms: N7_7  and  C9_8 
REMARK    4  A    between atoms: N7_7  and  C8_9 
REMARK    5  A    between atoms: C38_14  and  C39_15 
REMARK    6  A    between atoms: C39_15  and  C41_16 
REMARK    7  A    between atoms: C39_15  and  C40_17 
REMARK    8  A    between atoms: C31_19  and  C24_20 
REMARK    9  A    between atoms: C32_30  and  C44_31 
REMARK   10  A    between atoms: C32_30  and  C15_32 
ROOT
ATOM      1  C37 VZV d   1       9.152  -3.352 -30.105  0.00  0.00     0.095 C 
ATOM      2  C38 VZV d   1      10.261  -3.498 -29.045  0.00  0.00     0.038 C 
ATOM      3  N35 VZV d   1       9.508  -2.942 -27.898  0.00  0.00    -0.342 N 
ATOM      4  C31 VZV d   1       9.903  -2.780 -26.539  0.00  0.00     0.070 C 
ATOM      5  S36 VZV d   1       8.075  -2.126 -29.781  0.00  0.00    -0.076 SA
ATOM      6  C34 VZV d   1       8.684  -1.904 -28.197  0.00  0.00     0.162 C 
ATOM      7  N33 VZV d   1       8.537  -1.018 -27.351  0.00  0.00    -0.249 NA
ATOM      8  C32 VZV d   1       9.390  -1.349 -26.178  0.00  0.00     0.104 C 
ATOM      9  H14 VZV d   1       8.528  -4.163 -29.702  0.00  0.00     0.075 H 
ATOM     10  H15 VZV d   1      11.079  -2.821 -29.332  0.00  0.00     0.075 H 
ATOM     11  H23 VZV d   1      11.000  -2.800 -26.457  0.00  0.00     0.085 H 
ENDROOT
BRANCH   1  12
ATOM     12  C42 VZV d   1       9.208  -3.950 -31.502  0.00  0.00     0.236 C 
ATOM     13  O43 VZV d   1      10.151  -3.554 -32.201  0.00  0.00    -0.272 OA
ATOM     14  N5  VZV d   1       8.235  -4.792 -31.998  0.00  0.00    -0.338 N 
ATOM     15  C4  VZV d   1       8.177  -5.234 -33.398  0.00  0.00     0.092 C 
ATOM     16  C1  VZV d   1       7.054  -5.250 -31.218  0.00  0.00    -0.001 C 
ATOM     17  C3  VZV d   1       7.085  -6.289 -33.344  0.00  0.00    -0.036 C 
ATOM     18  H1  VZV d   1       9.126  -5.658 -33.757  0.00  0.00     0.087 H 
ATOM     19  C2  VZV d   1       6.833  -6.603 -31.858  0.00  0.00    -0.048 C 
ATOM     20  H8  VZV d   1       7.411  -7.197 -33.872  0.00  0.00     0.036 H 
ATOM     21  H9  VZV d   1       6.165  -5.905 -33.810  0.00  0.00     0.036 H 
ATOM     22  H10 VZV d   1       7.548  -7.348 -31.479  0.00  0.00     0.035 H 
ATOM     23  H11 VZV d   1       5.807  -6.962 -31.692  0.00  0.00     0.035 H 
ATOM     24  H12 VZV d   1       6.189  -4.585 -31.357  0.00  0.00     0.064 H 
ATOM     25  H13 VZV d   1       7.281  -5.337 -30.145  0.00  0.00     0.064 H 
BRANCH  15  26
ATOM     26  C6  VZV d   1       7.787  -3.940 -34.239  0.00  0.00     0.242 C 
ATOM     27  O10 VZV d   1       7.982  -4.004 -35.473  0.00  0.00    -0.271 OA
ATOM     28  N7  VZV d   1       7.271  -2.716 -33.698  0.00  0.00    -0.359 N 
BRANCH  28  29
ATOM     29  C9  VZV d   1       5.907  -2.537 -33.019  0.00  0.00    -0.017 C 
ATOM     30  H2  VZV d   1       5.788  -1.489 -32.706  0.00  0.00     0.056 H 
ATOM     31  H3  VZV d   1       5.848  -3.192 -32.137  0.00  0.00     0.056 H 
ATOM     32  H4  VZV d   1       5.107  -2.801 -33.727  0.00  0.00     0.056 H 
ENDBRANCH  28  29
BRANCH  28  33
ATOM     33  C8  VZV d   1       8.105  -1.456 -33.804  0.00  0.00    -0.017 C 
ATOM     34  H5  VZV d   1       9.058  -1.688 -34.302  0.00  0.00     0.056 H 
ATOM     35  H6  VZV d   1       8.305  -1.062 -32.796  0.00  0.00     0.056 H 
ATOM     36  H7  VZV d   1       7.558  -0.703 -34.390  0.00  0.00     0.056 H 
ENDBRANCH  28  33
ENDBRANCH  15  26
ENDBRANCH   1  12
BRANCH   2  37
ATOM     37  C39 VZV d   1      10.965  -4.837 -28.652  0.00  0.00    -0.040 C 
ATOM     38  H16 VZV d   1      10.784  -4.927 -27.571  0.00  0.00     0.042 H 
BRANCH  37  39
ATOM     39  C41 VZV d   1      10.510  -6.186 -29.205  0.00  0.00    -0.071 C 
ATOM     40  H17 VZV d   1      11.146  -6.984 -28.794  0.00  0.00     0.028 H 
ATOM     41  H18 VZV d   1      10.592  -6.179 -30.302  0.00  0.00     0.028 H 
ATOM     42  H19 VZV d   1       9.464  -6.366 -28.917  0.00  0.00     0.028 H 
ENDBRANCH  37  39
BRANCH  37  43
ATOM     43  C40 VZV d   1      12.481  -4.653 -28.821  0.00  0.00    -0.071 C 
ATOM     44  H20 VZV d   1      12.779  -3.675 -28.415  0.00  0.00     0.028 H 
ATOM     45  H21 VZV d   1      12.739  -4.700 -29.889  0.00  0.00     0.028 H 
ATOM     46  H22 VZV d   1      13.010  -5.452 -28.280  0.00  0.00     0.028 H 
ENDBRANCH  37  43
ENDBRANCH   2  37
BRANCH   4  47
ATOM     47  C24 VZV d   1       9.354  -3.914 -25.691  0.00  0.00    -0.032 A 
ATOM     48  C23 VZV d   1      10.178  -4.357 -24.670  0.00  0.00    -0.073 A 
ATOM     49  C22 VZV d   1       9.702  -5.356 -23.872  0.00  0.00    -0.061 A 
ATOM     50  H24 VZV d   1      11.161  -3.928 -24.511  0.00  0.00     0.084 H 
ATOM     51  C21 VZV d   1       8.441  -5.920 -24.103  0.00  0.00     0.034 A 
ATOM     52  H25 VZV d   1      10.307  -5.718 -23.049  0.00  0.00     0.086 H 
ATOM     53  C26 VZV d   1       7.622  -5.506 -25.140  0.00  0.00    -0.061 A 
ATOM     54 CL2  VZV d   1       7.961  -7.187 -22.974  0.00  0.00    -0.084 Cl
ATOM     55  C25 VZV d   1       8.094  -4.482 -25.954  0.00  0.00    -0.073 A 
ATOM     56  H27 VZV d   1       6.653  -5.961 -25.310  0.00  0.00     0.086 H 
ATOM     57  H26 VZV d   1       7.496  -4.124 -26.784  0.00  0.00     0.084 H 
ENDBRANCH   4  47
BRANCH   8  58
ATOM     58  C44 VZV d   1      10.590  -0.380 -26.102  0.00  0.00    -0.045 C 
ATOM     59  H28 VZV d   1      10.231   0.628 -25.848  0.00  0.00     0.031 H 
ATOM     60  H29 VZV d   1      11.102  -0.353 -27.075  0.00  0.00     0.031 H 
ATOM     61  H30 VZV d   1      11.292  -0.725 -25.328  0.00  0.00     0.031 H 
ENDBRANCH   8  58
BRANCH   8  62
ATOM     62  C15 VZV d   1       8.636  -1.326 -24.803  0.00  0.00    -0.026 A 
ATOM     63  C16 VZV d   1       9.435  -1.280 -23.651  0.00  0.00    -0.073 A 
ATOM     64  C11 VZV d   1       8.880  -1.284 -22.389  0.00  0.00    -0.061 A 
ATOM     65  H31 VZV d   1      10.513  -1.240 -23.755  0.00  0.00     0.084 H 
ATOM     66  C12 VZV d   1       7.513  -1.342 -22.276  0.00  0.00     0.034 A 
ATOM     67  H32 VZV d   1       9.508  -1.242 -21.507  0.00  0.00     0.086 H 
ATOM     68  C13 VZV d   1       6.691  -1.396 -23.405  0.00  0.00    -0.061 A 
ATOM     69 CL1  VZV d   1       6.851  -1.315 -20.641  0.00  0.00    -0.084 Cl
ATOM     70  C14 VZV d   1       7.235  -1.390 -24.672  0.00  0.00    -0.073 A 
ATOM     71  H34 VZV d   1       5.615  -1.443 -23.283  0.00  0.00     0.086 H 
ATOM     72  H33 VZV d   1       6.598  -1.434 -25.548  0.00  0.00     0.084 H 
ENDBRANCH   8  62
TORSDOF 10
