REMARK  11 active torsions:
REMARK  status: ('A' for Active; 'I' for Inactive)
REMARK    1  A    between atoms: C1_1  and  C2_2 
REMARK    2  A    between atoms: C1_1  and  O1_7 
REMARK    3  A    between atoms: C2_2  and  C3_3 
REMARK    4  A    between atoms: C3_3  and  C4_4 
REMARK    5  A    between atoms: C3_3  and  O3_9 
REMARK    6  A    between atoms: C4_4  and  C5_5 
REMARK    7  A    between atoms: C4_4  and  O4_10 
REMARK    8  A    between atoms: C5_5  and  C6_6 
REMARK    9  A    between atoms: C5_5  and  O5_11 
REMARK   10  A    between atoms: C6_6  and  O6_12 
REMARK   11  A    between atoms: O6_12  and  P_13 
ROOT
ATOM      1  C4  F6R d   1      -7.442  26.328  16.158  0.00  0.00     0.093 C 
ATOM      2  H4  F6R d   1      -7.144  25.964  17.152  0.00  0.00     0.091 H 
ENDROOT
BRANCH   1   3
ATOM      3  C3  F6R d   1      -7.030  27.759  15.993  0.00  0.00     0.122 C 
ATOM      4  H3  F6R d   1      -7.808  28.447  16.357  0.00  0.00     0.099 H 
BRANCH   3   5
ATOM      5  C2  F6R d   1      -5.745  27.955  16.723  0.00  0.00     0.181 C 
ATOM      6  O2  F6R d   1      -4.767  27.369  16.327  0.00  0.00    -0.293 OA
BRANCH   5   7
ATOM      7  C1  F6R d   1      -5.647  28.810  17.935  0.00  0.00     0.074 C 
ATOM      8  H1  F6R d   1      -6.223  28.352  18.753  0.00  0.00     0.085 H 
ATOM      9  H2  F6R d   1      -6.055  29.807  17.713  0.00  0.00     0.085 H 
BRANCH   7  10
ATOM     10  O1  F6R d   1      -4.336  28.928  18.312  0.00  0.00    -0.393 OA
ATOM     11  H8  F6R d   1      -3.984  28.067  18.504  0.00  0.00     0.209 HD
ENDBRANCH   7  10
ENDBRANCH   5   7
ENDBRANCH   3   5
BRANCH   3  12
ATOM     12  O3  F6R d   1      -6.769  27.949  14.648  0.00  0.00    -0.385 OA
ATOM     13  H9  F6R d   1      -6.072  27.364  14.376  0.00  0.00     0.210 HD
ENDBRANCH   3  12
ENDBRANCH   1   3
BRANCH   1  14
ATOM     14  C5  F6R d   1      -8.944  26.203  16.022  0.00  0.00     0.084 C 
ATOM     15  H5  F6R d   1      -9.259  26.670  15.077  0.00  0.00     0.090 H 
BRANCH  14  16
ATOM     16  C6  F6R d   1      -9.306  24.768  16.011  0.00  0.00     0.059 C 
ATOM     17  H6  F6R d   1      -8.552  24.182  16.557  0.00  0.00     0.079 H 
ATOM     18  H7  F6R d   1      -9.375  24.402  14.976  0.00  0.00     0.079 H 
BRANCH  16  19
ATOM     19  O6  F6R d   1     -10.540  24.665  16.639  0.00  0.00    -0.280 OA
BRANCH  19  20
ATOM     20  P   F6R d   1     -10.692  23.767  17.905  0.00  0.00     0.422 P 
ATOM     21  O1P F6R d   1      -9.766  22.595  17.772  0.00  0.00    -0.617 OA
ATOM     22  O2P F6R d   1     -10.337  24.540  19.143  0.00  0.00    -0.617 OA
ATOM     23  O3P F6R d   1     -12.128  23.309  17.986  0.00  0.00    -0.617 OA
ENDBRANCH  19  20
ENDBRANCH  16  19
ENDBRANCH  14  16
BRANCH  14  24
ATOM     24  O5  F6R d   1      -9.596  26.818  17.066  0.00  0.00    -0.391 OA
ATOM     25  H11 F6R d   1     -10.534  26.723  16.952  0.00  0.00     0.210 HD
ENDBRANCH  14  24
ENDBRANCH   1  14
BRANCH   1  26
ATOM     26  O4  F6R d   1      -6.769  25.611  15.181  0.00  0.00    -0.390 OA
ATOM     27  H10 F6R d   1      -7.017  25.936  14.324  0.00  0.00     0.210 HD
ENDBRANCH   1  26
TORSDOF 11
