REMARK  9 active torsions:
REMARK  status: ('A' for Active; 'I' for Inactive)
REMARK    1  A    between atoms: S_2  and  N3_4 
REMARK    2  A    between atoms: S_2  and  C12_5 
REMARK    3  A    between atoms: C13_7  and  C14_8 
REMARK    4  A    between atoms: C10_11  and  C7_12 
REMARK    5  A    between atoms: C3_17  and  O1_18 
REMARK    6  A    between atoms: O1_18  and  C2_19 
REMARK    7  A    between atoms: C2_19  and  C1_20 
REMARK    8  A    between atoms: C4_23  and  C17_24 
REMARK    9  A    between atoms: N4_27  and  C19_28 
ROOT
ATOM      1  C7  1O5 d   1       0.011 -33.812  -9.821  0.00  0.00     0.073 A 
ATOM      2  N2  1O5 d   1      -0.188 -32.477  -9.651  0.00  0.00    -0.276 N 
ATOM      3  N1  1O5 d   1       0.439 -31.753 -10.678  0.00  0.00    -0.174 NA
ATOM      4  C8  1O5 d   1       0.829 -33.951 -11.036  0.00  0.00     0.026 A 
ATOM      5  C9  1O5 d   1       1.327 -35.065 -11.688  0.00  0.00    -0.035 A 
ATOM      6  C3  1O5 d   1       2.064 -34.872 -12.852  0.00  0.00     0.081 A 
ATOM      7  C6  1O5 d   1       1.052 -32.581 -11.533  0.00  0.00     0.090 A 
ATOM      8  C5  1O5 d   1       1.787 -32.390 -12.694  0.00  0.00    -0.039 A 
ATOM      9  C4  1O5 d   1       2.315 -33.488 -13.357  0.00  0.00     0.013 A 
ATOM     10  H9  1O5 d   1      -0.723 -32.056  -8.878  0.00  0.00     0.189 HD
ATOM     11  H10 1O5 d   1       1.148 -36.062 -11.302  0.00  0.00     0.089 H 
ATOM     12  H16 1O5 d   1       1.948 -31.390 -13.080  0.00  0.00     0.088 H 
ENDROOT
BRANCH   1  13
ATOM     13  C10 1O5 d   1      -0.474 -34.908  -8.936  0.00  0.00    -0.005 A 
ATOM     14  C11 1O5 d   1      -0.602 -34.624  -7.593  0.00  0.00    -0.048 A 
ATOM     15  C12 1O5 d   1      -1.042 -35.598  -6.709  0.00  0.00     0.086 A 
ATOM     16  H3  1O5 d   1      -0.357 -33.634  -7.226  0.00  0.00     0.087 H 
ATOM     17  C13 1O5 d   1      -1.367 -36.970  -7.239  0.00  0.00    -0.039 A 
ATOM     18  C15 1O5 d   1      -1.222 -37.214  -8.598  0.00  0.00    -0.075 A 
ATOM     19  C16 1O5 d   1      -0.779 -36.181  -9.426  0.00  0.00    -0.070 A 
ATOM     20  H7  1O5 d   1      -1.449 -38.191  -9.009  0.00  0.00     0.084 H 
ATOM     21  H8  1O5 d   1      -0.668 -36.373 -10.487  0.00  0.00     0.084 H 
BRANCH  15  22
ATOM     22  S   1O5 d   1      -1.154 -35.186  -5.157  0.00  0.00     0.257 S 
ATOM     23  O3  1O5 d   1      -0.238 -36.067  -4.477  0.00  0.00    -0.201 OA
ATOM     24  O2  1O5 d   1      -0.842 -33.790  -4.889  0.00  0.00    -0.201 OA
BRANCH  22  25
ATOM     25  N3  1O5 d   1      -2.660 -35.395  -4.632  0.00  0.00    -0.324 N 
ATOM     26  H1  1O5 d   1      -3.098 -36.291  -4.712  0.00  0.00     0.169 HD
ATOM     27  H2  1O5 d   1      -3.159 -34.629  -4.226  0.00  0.00     0.169 HD
ENDBRANCH  22  25
ENDBRANCH  15  22
BRANCH  17  28
ATOM     28  C14 1O5 d   1      -1.850 -38.101  -6.382  0.00  0.00    -0.050 C 
ATOM     29  H4  1O5 d   1      -2.014 -38.991  -7.008  0.00  0.00     0.033 H 
ATOM     30  H5  1O5 d   1      -2.795 -37.815  -5.896  0.00  0.00     0.033 H 
ATOM     31  H6  1O5 d   1      -1.096 -38.327  -5.614  0.00  0.00     0.033 H 
ENDBRANCH  17  28
ENDBRANCH   1  13
BRANCH   6  32
ATOM     32  O1  1O5 d   1       2.572 -35.942 -13.535  0.00  0.00    -0.351 OA
BRANCH  32  33
ATOM     33  C2  1O5 d   1       2.334 -37.280 -13.113  0.00  0.00     0.023 C 
ATOM     34  H11 1O5 d   1       1.339 -37.612 -13.445  0.00  0.00     0.074 H 
ATOM     35  H12 1O5 d   1       2.397 -37.350 -12.017  0.00  0.00     0.074 H 
BRANCH  33  36
ATOM     36  C1  1O5 d   1       3.408 -38.129 -13.753  0.00  0.00    -0.056 C 
ATOM     37  H13 1O5 d   1       3.269 -39.179 -13.457  0.00  0.00     0.030 H 
ATOM     38  H14 1O5 d   1       4.397 -37.782 -13.420  0.00  0.00     0.030 H 
ATOM     39  H15 1O5 d   1       3.339 -38.044 -14.848  0.00  0.00     0.030 H 
ENDBRANCH  33  36
ENDBRANCH  32  33
ENDBRANCH   6  32
BRANCH   9  40
ATOM     40  C17 1O5 d   1       3.091 -33.287 -14.613  0.00  0.00     0.013 A 
ATOM     41  C20 1O5 d   1       4.129 -34.086 -15.082  0.00  0.00     0.034 A 
ATOM     42  N5  1O5 d   1       4.544 -33.584 -16.260  0.00  0.00    -0.185 NA
ATOM     43  H17 1O5 d   1       4.535 -34.965 -14.583  0.00  0.00     0.118 H 
ATOM     44  N4  1O5 d   1       3.727 -32.477 -16.516  0.00  0.00    -0.285 N 
ATOM     45  C18 1O5 d   1       2.850 -32.284 -15.543  0.00  0.00     0.010 A 
ATOM     46  H21 1O5 d   1       2.096 -31.501 -15.484  0.00  0.00     0.115 H 
BRANCH  44  47
ATOM     47  C19 1O5 d   1       4.010 -31.759 -17.781  0.00  0.00     0.002 C 
ATOM     48  H18 1O5 d   1       3.316 -30.912 -17.885  0.00  0.00     0.059 H 
ATOM     49  H19 1O5 d   1       3.879 -32.446 -18.630  0.00  0.00     0.059 H 
ATOM     50  H20 1O5 d   1       5.045 -31.386 -17.767  0.00  0.00     0.059 H 
ENDBRANCH  44  47
ENDBRANCH   9  40
TORSDOF 9
