REMARK  12 active torsions:
REMARK  status: ('A' for Active; 'I' for Inactive)
REMARK    1  A    between atoms: N3_2  and  C7_6 
REMARK       I    between atoms: C8_7  and  N3_2 
REMARK    2  A    between atoms: C7_6  and  C6_5 
REMARK    3  A    between atoms: C6_5  and  N2_33 
REMARK    4  A    between atoms: C9_35  and  C8_7 
REMARK    5  A    between atoms: N4_27  and  C10_8 
REMARK    6  A    between atoms: C13_9  and  O1_22 
REMARK    7  A    between atoms: C20_12  and  C22_14 
REMARK    8  A    between atoms: C23_36  and  C24_15 
REMARK    9  A    between atoms: O1_22  and  C16_21 
REMARK   10  A    between atoms: C9_35  and  C23_36 
REMARK   11  A    between atoms: C23_36  and  O2_37 
REMARK   12  A    between atoms: C23_36  and  C25_38 
ROOT
ATOM      1  N1  03P d   1     -52.151   2.122 -22.870  0.00  0.00    -0.222 NA
ATOM      2  C4  03P d   1     -50.569   1.185 -18.786  0.00  0.00    -0.018 A 
ATOM      3  C5  03P d   1     -51.778   1.847 -18.810  0.00  0.00    -0.038 A 
ATOM      4  N4  03P d   1     -50.101   1.038 -23.218  0.00  0.00    -0.339 N 
ATOM      5  C1  03P d   1     -51.032   1.518 -22.355  0.00  0.00     0.159 A 
ATOM      6  C   03P d   1     -53.140   2.633 -22.108  0.00  0.00     0.089 A 
ATOM      7  C3  03P d   1     -50.947   1.442 -20.952  0.00  0.00     0.110 A 
ATOM      8  C2  03P d   1     -51.975   1.983 -20.210  0.00  0.00     0.090 A 
ATOM      9  N   03P d   1     -53.058   2.573 -20.768  0.00  0.00    -0.240 NA
ATOM     10  N2  03P d   1     -50.063   0.945 -20.026  0.00  0.00    -0.350 N 
ATOM     11  H2  03P d   1     -50.069   0.884 -17.866  0.00  0.00     0.111 H 
ATOM     12  H3  03P d   1     -52.408   2.175 -17.984  0.00  0.00     0.089 H 
ATOM     13  H18 03P d   1     -49.400   0.381 -22.847  0.00  0.00     0.167 HD
ATOM     14  H19 03P d   1     -54.002   3.093 -22.577  0.00  0.00     0.146 H 
ENDROOT
BRANCH   4  15
ATOM     15  C10 03P d   1     -50.024   1.366 -24.558  0.00  0.00     0.035 A 
ATOM     16  C15 03P d   1     -49.787   0.351 -25.489  0.00  0.00    -0.054 A 
ATOM     17  C14 03P d   1     -49.706   0.633 -26.859  0.00  0.00    -0.046 A 
ATOM     18  H8  03P d   1     -49.664  -0.670 -25.146  0.00  0.00     0.087 H 
ATOM     19  C13 03P d   1     -49.861   1.951 -27.333  0.00  0.00     0.098 A 
ATOM     20  H17 03P d   1     -49.522  -0.171 -27.562  0.00  0.00     0.087 H 
ATOM     21  C12 03P d   1     -50.108   2.971 -26.414  0.00  0.00     0.070 A 
ATOM     22 CL   03P d   1     -50.316   4.652 -27.038  0.00  0.00    -0.081 Cl
ATOM     23  C11 03P d   1     -50.176   2.682 -25.040  0.00  0.00    -0.033 A 
ATOM     24  H16 03P d   1     -50.349   3.488 -24.336  0.00  0.00     0.089 H 
BRANCH  19  25
ATOM     25  O1  03P d   1     -49.791   2.280 -28.682  0.00  0.00    -0.309 OA
BRANCH  25  26
ATOM     26  C16 03P d   1     -49.502   1.381 -29.699  0.00  0.00     0.076 A 
ATOM     27  C17 03P d   1     -50.456   1.093 -30.678  0.00  0.00    -0.050 A 
ATOM     28  C18 03P d   1     -50.161   0.201 -31.711  0.00  0.00    -0.080 A 
ATOM     29  H9  03P d   1     -51.431   1.565 -30.636  0.00  0.00     0.087 H 
ATOM     30  C19 03P d   1     -48.908  -0.412 -31.768  0.00  0.00    -0.068 A 
ATOM     31  H15 03P d   1     -50.905  -0.016 -32.469  0.00  0.00     0.083 H 
ATOM     32  C20 03P d   1     -47.942  -0.142 -30.792  0.00  0.00     0.050 A 
ATOM     33  H14 03P d   1     -48.682  -1.101 -32.573  0.00  0.00     0.084 H 
ATOM     34  C21 03P d   1     -48.245   0.763 -29.770  0.00  0.00    -0.036 A 
ATOM     35  H10 03P d   1     -47.496   0.991 -29.020  0.00  0.00     0.089 H 
BRANCH  32  36
ATOM     36  C22 03P d   1     -46.573  -0.795 -30.841  0.00  0.00     0.417 C 
ATOM     37  F2  03P d   1     -46.125  -1.068 -29.615  0.00  0.00    -0.166 F 
ATOM     38  F   03P d   1     -46.617  -1.915 -31.558  0.00  0.00    -0.166 F 
ATOM     39  F1  03P d   1     -45.722   0.038 -31.420  0.00  0.00    -0.166 F 
ENDBRANCH  32  36
ENDBRANCH  25  26
ENDBRANCH  19  25
ENDBRANCH   4  15
BRANCH  10  40
ATOM     40  C6  03P d   1     -48.772   0.236 -20.068  0.00  0.00     0.014 C 
ATOM     41  H4  03P d   1     -48.125   0.706 -19.312  0.00  0.00     0.067 H 
ATOM     42  H5  03P d   1     -48.971  -0.807 -19.782  0.00  0.00     0.067 H 
BRANCH  40  43
ATOM     43  C7  03P d   1     -47.983   0.195 -21.357  0.00  0.00     0.010 C 
ATOM     44  H6  03P d   1     -48.497   0.805 -22.114  0.00  0.00     0.066 H 
ATOM     45  H7  03P d   1     -46.977   0.603 -21.178  0.00  0.00     0.066 H 
BRANCH  43  46
ATOM     46  N3  03P d   1     -47.866  -1.165 -21.841  0.00  0.00    -0.359 N 
ATOM     47  C8  03P d   1     -47.142  -1.408 -22.926  0.00  0.00     0.220 C 
ATOM     48  O   03P d   1     -47.362  -0.871 -24.002  0.00  0.00    -0.274 OA
ATOM     49  H1  03P d   1     -48.326  -1.913 -21.363  0.00  0.00     0.162 HD
BRANCH  47  50
ATOM     50  C9  03P d   1     -45.991  -2.374 -22.761  0.00  0.00     0.037 C 
ATOM     51  H20 03P d   1     -46.127  -3.216 -23.456  0.00  0.00     0.051 H 
ATOM     52  H21 03P d   1     -45.984  -2.750 -21.727  0.00  0.00     0.051 H 
BRANCH  50  53
ATOM     53  C23 03P d   1     -44.650  -1.696 -23.055  0.00  0.00     0.059 C 
BRANCH  53  54
ATOM     54  C24 03P d   1     -44.523  -0.308 -22.432  0.00  0.00    -0.048 C 
ATOM     55  H11 03P d   1     -43.540   0.118 -22.683  0.00  0.00     0.031 H 
ATOM     56  H12 03P d   1     -44.621  -0.386 -21.339  0.00  0.00     0.031 H 
ATOM     57  H13 03P d   1     -45.316   0.345 -22.826  0.00  0.00     0.031 H 
ENDBRANCH  53  54
BRANCH  53  58
ATOM     58  O2  03P d   1     -43.616  -2.495 -22.478  0.00  0.00    -0.390 OA
ATOM     59  H22 03P d   1     -42.773  -2.092 -22.649  0.00  0.00     0.210 HD
ENDBRANCH  53  58
BRANCH  53  60
ATOM     60  C25 03P d   1     -44.417  -1.626 -24.563  0.00  0.00    -0.048 C 
ATOM     61  H23 03P d   1     -43.452  -1.138 -24.763  0.00  0.00     0.031 H 
ATOM     62  H24 03P d   1     -45.225  -1.046 -25.032  0.00  0.00     0.031 H 
ATOM     63  H25 03P d   1     -44.406  -2.644 -24.980  0.00  0.00     0.031 H 
ENDBRANCH  53  60
ENDBRANCH  50  53
ENDBRANCH  47  50
ENDBRANCH  43  46
ENDBRANCH  40  43
ENDBRANCH  10  40
TORSDOF 12
