REMARK  14 active torsions:
REMARK  status: ('A' for Active; 'I' for Inactive)
REMARK    1  A    between atoms: N34_34  and  C1_1 
REMARK    2  A    between atoms: C4_4  and  O7_7 
REMARK    3  A    between atoms: O7_7  and  C8_8 
REMARK    4  A    between atoms: C13_13  and  C15_15 
REMARK    5  A    between atoms: C22_22  and  N34_34 
REMARK    6  A    between atoms: N25_25  and  C28_28 
REMARK    7  A    between atoms: C28_28  and  C29_29 
REMARK    8  A    between atoms: C29_29  and  N30_30 
REMARK       I    between atoms: N30_30  and  C31_31 
REMARK    9  A    between atoms: C31_31  and  C32_32 
REMARK   10  A    between atoms: C32_32  and  C35_35 
REMARK   11  A    between atoms: C35_35  and  C36_36 
REMARK   12  A    between atoms: C36_36  and  N37_37 
REMARK   13  A    between atoms: N37_37  and  C38_38 
REMARK   14  A    between atoms: N37_37  and  C39_39 
ROOT
ATOM      1  N19 W2P d   1     147.761  20.981  53.479  0.00  0.00    -0.240 NA
ATOM      2  C20 W2P d   1     147.618  22.304  53.481  0.00  0.00     0.089 A 
ATOM      3  N21 W2P d   1     147.230  23.094  52.479  0.00  0.00    -0.222 NA
ATOM      4  C22 W2P d   1     146.923  22.550  51.291  0.00  0.00     0.159 A 
ATOM      5  C23 W2P d   1     147.452  20.426  52.293  0.00  0.00     0.090 A 
ATOM      6  C24 W2P d   1     147.029  21.174  51.209  0.00  0.00     0.110 A 
ATOM      7  N25 W2P d   1     146.825  20.278  50.185  0.00  0.00    -0.350 N 
ATOM      8  C26 W2P d   1     147.087  18.996  50.602  0.00  0.00    -0.018 A 
ATOM      9  C27 W2P d   1     147.478  19.053  51.921  0.00  0.00    -0.038 A 
ATOM     10  H8  W2P d   1     147.846  22.803  54.416  0.00  0.00     0.146 H 
ATOM     11  H9  W2P d   1     147.001  18.095  49.997  0.00  0.00     0.111 H 
ATOM     12  H10 W2P d   1     147.753  18.212  52.555  0.00  0.00     0.089 H 
ENDROOT
BRANCH   7  13
ATOM     13  C28 W2P d   1     146.409  20.623  48.821  0.00  0.00     0.014 C 
ATOM     14  H11 W2P d   1     147.256  20.431  48.147  0.00  0.00     0.067 H 
ATOM     15  H12 W2P d   1     146.160  21.694  48.801  0.00  0.00     0.067 H 
BRANCH  13  16
ATOM     16  C29 W2P d   1     145.217  19.855  48.306  0.00  0.00     0.010 C 
ATOM     17  H13 W2P d   1     145.347  18.779  48.492  0.00  0.00     0.066 H 
ATOM     18  H14 W2P d   1     145.089  20.028  47.227  0.00  0.00     0.066 H 
BRANCH  16  19
ATOM     19  N30 W2P d   1     144.087  20.348  49.024  0.00  0.00    -0.359 N 
ATOM     20  C31 W2P d   1     143.455  19.526  49.911  0.00  0.00     0.217 C 
ATOM     21  O33 W2P d   1     143.745  18.354  50.145  0.00  0.00    -0.274 OA
ATOM     22  H15 W2P d   1     143.763  21.283  48.879  0.00  0.00     0.162 HD
BRANCH  20  23
ATOM     23  C32 W2P d   1     142.315  20.254  50.547  0.00  0.00     0.011 C 
ATOM     24  H16 W2P d   1     142.322  21.311  50.242  0.00  0.00     0.047 H 
ATOM     25  H17 W2P d   1     142.386  20.188  51.643  0.00  0.00     0.047 H 
BRANCH  23  26
ATOM     26  C35 W2P d   1     141.047  19.580  50.064  0.00  0.00    -0.035 C 
ATOM     27  H19 W2P d   1     140.318  19.566  50.888  0.00  0.00     0.036 H 
ATOM     28  H20 W2P d   1     141.286  18.548  49.768  0.00  0.00     0.036 H 
BRANCH  26  29
ATOM     29  C36 W2P d   1     140.430  20.294  48.881  0.00  0.00     0.083 C 
ATOM     30  H21 W2P d   1     141.103  20.224  48.014  0.00  0.00     0.075 H 
ATOM     31  H22 W2P d   1     140.264  21.352  49.132  0.00  0.00     0.075 H 
BRANCH  29  32
ATOM     32  N37 W2P d   1     139.155  19.657  48.567  0.00  0.00    -0.079 N 
ATOM     33  H23 W2P d   1     139.043  18.796  49.079  0.00  0.00     0.278 HD
BRANCH  32  34
ATOM     34  C38 W2P d   1     138.075  20.594  48.880  0.00  0.00     0.066 C 
ATOM     35  H24 W2P d   1     137.106  20.127  48.648  0.00  0.00     0.068 H 
ATOM     36  H25 W2P d   1     138.196  21.507  48.278  0.00  0.00     0.068 H 
ATOM     37  H26 W2P d   1     138.112  20.852  49.949  0.00  0.00     0.068 H 
ENDBRANCH  32  34
BRANCH  32  38
ATOM     38  C39 W2P d   1     139.145  19.421  47.129  0.00  0.00     0.066 C 
ATOM     39  H27 W2P d   1     139.950  18.718  46.867  0.00  0.00     0.068 H 
ATOM     40  H28 W2P d   1     139.303  20.372  46.600  0.00  0.00     0.068 H 
ATOM     41  H29 W2P d   1     138.175  18.994  46.834  0.00  0.00     0.068 H 
ENDBRANCH  32  38
ENDBRANCH  29  32
ENDBRANCH  26  29
ENDBRANCH  23  26
ENDBRANCH  20  23
ENDBRANCH  16  19
ENDBRANCH  13  16
ENDBRANCH   7  13
BRANCH   4  42
ATOM     42  N34 W2P d   1     146.519  23.339  50.201  0.00  0.00    -0.339 N 
ATOM     43  H18 W2P d   1     146.197  22.859  49.348  0.00  0.00     0.167 HD
BRANCH  42  44
ATOM     44  C1  W2P d   1     146.529  24.750  50.206  0.00  0.00     0.035 A 
ATOM     45  C2  W2P d   1     147.790  25.283  50.375  0.00  0.00    -0.033 A 
ATOM     46  C3  W2P d   1     148.004  26.642  50.392  0.00  0.00     0.070 A 
ATOM     47  H1  W2P d   1     148.634  24.614  50.498  0.00  0.00     0.089 H 
ATOM     48  C4  W2P d   1     146.942  27.494  50.215  0.00  0.00     0.098 A 
ATOM     49 CL9  W2P d   1     149.595  27.270  50.637  0.00  0.00    -0.081 Cl
ATOM     50  C5  W2P d   1     145.667  26.973  50.039  0.00  0.00    -0.046 A 
ATOM     51  C6  W2P d   1     145.453  25.596  50.033  0.00  0.00    -0.054 A 
ATOM     52  H2  W2P d   1     144.828  27.646  49.905  0.00  0.00     0.087 H 
ATOM     53  H3  W2P d   1     144.455  25.195  49.894  0.00  0.00     0.087 H 
BRANCH  48  54
ATOM     54  O7  W2P d   1     147.281  28.844  50.258  0.00  0.00    -0.309 OA
BRANCH  54  55
ATOM     55  C8  W2P d   1     146.357  29.814  49.890  0.00  0.00     0.076 A 
ATOM     56  C10 W2P d   1     146.068  30.819  50.780  0.00  0.00    -0.050 A 
ATOM     57  C11 W2P d   1     145.170  31.804  50.436  0.00  0.00    -0.080 A 
ATOM     58  H4  W2P d   1     146.547  30.837  51.752  0.00  0.00     0.087 H 
ATOM     59  C12 W2P d   1     144.574  31.781  49.195  0.00  0.00    -0.068 A 
ATOM     60  H5  W2P d   1     144.933  32.594  51.139  0.00  0.00     0.083 H 
ATOM     61  C13 W2P d   1     144.873  30.773  48.300  0.00  0.00     0.050 A 
ATOM     62  H6  W2P d   1     143.868  32.556  48.920  0.00  0.00     0.084 H 
ATOM     63  C14 W2P d   1     145.773  29.791  48.647  0.00  0.00    -0.036 A 
ATOM     64  H7  W2P d   1     146.019  29.004  47.943  0.00  0.00     0.089 H 
BRANCH  61  65
ATOM     65  C15 W2P d   1     144.240  30.736  46.943  0.00  0.00     0.417 C 
ATOM     66  F16 W2P d   1     143.902  29.477  46.512  0.00  0.00    -0.166 F 
ATOM     67  F17 W2P d   1     145.085  31.222  45.992  0.00  0.00    -0.166 F 
ATOM     68  F18 W2P d   1     143.105  31.493  46.877  0.00  0.00    -0.166 F 
ENDBRANCH  61  65
ENDBRANCH  54  55
ENDBRANCH  48  54
ENDBRANCH  42  44
ENDBRANCH   4  42
TORSDOF 14
