REMARK  15 active torsions:
REMARK  status: ('A' for Active; 'I' for Inactive)
REMARK    1  A    between atoms: NBC_34  and  CBI_15 
REMARK    2  A    between atoms: CBM_16  and  NBB_35 
REMARK    3  A    between atoms: CBP_17  and  NBC_34 
REMARK    4  A    between atoms: CBN_18  and  OBE_38 
REMARK    5  A    between atoms: OBD_39  and  CBO_19 
REMARK    6  A    between atoms: CAV_26  and  CBK_21 
REMARK    7  A    between atoms: CBH_22  and  CAX_27 
REMARK       I    between atoms: NBB_35  and  CBH_22 
REMARK    8  A    between atoms: CAU_30  and  CAA_23 
REMARK    9  A    between atoms: NBU_36  and  CAB_24 
REMARK   10  A    between atoms: NBU_36  and  CAC_25 
REMARK   11  A    between atoms: OBE_38  and  CAV_26 
REMARK   12  A    between atoms: CAX_27  and  CBT_28 
REMARK   13  A    between atoms: CBT_28  and  CAY_29 
REMARK   14  A    between atoms: CAY_29  and  NBU_36 
REMARK   15  A    between atoms: CAU_30  and  OBD_39 
ROOT
ATOM      1  CAJ HKI d   1       1.654  24.013  52.956  0.00  0.00     0.103 C 
ATOM      2  CAS HKI d   1      -0.243  20.239  50.608  0.00  0.00    -0.040 A 
ATOM      3  CAT HKI d   1       1.486  18.601  51.967  0.00  0.00    -0.020 A 
ATOM      4  CAQ HKI d   1       2.414  21.749  53.291  0.00  0.00     0.025 A 
ATOM      5  CBL HKI d   1       1.591  22.631  52.634  0.00  0.00     0.089 A 
ATOM      6  CBR HKI d   1       0.661  20.790  51.497  0.00  0.00     0.023 A 
ATOM      7  CBQ HKI d   1       1.536  19.963  52.199  0.00  0.00     0.071 A 
ATOM      8  CBM HKI d   1      -0.289  18.874  50.388  0.00  0.00     0.069 A 
ATOM      9  CBP HKI d   1       0.679  22.164  51.710  0.00  0.00     0.067 A 
ATOM     10  CBO HKI d   1       0.589  18.055  51.071  0.00  0.00     0.097 A 
ATOM     11  NAD HKI d   1       1.622  25.129  53.300  0.00  0.00    -0.191 NA
ATOM     12  NBA HKI d   1       2.416  20.432  53.093  0.00  0.00    -0.259 NA
ATOM     13  H6  HKI d   1      -0.928  20.888  50.074  0.00  0.00     0.088 H 
ATOM     14  H7  HKI d   1       2.166  17.947  52.501  0.00  0.00     0.091 H 
ATOM     15  H10 HKI d   1       3.108  22.152  54.019  0.00  0.00     0.117 H 
ENDROOT
BRANCH   9  16
ATOM     16  NBC HKI d   1      -0.176  23.061  51.022  0.00  0.00    -0.354 N 
ATOM     17  H30 HKI d   1      -1.126  22.758  50.766  0.00  0.00     0.166 HD
BRANCH  16  18
ATOM     18  CBI HKI d   1       0.256  24.378  50.677  0.00  0.00     0.034 A 
ATOM     19  CAO HKI d   1      -0.692  25.377  50.586  0.00  0.00    -0.054 A 
ATOM     20  CAP HKI d   1      -0.322  26.674  50.279  0.00  0.00    -0.047 A 
ATOM     21  H3  HKI d   1      -1.737  25.143  50.757  0.00  0.00     0.087 H 
ATOM     22  CBN HKI d   1       1.009  26.999  50.081  0.00  0.00     0.091 A 
ATOM     23  H4  HKI d   1      -1.081  27.443  50.193  0.00  0.00     0.087 H 
ATOM     24  CBJ HKI d   1       1.985  26.032  50.174  0.00  0.00     0.069 A 
ATOM     25  CAR HKI d   1       1.586  24.734  50.460  0.00  0.00    -0.034 A 
ATOM     26 CLA  HKI d   1       3.657  26.498  49.921  0.00  0.00    -0.081 Cl
ATOM     27  H8  HKI d   1       2.344  23.961  50.517  0.00  0.00     0.089 H 
BRANCH  22  28
ATOM     28  OBE HKI d   1       1.397  28.299  49.780  0.00  0.00    -0.344 OA
BRANCH  28  29
ATOM     29  CAV HKI d   1       0.962  29.094  50.896  0.00  0.00     0.066 C 
ATOM     30  H20 HKI d   1      -0.030  28.745  51.220  0.00  0.00     0.084 H 
ATOM     31  H21 HKI d   1       1.680  28.977  51.721  0.00  0.00     0.084 H 
BRANCH  29  32
ATOM     32  CBK HKI d   1       0.874  30.542  50.526  0.00  0.00     0.058 A 
ATOM     33  CAN HKI d   1       1.518  31.470  51.317  0.00  0.00    -0.057 A 
ATOM     34  CAL HKI d   1       1.438  32.804  50.984  0.00  0.00    -0.080 A 
ATOM     35  H5  HKI d   1       2.079  31.154  52.189  0.00  0.00     0.086 H 
ATOM     36  CAK HKI d   1       0.712  33.151  49.868  0.00  0.00    -0.066 A 
ATOM     37  H1  HKI d   1       1.933  33.559  51.584  0.00  0.00     0.083 H 
ATOM     38  CAM HKI d   1       0.101  32.158  49.137  0.00  0.00     0.003 A 
ATOM     39  H2  HKI d   1       0.623  34.189  49.569  0.00  0.00     0.085 H 
ATOM     40  NAZ HKI d   1       0.164  30.856  49.437  0.00  0.00    -0.263 NA
ATOM     41  H9  HKI d   1      -0.468  32.450  48.262  0.00  0.00     0.114 H 
ENDBRANCH  29  32
ENDBRANCH  28  29
ENDBRANCH  22  28
ENDBRANCH  16  18
ENDBRANCH   9  16
BRANCH   8  42
ATOM     42  NBB HKI d   1      -1.237  18.341  49.477  0.00  0.00    -0.325 N 
ATOM     43  CBH HKI d   1      -2.591  18.634  49.703  0.00  0.00     0.222 C 
ATOM     44  OAG HKI d   1      -3.018  19.579  50.358  0.00  0.00    -0.273 OA
ATOM     45  H31 HKI d   1      -0.951  17.777  48.702  0.00  0.00     0.169 HD
BRANCH  43  46
ATOM     46  CAX HKI d   1      -3.554  17.670  49.067  0.00  0.00     0.011 C 
ATOM     47  H22 HKI d   1      -3.445  16.690  49.554  0.00  0.00     0.047 H 
ATOM     48  H23 HKI d   1      -3.307  17.578  47.999  0.00  0.00     0.047 H 
BRANCH  46  49
ATOM     49  CBT HKI d   1      -5.011  18.123  49.196  0.00  0.00    -0.035 C 
ATOM     50  H24 HKI d   1      -5.057  19.215  49.320  0.00  0.00     0.036 H 
ATOM     51  H25 HKI d   1      -5.482  17.635  50.062  0.00  0.00     0.036 H 
BRANCH  49  52
ATOM     52  CAY HKI d   1      -5.726  17.713  47.913  0.00  0.00     0.083 C 
ATOM     53  H26 HKI d   1      -5.978  16.645  47.996  0.00  0.00     0.075 H 
ATOM     54  H27 HKI d   1      -5.026  17.860  47.078  0.00  0.00     0.075 H 
BRANCH  52  55
ATOM     55  NBU HKI d   1      -6.959  18.439  47.595  0.00  0.00    -0.079 N 
ATOM     56  H32 HKI d   1      -6.736  19.335  47.190  0.00  0.00     0.278 HD
BRANCH  55  57
ATOM     57  CAB HKI d   1      -7.831  18.607  48.749  0.00  0.00     0.066 C 
ATOM     58  H14 HKI d   1      -8.735  19.156  48.448  0.00  0.00     0.068 H 
ATOM     59  H15 HKI d   1      -7.301  19.172  49.530  0.00  0.00     0.068 H 
ATOM     60  H16 HKI d   1      -8.115  17.619  49.141  0.00  0.00     0.068 H 
ENDBRANCH  55  57
BRANCH  55  61
ATOM     61  CAC HKI d   1      -7.717  17.604  46.668  0.00  0.00     0.066 C 
ATOM     62  H17 HKI d   1      -7.120  17.429  45.761  0.00  0.00     0.068 H 
ATOM     63  H18 HKI d   1      -8.654  18.113  46.398  0.00  0.00     0.068 H 
ATOM     64  H19 HKI d   1      -7.947  16.641  47.147  0.00  0.00     0.068 H 
ENDBRANCH  55  61
ENDBRANCH  52  55
ENDBRANCH  49  52
ENDBRANCH  46  49
ENDBRANCH  43  46
ENDBRANCH   8  42
BRANCH  10  65
ATOM     65  OBD HKI d   1       0.523  16.689  50.833  0.00  0.00    -0.349 OA
BRANCH  65  66
ATOM     66  CAU HKI d   1       1.690  16.001  51.281  0.00  0.00     0.023 C 
ATOM     67  H28 HKI d   1       2.554  16.276  50.658  0.00  0.00     0.074 H 
ATOM     68  H29 HKI d   1       1.899  16.254  52.331  0.00  0.00     0.074 H 
BRANCH  66  69
ATOM     69  CAA HKI d   1       1.402  14.519  51.149  0.00  0.00    -0.056 C 
ATOM     70  H11 HKI d   1       2.278  13.944  51.484  0.00  0.00     0.030 H 
ATOM     71  H12 HKI d   1       1.187  14.280  50.097  0.00  0.00     0.030 H 
ATOM     72  H13 HKI d   1       0.532  14.258  51.770  0.00  0.00     0.030 H 
ENDBRANCH  66  69
ENDBRANCH  65  66
ENDBRANCH  10  65
TORSDOF 15
