REMARK  12 active torsions:
REMARK  status: ('A' for Active; 'I' for Inactive)
REMARK    1  A    between atoms: C13_13  and  N34_34 
REMARK    2  A    between atoms: N33_33  and  C14_14 
REMARK    3  A    between atoms: O38_38  and  C15_15 
REMARK    4  A    between atoms: C16_16  and  O38_38 
REMARK    5  A    between atoms: C18_18  and  N33_33 
REMARK       I    between atoms: N34_34  and  C19_19 
REMARK       I    between atoms: C19_19  and  N35_35 
REMARK    6  A    between atoms: N35_35  and  C25_25 
REMARK    7  A    between atoms: C27_27  and  C26_26 
REMARK    8  A    between atoms: C26_26  and  N32_32 
REMARK    9  A    between atoms: O39_39  and  C27_27 
REMARK   10  A    between atoms: C29_29  and  C28_28 
REMARK   11  A    between atoms: C28_28  and  O37_37 
REMARK   12  A    between atoms: C29_29  and  O39_39 
ROOT
ATOM      1  C3  W2R d   1       4.675  10.799  46.895  0.00  0.00    -0.054 A 
ATOM      2  C5  W2R d   1       4.545  11.918  46.106  0.00  0.00    -0.046 A 
ATOM      3  C8  W2R d   1       6.517  10.060  45.568  0.00  0.00    -0.033 A 
ATOM      4  C14 W2R d   1       5.663   9.870  46.641  0.00  0.00     0.035 A 
ATOM      5  C16 W2R d   1       5.408  12.103  45.046  0.00  0.00     0.098 A 
ATOM      6  C17 W2R d   1       6.393  11.181  44.767  0.00  0.00     0.070 A 
ATOM      7 CL1  W2R d   1       7.461  11.416  43.425  0.00  0.00    -0.081 Cl
ATOM      8  H3  W2R d   1       3.994  10.645  47.725  0.00  0.00     0.087 H 
ATOM      9  H5  W2R d   1       3.771  12.648  46.315  0.00  0.00     0.087 H 
ATOM     10  H8  W2R d   1       7.286   9.327  45.355  0.00  0.00     0.089 H 
ENDROOT
BRANCH   5  11
ATOM     11  O38 W2R d   1       5.303  13.214  44.227  0.00  0.00    -0.309 OA
BRANCH  11  12
ATOM     12  C15 W2R d   1       5.056  14.437  44.830  0.00  0.00     0.078 A 
ATOM     13  C4  W2R d   1       5.716  14.861  45.970  0.00  0.00    -0.050 A 
ATOM     14  C1  W2R d   1       5.456  16.116  46.494  0.00  0.00    -0.078 A 
ATOM     15  H4  W2R d   1       6.436  14.211  46.453  0.00  0.00     0.087 H 
ATOM     16  C2  W2R d   1       4.528  16.911  45.849  0.00  0.00    -0.057 A 
ATOM     17  H1  W2R d   1       5.966  16.465  47.385  0.00  0.00     0.083 H 
ATOM     18  C13 W2R d   1       3.862  16.474  44.719  0.00  0.00     0.039 A 
ATOM     19  H2  W2R d   1       4.317  17.901  46.238  0.00  0.00     0.086 H 
ATOM     20  C7  W2R d   1       4.127  15.231  44.194  0.00  0.00    -0.025 A 
ATOM     21  H7  W2R d   1       3.618  14.884  43.302  0.00  0.00     0.091 H 
BRANCH  18  22
ATOM     22  N34 W2R d   1       2.930  17.344  44.118  0.00  0.00    -0.309 N 
ATOM     23  C19 W2R d   1       2.195  17.161  42.961  0.00  0.00     0.321 C 
ATOM     24  N35 W2R d   1       1.554  18.323  42.594  0.00  0.00    -0.338 N 
ATOM     25  O36 W2R d   1       2.030  16.112  42.363  0.00  0.00    -0.247 OA
ATOM     26  H32 W2R d   1       1.698  19.145  43.145  0.00  0.00     0.164 HD
ATOM     27  H31 W2R d   1       2.780  18.211  44.593  0.00  0.00     0.170 HD
BRANCH  24  28
ATOM     28  C25 W2R d   1       0.677  18.401  41.438  0.00  0.00     0.014 C 
ATOM     29  C23 W2R d   1      -0.418  19.427  41.645  0.00  0.00    -0.046 C 
ATOM     30  C21 W2R d   1      -1.418  19.369  40.506  0.00  0.00    -0.063 C 
ATOM     31  H17 W2R d   1      -0.936  19.219  42.593  0.00  0.00     0.035 H 
ATOM     32  H18 W2R d   1       0.029  20.431  41.684  0.00  0.00     0.035 H 
ATOM     33  C20 W2R d   1      -0.706  19.667  39.214  0.00  0.00    -0.065 C 
ATOM     34  H13 W2R d   1      -1.865  18.365  40.458  0.00  0.00     0.033 H 
ATOM     35  H14 W2R d   1      -2.209  20.115  40.672  0.00  0.00     0.033 H 
ATOM     36  C22 W2R d   1       0.458  18.695  39.002  0.00  0.00    -0.063 C 
ATOM     37  H11 W2R d   1      -0.317  20.695  39.245  0.00  0.00     0.033 H 
ATOM     38  H12 W2R d   1      -1.416  19.568  38.379  0.00  0.00     0.033 H 
ATOM     39  C24 W2R d   1       1.426  18.747  40.168  0.00  0.00    -0.046 C 
ATOM     40  H15 W2R d   1       0.991  18.967  38.079  0.00  0.00     0.033 H 
ATOM     41  H16 W2R d   1       0.061  17.673  38.909  0.00  0.00     0.033 H 
ATOM     42  H19 W2R d   1       1.850  19.759  40.252  0.00  0.00     0.035 H 
ATOM     43  H20 W2R d   1       2.237  18.022  40.008  0.00  0.00     0.035 H 
ATOM     44  H21 W2R d   1       0.210  17.414  41.305  0.00  0.00     0.072 H 
ENDBRANCH  24  28
ENDBRANCH  18  22
ENDBRANCH  11  12
ENDBRANCH   5  11
BRANCH   4  45
ATOM     45  N33 W2R d   1       5.789   8.704  47.422  0.00  0.00    -0.339 N 
ATOM     46  H30 W2R d   1       4.930   8.196  47.676  0.00  0.00     0.167 HD
BRANCH  45  47
ATOM     47  C18 W2R d   1       7.029   8.188  47.880  0.00  0.00     0.159 A 
ATOM     48  C12 W2R d   1       7.115   6.999  48.574  0.00  0.00     0.110 A 
ATOM     49  C11 W2R d   1       8.342   6.528  49.009  0.00  0.00     0.090 A 
ATOM     50  N32 W2R d   1       6.183   6.050  48.959  0.00  0.00    -0.350 N 
ATOM     51  C6  W2R d   1       8.130   5.295  49.671  0.00  0.00    -0.038 A 
ATOM     52  N30 W2R d   1       9.496   7.196  48.819  0.00  0.00    -0.240 NA
ATOM     53  C9  W2R d   1       6.780   5.015  49.624  0.00  0.00    -0.018 A 
ATOM     54  H6  W2R d   1       8.897   4.677  50.135  0.00  0.00     0.089 H 
ATOM     55  H9  W2R d   1       6.285   4.138  50.037  0.00  0.00     0.111 H 
ATOM     56  C10 W2R d   1       9.305   8.334  48.157  0.00  0.00     0.089 A 
ATOM     57  N31 W2R d   1       8.173   8.855  47.680  0.00  0.00    -0.222 NA
ATOM     58  H10 W2R d   1      10.198   8.923  47.980  0.00  0.00     0.146 H 
BRANCH  50  59
ATOM     59  C26 W2R d   1       4.755   6.050  48.701  0.00  0.00     0.019 C 
ATOM     60  H22 W2R d   1       4.564   6.657  47.804  0.00  0.00     0.068 H 
ATOM     61  H23 W2R d   1       4.434   5.014  48.518  0.00  0.00     0.068 H 
BRANCH  59  62
ATOM     62  C27 W2R d   1       3.941   6.606  49.833  0.00  0.00     0.035 C 
ATOM     63  H24 W2R d   1       4.378   6.332  50.804  0.00  0.00     0.076 H 
ATOM     64  H25 W2R d   1       2.902   6.248  49.784  0.00  0.00     0.076 H 
BRANCH  62  65
ATOM     65  O39 W2R d   1       4.005   8.008  49.625  0.00  0.00    -0.387 OA
BRANCH  65  66
ATOM     66  C29 W2R d   1       3.048   8.665  50.453  0.00  0.00     0.039 C 
ATOM     67  H28 W2R d   1       2.357   7.930  50.892  0.00  0.00     0.077 H 
ATOM     68  H29 W2R d   1       3.556   9.217  51.257  0.00  0.00     0.077 H 
BRANCH  66  69
ATOM     69  C28 W2R d   1       2.301   9.613  49.566  0.00  0.00     0.036 C 
ATOM     70  H26 W2R d   1       3.006  10.242  49.003  0.00  0.00     0.077 H 
ATOM     71  H27 W2R d   1       1.638  10.253  50.166  0.00  0.00     0.077 H 
BRANCH  69  72
ATOM     72  O37 W2R d   1       1.542   8.819  48.681  0.00  0.00    -0.399 OA
ATOM     73  H33 W2R d   1       2.125   8.266  48.174  0.00  0.00     0.209 HD
ENDBRANCH  69  72
ENDBRANCH  66  69
ENDBRANCH  65  66
ENDBRANCH  62  65
ENDBRANCH  59  62
ENDBRANCH  50  59
ENDBRANCH  45  47
ENDBRANCH   4  45
TORSDOF 12
