REMARK  12 active torsions:
REMARK  status: ('A' for Active; 'I' for Inactive)
REMARK    1  A    between atoms: C13_13  and  N34_34 
REMARK    2  A    between atoms: N33_33  and  C14_14 
REMARK    3  A    between atoms: O38_38  and  C15_15 
REMARK    4  A    between atoms: C16_16  and  O38_38 
REMARK    5  A    between atoms: C18_18  and  N33_33 
REMARK       I    between atoms: N34_34  and  C19_19 
REMARK       I    between atoms: C19_19  and  N35_35 
REMARK    6  A    between atoms: N35_35  and  C25_25 
REMARK    7  A    between atoms: C27_27  and  C26_26 
REMARK    8  A    between atoms: C26_26  and  N32_32 
REMARK    9  A    between atoms: O39_39  and  C27_27 
REMARK   10  A    between atoms: C29_29  and  C28_28 
REMARK   11  A    between atoms: C28_28  and  O37_37 
REMARK   12  A    between atoms: C29_29  and  O39_39 
ROOT
ATOM      1  C3  W2R d   1       5.992   1.165  11.235  0.00  0.00    -0.054 A 
ATOM      2  C5  W2R d   1       6.252   1.579   9.947  0.00  0.00    -0.046 A 
ATOM      3  C8  W2R d   1       7.015  -0.956  10.770  0.00  0.00    -0.033 A 
ATOM      4  C14 W2R d   1       6.379  -0.103  11.652  0.00  0.00     0.035 A 
ATOM      5  C16 W2R d   1       6.903   0.712   9.086  0.00  0.00     0.098 A 
ATOM      6  C17 W2R d   1       7.272  -0.547   9.486  0.00  0.00     0.070 A 
ATOM      7 CL1  W2R d   1       8.075  -1.555   8.327  0.00  0.00    -0.081 Cl
ATOM      8  H3  W2R d   1       5.484   1.830  11.925  0.00  0.00     0.087 H 
ATOM      9  H5  W2R d   1       5.952   2.566   9.614  0.00  0.00     0.087 H 
ATOM     10  H8  W2R d   1       7.311  -1.948  11.093  0.00  0.00     0.089 H 
ENDROOT
BRANCH   5  11
ATOM     11  O38 W2R d   1       7.234   1.046   7.785  0.00  0.00    -0.309 OA
BRANCH  11  12
ATOM     12  C15 W2R d   1       6.857   2.327   7.425  0.00  0.00     0.078 A 
ATOM     13  C4  W2R d   1       7.720   3.384   7.627  0.00  0.00    -0.050 A 
ATOM     14  C1  W2R d   1       7.317   4.651   7.257  0.00  0.00    -0.078 A 
ATOM     15  H4  W2R d   1       8.697   3.222   8.068  0.00  0.00     0.087 H 
ATOM     16  C2  W2R d   1       6.073   4.824   6.695  0.00  0.00    -0.057 A 
ATOM     17  H1  W2R d   1       7.973   5.501   7.407  0.00  0.00     0.083 H 
ATOM     18  C13 W2R d   1       5.218   3.760   6.497  0.00  0.00     0.039 A 
ATOM     19  H2  W2R d   1       5.758   5.819   6.401  0.00  0.00     0.086 H 
ATOM     20  C7  W2R d   1       5.616   2.488   6.858  0.00  0.00    -0.025 A 
ATOM     21  H7  W2R d   1       4.965   1.637   6.698  0.00  0.00     0.091 H 
BRANCH  18  22
ATOM     22  N34 W2R d   1       3.971   3.973   5.917  0.00  0.00    -0.309 N 
ATOM     23  C19 W2R d   1       2.899   3.125   6.101  0.00  0.00     0.321 C 
ATOM     24  N35 W2R d   1       1.767   3.713   5.604  0.00  0.00    -0.338 N 
ATOM     25  O36 W2R d   1       2.931   1.997   6.596  0.00  0.00    -0.247 OA
ATOM     26  H32 W2R d   1       1.803   4.659   5.282  0.00  0.00     0.164 HD
ATOM     27  H31 W2R d   1       3.846   4.780   5.339  0.00  0.00     0.170 HD
BRANCH  24  28
ATOM     28  C25 W2R d   1       0.520   2.983   5.538  0.00  0.00     0.014 C 
ATOM     29  C23 W2R d   1       0.517   1.902   4.473  0.00  0.00    -0.046 C 
ATOM     30  C21 W2R d   1      -0.793   1.136   4.538  0.00  0.00    -0.063 C 
ATOM     31  H17 W2R d   1       0.624   2.364   3.480  0.00  0.00     0.035 H 
ATOM     32  H18 W2R d   1       1.355   1.212   4.648  0.00  0.00     0.035 H 
ATOM     33  C20 W2R d   1      -1.964   2.065   4.319  0.00  0.00    -0.065 C 
ATOM     34  H13 W2R d   1      -0.797   0.360   3.759  0.00  0.00     0.033 H 
ATOM     35  H14 W2R d   1      -0.887   0.663   5.527  0.00  0.00     0.033 H 
ATOM     36  C22 W2R d   1      -1.950   3.204   5.317  0.00  0.00    -0.063 C 
ATOM     37  H11 W2R d   1      -2.899   1.498   4.434  0.00  0.00     0.033 H 
ATOM     38  H12 W2R d   1      -1.909   2.478   3.301  0.00  0.00     0.033 H 
ATOM     39  C24 W2R d   1      -0.627   3.943   5.280  0.00  0.00    -0.046 C 
ATOM     40  H15 W2R d   1      -2.107   2.799   6.327  0.00  0.00     0.033 H 
ATOM     41  H16 W2R d   1      -2.761   3.906   5.073  0.00  0.00     0.033 H 
ATOM     42  H19 W2R d   1      -0.626   4.725   6.053  0.00  0.00     0.035 H 
ATOM     43  H20 W2R d   1      -0.497   4.406   4.290  0.00  0.00     0.035 H 
ATOM     44  H21 W2R d   1       0.361   2.499   6.513  0.00  0.00     0.072 H 
ENDBRANCH  24  28
ENDBRANCH  18  22
ENDBRANCH  11  12
ENDBRANCH   5  11
BRANCH   4  45
ATOM     45  N33 W2R d   1       6.165  -0.563  12.954  0.00  0.00    -0.339 N 
ATOM     46  H30 W2R d   1       5.244  -0.876  13.292  0.00  0.00     0.167 HD
BRANCH  45  47
ATOM     47  C18 W2R d   1       7.334  -0.562  13.776  0.00  0.00     0.159 A 
ATOM     48  C12 W2R d   1       7.383  -0.998  15.092  0.00  0.00     0.110 A 
ATOM     49  C11 W2R d   1       8.566  -0.947  15.811  0.00  0.00     0.090 A 
ATOM     50  N32 W2R d   1       6.446  -1.533  15.951  0.00  0.00    -0.350 N 
ATOM     51  C6  W2R d   1       8.325  -1.462  17.109  0.00  0.00    -0.038 A 
ATOM     52  N30 W2R d   1       9.724  -0.473  15.318  0.00  0.00    -0.240 NA
ATOM     53  C9  W2R d   1       7.001  -1.824  17.168  0.00  0.00    -0.018 A 
ATOM     54  H6  W2R d   1       9.055  -1.554  17.912  0.00  0.00     0.089 H 
ATOM     55  H9  W2R d   1       6.489  -2.261  18.024  0.00  0.00     0.111 H 
ATOM     56  C10 W2R d   1       9.594  -0.068  14.050  0.00  0.00     0.089 A 
ATOM     57  N31 W2R d   1       8.500  -0.097  13.288  0.00  0.00    -0.222 NA
ATOM     58  H10 W2R d   1      10.487   0.333  13.585  0.00  0.00     0.146 H 
BRANCH  50  59
ATOM     59  C26 W2R d   1       5.042  -1.833  15.681  0.00  0.00     0.019 C 
ATOM     60  H22 W2R d   1       4.919  -2.008  14.602  0.00  0.00     0.068 H 
ATOM     61  H23 W2R d   1       4.762  -2.741  16.234  0.00  0.00     0.068 H 
BRANCH  59  62
ATOM     62  C27 W2R d   1       4.115  -0.695  16.103  0.00  0.00     0.035 C 
ATOM     63  H24 W2R d   1       4.426  -0.269  17.069  0.00  0.00     0.076 H 
ATOM     64  H25 W2R d   1       3.073  -1.040  16.173  0.00  0.00     0.076 H 
BRANCH  62  65
ATOM     65  O39 W2R d   1       4.270   0.251  15.055  0.00  0.00    -0.387 OA
BRANCH  65  66
ATOM     66  C29 W2R d   1       3.364   1.326  15.257  0.00  0.00     0.039 C 
ATOM     67  H28 W2R d   1       2.394   0.951  15.614  0.00  0.00     0.077 H 
ATOM     68  H29 W2R d   1       3.771   2.041  15.987  0.00  0.00     0.077 H 
BRANCH  66  69
ATOM     69  C28 W2R d   1       3.215   1.974  13.912  0.00  0.00     0.036 C 
ATOM     70  H26 W2R d   1       4.204   2.116  13.451  0.00  0.00     0.077 H 
ATOM     71  H27 W2R d   1       2.716   2.949  14.017  0.00  0.00     0.077 H 
BRANCH  69  72
ATOM     72  O37 W2R d   1       2.428   1.112  13.113  0.00  0.00    -0.399 OA
ATOM     73  H33 W2R d   1       2.315   1.496  12.251  0.00  0.00     0.209 HD
ENDBRANCH  69  72
ENDBRANCH  66  69
ENDBRANCH  65  66
ENDBRANCH  62  65
ENDBRANCH  59  62
ENDBRANCH  50  59
ENDBRANCH  45  47
ENDBRANCH   4  45
TORSDOF 12
