REMARK  5 active torsions:
REMARK  status: ('A' for Active; 'I' for Inactive)
REMARK       I    between atoms: C14_2  and  N15_3 
REMARK    1  A    between atoms: C14_2  and  C13_10 
REMARK    2  A    between atoms: C16_7  and  C20_8 
REMARK    3  A    between atoms: C13_10  and  N12_11 
REMARK    4  A    between atoms: N12_11  and  C7_12 
REMARK    5  A    between atoms: C3_20  and  O4_21 
ROOT
ATOM      1  C7  LF7 d   1      53.800  63.776  34.475  0.00  0.00     0.130 C 
ATOM      2  C8  LF7 d   1      53.840  62.743  35.623  0.00  0.00    -0.030 C 
ATOM      3  C1  LF7 d   1      52.489  62.035  35.786  0.00  0.00    -0.049 C 
ATOM      4  C2  LF7 d   1      51.365  63.066  36.011  0.00  0.00    -0.058 C 
ATOM      5  C10 LF7 d   1      51.298  64.055  34.840  0.00  0.00    -0.049 C 
ATOM      6  C9  LF7 d   1      52.661  64.769  34.761  0.00  0.00    -0.030 C 
ATOM      7  C5  LF7 d   1      51.034  63.285  33.528  0.00  0.00    -0.033 C 
ATOM      8  C21 LF7 d   1      52.229  61.282  34.479  0.00  0.00    -0.033 C 
ATOM      9  C3  LF7 d   1      52.169  62.264  33.308  0.00  0.00     0.061 C 
ATOM     10  C6  LF7 d   1      53.491  63.030  33.162  0.00  0.00    -0.005 C 
ATOM     11  H14 LF7 d   1      54.089  63.260  36.561  0.00  0.00     0.037 H 
ATOM     12  H15 LF7 d   1      54.613  61.992  35.402  0.00  0.00     0.037 H 
ATOM     13  H16 LF7 d   1      52.526  61.335  36.633  0.00  0.00     0.040 H 
ATOM     14  H17 LF7 d   1      51.563  63.619  36.941  0.00  0.00     0.034 H 
ATOM     15  H18 LF7 d   1      50.403  62.539  36.095  0.00  0.00     0.034 H 
ATOM     16  H19 LF7 d   1      50.495  64.788  35.008  0.00  0.00     0.040 H 
ATOM     17  H20 LF7 d   1      52.627  65.516  33.955  0.00  0.00     0.037 H 
ATOM     18  H21 LF7 d   1      52.857  65.272  35.719  0.00  0.00     0.037 H 
ATOM     19  H22 LF7 d   1      51.005  63.991  32.685  0.00  0.00     0.037 H 
ATOM     20  H23 LF7 d   1      50.072  62.757  33.597  0.00  0.00     0.037 H 
ATOM     21  H24 LF7 d   1      51.272  60.745  34.553  0.00  0.00     0.037 H 
ATOM     22  H25 LF7 d   1      53.041  60.561  34.307  0.00  0.00     0.037 H 
ATOM     23  H27 LF7 d   1      54.303  62.321  32.943  0.00  0.00     0.041 H 
ATOM     24  H28 LF7 d   1      53.406  63.755  32.340  0.00  0.00     0.041 H 
ENDROOT
BRANCH   1  25
ATOM     25  N12 LF7 d   1      55.102  64.461  34.358  0.00  0.00    -0.058 N 
ATOM     26  H12 LF7 d   1      55.729  63.787  33.947  0.00  0.00     0.278 HD
ATOM     27  H13 LF7 d   1      54.953  65.220  33.711  0.00  0.00     0.278 HD
BRANCH  25  28
ATOM     28  C13 LF7 d   1      55.833  65.043  35.492  0.00  0.00     0.150 C 
ATOM     29  H10 LF7 d   1      56.418  65.900  35.126  0.00  0.00     0.089 H 
ATOM     30  H11 LF7 d   1      55.101  65.390  36.236  0.00  0.00     0.089 H 
BRANCH  28  31
ATOM     31  C14 LF7 d   1      56.787  64.063  36.173  0.00  0.00     0.226 C 
ATOM     32  O20 LF7 d   1      57.170  63.046  35.588  0.00  0.00    -0.278 OA
ATOM     33  N15 LF7 d   1      57.158  64.278  37.488  0.00  0.00    -0.242 NA
ATOM     34  C19 LF7 d   1      57.117  65.673  37.947  0.00  0.00    -0.013 C 
ATOM     35  C16 LF7 d   1      58.426  63.662  37.944  0.00  0.00     0.033 C 
ATOM     36  C18 LF7 d   1      58.027  65.703  39.164  0.00  0.00    -0.052 C 
ATOM     37  H1  LF7 d   1      56.092  65.962  38.222  0.00  0.00     0.056 H 
ATOM     38  H2  LF7 d   1      57.492  66.350  37.165  0.00  0.00     0.056 H 
ATOM     39  C17 LF7 d   1      59.099  64.671  38.851  0.00  0.00    -0.044 C 
ATOM     40  H3  LF7 d   1      57.473  65.427  40.073  0.00  0.00     0.034 H 
ATOM     41  H4  LF7 d   1      58.472  66.701  39.295  0.00  0.00     0.034 H 
ATOM     42  H5  LF7 d   1      59.449  64.186  39.774  0.00  0.00     0.035 H 
ATOM     43  H6  LF7 d   1      59.950  65.142  38.339  0.00  0.00     0.035 H 
ATOM     44  H7  LF7 d   1      59.069  63.370  37.100  0.00  0.00     0.073 H 
BRANCH  35  45
ATOM     45  C20 LF7 d   1      58.063  62.488  38.810  0.00  0.00    -0.009 C 
ATOM     46  N2  LF7 d   1      56.854  62.375  39.196  0.00  0.00    -0.315 NA
ATOM     47  H9  LF7 d   1      56.581  61.598  39.778  0.00  0.00     0.185 HD
ATOM     48  H8  LF7 d   1      58.813  61.754  39.100  0.00  0.00     0.109 H 
ENDBRANCH  35  45
ENDBRANCH  28  31
ENDBRANCH  25  28
ENDBRANCH   1  25
BRANCH   9  49
ATOM     49  O4  LF7 d   1      51.940  61.464  32.151  0.00  0.00    -0.390 OA
ATOM     50  H26 LF7 d   1      51.893  62.023  31.385  0.00  0.00     0.210 HD
ENDBRANCH   9  49
TORSDOF 5
