REMARK  10 active torsions:
REMARK  status: ('A' for Active; 'I' for Inactive)
REMARK    1  A    between atoms: C10_10  and  C25_25 
REMARK    2  A    between atoms: N29_29  and  C11_11 
REMARK    3  A    between atoms: O34_34  and  C12_12 
REMARK    4  A    between atoms: C13_13  and  O34_34 
REMARK    5  A    between atoms: C16_16  and  N29_29 
REMARK    6  A    between atoms: C19_19  and  C18_18 
REMARK       I    between atoms: N30_30  and  C19_19 
REMARK    7  A    between atoms: S38_38  and  C22_22 
REMARK    8  A    between atoms: C24_24  and  C23_23 
REMARK    9  A    between atoms: C23_23  and  N30_30 
REMARK   10  A    between atoms: C24_24  and  S38_38 
ROOT
ATOM      1  C8  W32 d   1      12.748  33.566  13.379  0.00  0.00     0.091 A 
ATOM      2  C9  W32 d   1      14.942  34.492  14.574  0.00  0.00     0.056 A 
ATOM      3  C15 W32 d   1      13.699  34.562  15.192  0.00  0.00     0.139 A 
ATOM      4  C16 W32 d   1      14.989  33.935  13.305  0.00  0.00     0.143 A 
ATOM      5  C17 W32 d   1      16.163  35.029  15.170  0.00  0.00    -0.054 C 
ATOM      6  C18 W32 d   1      16.443  35.196  16.465  0.00  0.00     0.012 C 
ATOM      7  C20 W32 d   1      15.566  34.815  17.582  0.00  0.00    -0.021 C 
ATOM      8  C21 W32 d   1      14.310  35.640  17.409  0.00  0.00    -0.002 C 
ATOM      9  N26 W32 d   1      12.598  34.091  14.590  0.00  0.00    -0.224 NA
ATOM     10  N27 W32 d   1      13.891  33.461  12.695  0.00  0.00    -0.223 NA
ATOM     11  N28 W32 d   1      13.391  35.060  16.456  0.00  0.00    -0.374 N 
ATOM     12  H8  W32 d   1      11.854  33.185  12.898  0.00  0.00     0.146 H 
ATOM     13  H9  W32 d   1      16.942  35.331  14.471  0.00  0.00     0.086 H 
ATOM     14  H10 W32 d   1      16.047  35.044  18.544  0.00  0.00     0.042 H 
ATOM     15  H11 W32 d   1      15.330  33.742  17.537  0.00  0.00     0.042 H 
ATOM     16  H12 W32 d   1      14.593  36.644  17.059  0.00  0.00     0.064 H 
ATOM     17  H13 W32 d   1      13.804  35.720  18.383  0.00  0.00     0.064 H 
ATOM     18  H21 W32 d   1      12.403  35.010  16.742  0.00  0.00     0.161 HD
ENDROOT
BRANCH   4  19
ATOM     19  N29 W32 d   1      16.248  33.857  12.650  0.00  0.00    -0.340 N 
ATOM     20  H22 W32 d   1      17.070  34.170  13.186  0.00  0.00     0.167 HD
BRANCH  19  21
ATOM     21  C11 W32 d   1      16.480  33.398  11.352  0.00  0.00     0.035 A 
ATOM     22  C3  W32 d   1      17.399  32.400  11.069  0.00  0.00    -0.054 A 
ATOM     23  C5  W32 d   1      17.620  31.995   9.772  0.00  0.00    -0.046 A 
ATOM     24  H3  W32 d   1      17.950  31.933  11.878  0.00  0.00     0.087 H 
ATOM     25  C13 W32 d   1      16.923  32.597   8.743  0.00  0.00     0.098 A 
ATOM     26  H5  W32 d   1      18.336  31.209   9.560  0.00  0.00     0.087 H 
ATOM     27  C14 W32 d   1      15.995  33.592   9.009  0.00  0.00     0.070 A 
ATOM     28  C7  W32 d   1      15.786  33.991  10.313  0.00  0.00    -0.033 A 
ATOM     29 CL1  W32 d   1      15.137  34.343   7.702  0.00  0.00    -0.081 Cl
ATOM     30  H7  W32 d   1      15.071  34.777  10.525  0.00  0.00     0.089 H 
BRANCH  25  31
ATOM     31  O34 W32 d   1      17.118  32.249   7.424  0.00  0.00    -0.309 OA
BRANCH  31  32
ATOM     32  C12 W32 d   1      16.830  30.965   6.994  0.00  0.00     0.076 A 
ATOM     33  C4  W32 d   1      17.766  30.265   6.269  0.00  0.00    -0.050 A 
ATOM     34  C1  W32 d   1      17.523  28.990   5.798  0.00  0.00    -0.080 A 
ATOM     35  H4  W32 d   1      18.724  30.728   6.061  0.00  0.00     0.087 H 
ATOM     36  C2  W32 d   1      16.291  28.418   6.080  0.00  0.00    -0.068 A 
ATOM     37  H1  W32 d   1      18.271  28.453   5.226  0.00  0.00     0.083 H 
ATOM     38  C10 W32 d   1      15.370  29.134   6.809  0.00  0.00     0.050 A 
ATOM     39  H2  W32 d   1      16.057  27.419   5.730  0.00  0.00     0.084 H 
ATOM     40  C6  W32 d   1      15.605  30.408   7.268  0.00  0.00    -0.036 A 
ATOM     41  H6  W32 d   1      14.852  30.953   7.825  0.00  0.00     0.089 H 
BRANCH  38  42
ATOM     42  C25 W32 d   1      14.038  28.522   7.120  0.00  0.00     0.417 C 
ATOM     43  F35 W32 d   1      14.097  27.611   8.115  0.00  0.00    -0.166 F 
ATOM     44  F36 W32 d   1      13.166  29.438   7.562  0.00  0.00    -0.166 F 
ATOM     45  F37 W32 d   1      13.559  27.856   6.039  0.00  0.00    -0.166 F 
ENDBRANCH  38  42
ENDBRANCH  31  32
ENDBRANCH  25  31
ENDBRANCH  19  21
ENDBRANCH   4  19
BRANCH   6  46
ATOM     46  C19 W32 d   1      17.734  35.864  16.810  0.00  0.00     0.247 C 
ATOM     47  N30 W32 d   1      18.733  35.791  15.867  0.00  0.00    -0.356 N 
ATOM     48  H23 W32 d   1      18.550  35.370  14.979  0.00  0.00     0.162 HD
ATOM     49  O31 W32 d   1      17.835  36.482  17.860  0.00  0.00    -0.268 OA
BRANCH  47  50
ATOM     50  C23 W32 d   1      20.048  36.322  16.157  0.00  0.00     0.008 C 
ATOM     51  H17 W32 d   1      20.662  36.272  15.246  0.00  0.00     0.065 H 
ATOM     52  H18 W32 d   1      19.948  37.370  16.474  0.00  0.00     0.065 H 
BRANCH  50  53
ATOM     53  C24 W32 d   1      20.735  35.538  17.258  0.00  0.00     0.043 C 
ATOM     54  H19 W32 d   1      20.928  34.514  16.907  0.00  0.00     0.058 H 
ATOM     55  H20 W32 d   1      20.081  35.505  18.142  0.00  0.00     0.058 H 
BRANCH  53  56
ATOM     56  S38 W32 d   1      22.276  36.305  17.700  0.00  0.00     0.142 S 
ATOM     57  O32 W32 d   1      23.066  36.437  16.489  0.00  0.00    -0.228 OA
ATOM     58  O33 W32 d   1      21.997  37.443  18.557  0.00  0.00    -0.228 OA
BRANCH  56  59
ATOM     59  C22 W32 d   1      23.039  35.053  18.700  0.00  0.00     0.016 C 
ATOM     60  H14 W32 d   1      24.021  35.408  19.046  0.00  0.00     0.048 H 
ATOM     61  H15 W32 d   1      23.169  34.137  18.105  0.00  0.00     0.048 H 
ATOM     62  H16 W32 d   1      22.400  34.838  19.569  0.00  0.00     0.048 H 
ENDBRANCH  56  59
ENDBRANCH  53  56
ENDBRANCH  50  53
ENDBRANCH  47  50
ENDBRANCH   6  46
TORSDOF 10
