REMARK  8 active torsions:
REMARK  status: ('A' for Active; 'I' for Inactive)
REMARK    1  A    between atoms: N29_29  and  C12_12 
REMARK    2  A    between atoms: O33_33  and  C13_13 
REMARK    3  A    between atoms: C14_14  and  O33_33 
REMARK    4  A    between atoms: C18_18  and  N29_29 
REMARK    5  A    between atoms: C21_21  and  C20_20 
REMARK       I    between atoms: N30_30  and  C21_21 
REMARK    6  A    between atoms: C24_24  and  C25_25 
REMARK    7  A    between atoms: C24_24  and  N30_30 
REMARK    8  A    between atoms: C25_25  and  O32_32 
ROOT
ATOM      1  C9  W19 d   1      13.206  33.879  13.892  0.00  0.00     0.091 A 
ATOM      2  C11 W19 d   1      15.416  34.831  15.041  0.00  0.00     0.056 A 
ATOM      3  C17 W19 d   1      14.195  34.843  15.716  0.00  0.00     0.139 A 
ATOM      4  C18 W19 d   1      15.423  34.319  13.754  0.00  0.00     0.143 A 
ATOM      5  C19 W19 d   1      16.666  35.410  15.571  0.00  0.00    -0.054 C 
ATOM      6  C20 W19 d   1      17.056  35.495  16.845  0.00  0.00     0.012 C 
ATOM      7  C22 W19 d   1      16.242  34.990  17.968  0.00  0.00    -0.021 C 
ATOM      8  C23 W19 d   1      14.981  35.845  17.906  0.00  0.00    -0.002 C 
ATOM      9  N26 W19 d   1      13.087  34.359  15.127  0.00  0.00    -0.224 NA
ATOM     10  N27 W19 d   1      14.331  33.828  13.171  0.00  0.00    -0.223 NA
ATOM     11  N28 W19 d   1      13.954  35.300  17.025  0.00  0.00    -0.374 N 
ATOM     12  H9  W19 d   1      12.306  33.493  13.426  0.00  0.00     0.146 H 
ATOM     13  H10 W19 d   1      17.355  35.818  14.832  0.00  0.00     0.086 H 
ATOM     14  H11 W19 d   1      16.764  35.129  18.926  0.00  0.00     0.042 H 
ATOM     15  H12 W19 d   1      16.002  33.925  17.832  0.00  0.00     0.042 H 
ATOM     16  H13 W19 d   1      15.256  36.846  17.543  0.00  0.00     0.064 H 
ATOM     17  H14 W19 d   1      14.563  35.925  18.921  0.00  0.00     0.064 H 
ATOM     18  H19 W19 d   1      12.990  35.246  17.384  0.00  0.00     0.161 HD
ENDROOT
BRANCH   4  19
ATOM     19  N29 W19 d   1      16.639  34.299  13.000  0.00  0.00    -0.340 N 
ATOM     20  H20 W19 d   1      17.506  34.611  13.461  0.00  0.00     0.167 HD
BRANCH  19  21
ATOM     21  C12 W19 d   1      16.710  33.878  11.670  0.00  0.00     0.035 A 
ATOM     22  C2  W19 d   1      17.528  32.828  11.266  0.00  0.00    -0.054 A 
ATOM     23  C4  W19 d   1      17.579  32.471   9.937  0.00  0.00    -0.046 A 
ATOM     24  H2  W19 d   1      18.124  32.292  11.996  0.00  0.00     0.087 H 
ATOM     25  C14 W19 d   1      16.811  33.150   9.012  0.00  0.00     0.098 A 
ATOM     26  H4  W19 d   1      18.221  31.658   9.617  0.00  0.00     0.087 H 
ATOM     27  C16 W19 d   1      15.994  34.197   9.399  0.00  0.00     0.070 A 
ATOM     28  C7  W19 d   1      15.949  34.558  10.724  0.00  0.00    -0.033 A 
ATOM     29 CL1  W19 d   1      15.045  35.036   8.221  0.00  0.00    -0.081 Cl
ATOM     30  H7  W19 d   1      15.315  35.380  11.035  0.00  0.00     0.089 H 
BRANCH  25  31
ATOM     31  O33 W19 d   1      16.866  32.825   7.666  0.00  0.00    -0.308 OA
BRANCH  31  32
ATOM     32  C13 W19 d   1      16.909  31.483   7.294  0.00  0.00     0.087 A 
ATOM     33  C3  W19 d   1      18.065  30.956   6.741  0.00  0.00    -0.049 A 
ATOM     34  C1  W19 d   1      18.138  29.637   6.346  0.00  0.00    -0.079 A 
ATOM     35  H3  W19 d   1      18.932  31.595   6.616  0.00  0.00     0.087 H 
ATOM     36  C5  W19 d   1      17.058  28.787   6.482  0.00  0.00    -0.065 A 
ATOM     37  H1  W19 d   1      19.061  29.260   5.920  0.00  0.00     0.083 H 
ATOM     38  C15 W19 d   1      15.918  29.340   7.042  0.00  0.00     0.017 A 
ATOM     39  H5  W19 d   1      17.100  27.750   6.170  0.00  0.00     0.085 H 
ATOM     40  C10 W19 d   1      15.817  30.669   7.445  0.00  0.00     0.015 A 
ATOM     41  S34 W19 d   1      14.404  28.588   7.348  0.00  0.00    -0.101 SA
ATOM     42  C6  W19 d   1      14.534  30.996   7.976  0.00  0.00    -0.063 A 
ATOM     43  C8  W19 d   1      13.632  29.965   8.008  0.00  0.00    -0.043 A 
ATOM     44  H6  W19 d   1      14.289  31.996   8.331  0.00  0.00     0.085 H 
ATOM     45  H8  W19 d   1      12.611  30.013   8.384  0.00  0.00     0.095 H 
ENDBRANCH  31  32
ENDBRANCH  25  31
ENDBRANCH  19  21
ENDBRANCH   4  19
BRANCH   6  46
ATOM     46  C21 W19 d   1      18.350  36.181  17.117  0.00  0.00     0.247 C 
ATOM     47  N30 W19 d   1      19.290  36.032  16.134  0.00  0.00    -0.355 N 
ATOM     48  H21 W19 d   1      19.319  35.193  15.591  0.00  0.00     0.162 HD
ATOM     49  O31 W19 d   1      18.538  36.839  18.137  0.00  0.00    -0.268 OA
BRANCH  47  50
ATOM     50  C24 W19 d   1      20.241  37.091  15.883  0.00  0.00     0.015 C 
ATOM     51  H15 W19 d   1      20.170  37.396  14.829  0.00  0.00     0.067 H 
ATOM     52  H16 W19 d   1      20.003  37.949  16.529  0.00  0.00     0.067 H 
BRANCH  50  53
ATOM     53  C25 W19 d   1      21.650  36.633  16.170  0.00  0.00     0.031 C 
ATOM     54  H17 W19 d   1      22.358  37.454  15.982  0.00  0.00     0.076 H 
ATOM     55  H18 W19 d   1      21.905  35.775  15.530  0.00  0.00     0.076 H 
BRANCH  53  56
ATOM     56  O32 W19 d   1      21.700  36.251  17.537  0.00  0.00    -0.399 OA
ATOM     57  H22 W19 d   1      22.578  35.956  17.750  0.00  0.00     0.209 HD
ENDBRANCH  53  56
ENDBRANCH  50  53
ENDBRANCH  47  50
ENDBRANCH   6  46
TORSDOF 8
