REMARK  14 active torsions:
REMARK  status: ('A' for Active; 'I' for Inactive)
REMARK    1  A    between atoms: CAA_1  and  CAO_2 
REMARK    2  A    between atoms: CAO_2  and  CAB_3 
REMARK    3  A    between atoms: CAO_2  and  CAJ_4 
REMARK    4  A    between atoms: CAJ_4  and  CAL_5 
REMARK    5  A    between atoms: CAL_5  and  CAN_6 
REMARK    6  A    between atoms: CAN_6  and  CAP_7 
REMARK    7  A    between atoms: CAP_7  and  CAC_8 
REMARK    8  A    between atoms: CAP_7  and  CAK_9 
REMARK    9  A    between atoms: CAK_9  and  CAM_10 
REMARK   10  A    between atoms: CAM_10  and  CAV_11 
REMARK   11  A    between atoms: CAS_12  and  OAG_13 
REMARK   12  A    between atoms: CAU_14  and  CAI_15 
REMARK   13  A    between atoms: CAQ_17  and  CAD_18 
REMARK   14  A    between atoms: CAR_21  and  OAF_22 
ROOT
ATOM      1  CAK RNB d   1      88.307  35.644  38.730  0.00  0.00    -0.097 C 
ATOM      2  H15 RNB d   1      89.225  35.766  38.157  0.00  0.00     0.077 H 
ENDROOT
BRANCH   1   3
ATOM      3  CAP RNB d   1      87.791  36.813  39.532  0.00  0.00    -0.087 C 
BRANCH   3   4
ATOM      4  CAN RNB d   1      88.672  38.066  39.595  0.00  0.00    -0.042 C 
ATOM      5  H10 RNB d   1      89.580  37.922  38.991  0.00  0.00     0.040 H 
ATOM      6  H11 RNB d   1      88.117  38.939  39.221  0.00  0.00     0.040 H 
BRANCH   4   7
ATOM      7  CAL RNB d   1      89.047  38.269  41.080  0.00  0.00    -0.046 C 
ATOM      8  H8  RNB d   1      88.143  38.534  41.648  0.00  0.00     0.039 H 
ATOM      9  H9  RNB d   1      89.468  37.334  41.477  0.00  0.00     0.039 H 
BRANCH   7  10
ATOM     10  CAJ RNB d   1      90.087  39.396  41.231  0.00  0.00    -0.101 C 
ATOM     11  H7  RNB d   1      90.651  39.739  40.365  0.00  0.00     0.077 H 
BRANCH  10  12
ATOM     12  CAO RNB d   1      90.327  40.040  42.619  0.00  0.00    -0.091 C 
BRANCH  12  13
ATOM     13  CAA RNB d   1      89.527  39.577  43.840  0.00  0.00    -0.055 C 
ATOM     14  H1  RNB d   1      89.841  40.152  44.724  0.00  0.00     0.033 H 
ATOM     15  H2  RNB d   1      89.711  38.507  44.014  0.00  0.00     0.033 H 
ATOM     16  H3  RNB d   1      88.454  39.740  43.659  0.00  0.00     0.033 H 
ENDBRANCH  12  13
BRANCH  12  17
ATOM     17  CAB RNB d   1      91.362  41.160  42.774  0.00  0.00    -0.055 C 
ATOM     18  H4  RNB d   1      91.835  41.359  41.801  0.00  0.00     0.033 H 
ATOM     19  H5  RNB d   1      92.130  40.852  43.499  0.00  0.00     0.033 H 
ATOM     20  H6  RNB d   1      90.864  42.073  43.133  0.00  0.00     0.033 H 
ENDBRANCH  12  17
ENDBRANCH  10  12
ENDBRANCH   7  10
ENDBRANCH   4   7
ENDBRANCH   3   4
BRANCH   3  21
ATOM     21  CAC RNB d   1      86.413  36.792  40.276  0.00  0.00    -0.055 C 
ATOM     22  H12 RNB d   1      85.926  35.818  40.119  0.00  0.00     0.033 H 
ATOM     23  H13 RNB d   1      85.770  37.592  39.880  0.00  0.00     0.033 H 
ATOM     24  H14 RNB d   1      86.575  36.952  41.352  0.00  0.00     0.033 H 
ENDBRANCH   3  21
ENDBRANCH   1   3
BRANCH   1  25
ATOM     25  CAM RNB d   1      87.594  34.303  38.692  0.00  0.00    -0.020 C 
ATOM     26  H16 RNB d   1      87.424  33.993  37.650  0.00  0.00     0.046 H 
ATOM     27  H17 RNB d   1      86.629  34.371  39.216  0.00  0.00     0.046 H 
BRANCH  25  28
ATOM     28  CAV RNB d   1      88.437  33.378  39.343  0.00  0.00     0.014 A 
ATOM     29  CAS RNB d   1      89.252  32.505  38.640  0.00  0.00     0.088 A 
ATOM     30  CAU RNB d   1      90.105  31.589  39.273  0.00  0.00     0.043 A 
ATOM     31  CAQ RNB d   1      90.150  31.555  40.670  0.00  0.00    -0.021 A 
ATOM     32  CAT RNB d   1      89.338  32.438  41.419  0.00  0.00     0.074 A 
ATOM     33 CL   RNB d   1      89.246  32.538  43.282  0.00  0.00    -0.081 Cl
ATOM     34  CAR RNB d   1      88.521  33.319  40.725  0.00  0.00     0.097 A 
BRANCH  29  35
ATOM     35  OAG RNB d   1      89.221  32.547  37.287  0.00  0.00    -0.359 OA
ATOM     36  H18 RNB d   1      89.823  31.901  36.937  0.00  0.00     0.217 HD
ENDBRANCH  29  35
BRANCH  30  37
ATOM     37  CAI RNB d   1      90.896  30.697  38.535  0.00  0.00     0.121 C 
ATOM     38  OAE RNB d   1      91.253  30.934  37.400  0.00  0.00    -0.301 OA
ATOM     39  H19 RNB d   1      91.201  29.759  38.997  0.00  0.00     0.151 H 
ENDBRANCH  30  37
BRANCH  31  40
ATOM     40  CAD RNB d   1      91.019  30.629  41.275  0.00  0.00    -0.049 C 
ATOM     41  H20 RNB d   1      91.543  30.055  40.496  0.00  0.00     0.033 H 
ATOM     42  H21 RNB d   1      90.439  29.942  41.909  0.00  0.00     0.033 H 
ATOM     43  H22 RNB d   1      91.754  31.166  41.892  0.00  0.00     0.033 H 
ENDBRANCH  31  40
BRANCH  34  44
ATOM     44  OAF RNB d   1      87.768  34.154  41.467  0.00  0.00    -0.358 OA
ATOM     45  H23 RNB d   1      87.252  34.708  40.893  0.00  0.00     0.217 HD
ENDBRANCH  34  44
ENDBRANCH  25  28
ENDBRANCH   1  25
TORSDOF 14
