REMARK  5 active torsions:
REMARK  status: ('A' for Active; 'I' for Inactive)
REMARK    1  A    between atoms: C15_5  and  O48_24 
REMARK    2  A    between atoms: C24_11  and  O42_21 
REMARK    3  A    between atoms: C31_13  and  C62_26 
REMARK    4  A    between atoms: C39_16  and  O44_22 
REMARK    5  A    between atoms: O48_24  and  C59_25 
ROOT
ATOM      1  C2  1FM d   1      17.578  38.005  45.232  0.00  0.00     0.096 A 
ATOM      2  C3  1FM d   1      17.367  39.116  44.365  0.00  0.00    -0.014 A 
ATOM      3  C11 1FM d   1      18.855  37.420  45.268  0.00  0.00     0.172 A 
ATOM      4  C14 1FM d   1      18.434  39.599  43.597  0.00  0.00    -0.043 A 
ATOM      5  C15 1FM d   1      19.695  39.009  43.667  0.00  0.00     0.053 A 
ATOM      6  O15 1FM d   1      15.273  37.842  45.985  0.00  0.00    -0.312 OA
ATOM      7  C16 1FM d   1      19.896  37.916  44.500  0.00  0.00     0.039 A 
ATOM      8  C17 1FM d   1      15.338  39.854  43.108  0.00  0.00    -0.100 C 
ATOM      9  C18 1FM d   1      12.928  38.182  45.723  0.00  0.00    -0.040 C 
ATOM     10  C23 1FM d   1      16.074  39.807  44.240  0.00  0.00    -0.075 C 
ATOM     11  C24 1FM d   1      12.924  39.498  42.405  0.00  0.00     0.070 C 
ATOM     12  C26 1FM d   1      16.549  37.375  46.140  0.00  0.00     0.298 C 
ATOM     13  C31 1FM d   1      13.973  37.670  46.710  0.00  0.00     0.045 C 
ATOM     14  C34 1FM d   1      13.897  40.368  43.148  0.00  0.00    -0.023 C 
ATOM     15  O38 1FM d   1      16.831  36.516  46.981  0.00  0.00    -0.259 OA
ATOM     16  C39 1FM d   1      11.456  39.764  42.515  0.00  0.00     0.117 C 
ATOM     17  C40 1FM d   1      11.410  38.500  43.341  0.00  0.00     0.158 C 
ATOM     18  O40 1FM d   1      11.954  37.475  42.985  0.00  0.00    -0.295 OA
ATOM     19  C41 1FM d   1      10.666  38.516  44.640  0.00  0.00    -0.007 C 
ATOM     20  C42 1FM d   1      11.471  37.774  45.710  0.00  0.00    -0.057 C 
ATOM     21  O46 1FM d   1      19.129  36.461  45.973  0.00  0.00    -0.292 OA
ATOM     22  H1  1FM d   1      18.276  40.449  42.935  0.00  0.00     0.088 H 
ATOM     23  H2  1FM d   1      20.238  37.090  43.860  0.00  0.00     0.055 H 
ATOM     24  H3  1FM d   1      20.699  38.195  45.198  0.00  0.00     0.055 H 
ATOM     25  H4  1FM d   1      15.771  39.525  42.164  0.00  0.00     0.076 H 
ATOM     26  H5  1FM d   1      13.314  37.922  44.726  0.00  0.00     0.036 H 
ATOM     27  H6  1FM d   1      12.925  39.276  45.841  0.00  0.00     0.036 H 
ATOM     28  H7  1FM d   1      15.684  40.315  45.120  0.00  0.00     0.084 H 
ATOM     29  H8  1FM d   1      12.995  38.593  43.027  0.00  0.00     0.087 H 
ATOM     30  H9  1FM d   1      13.801  36.596  46.876  0.00  0.00     0.083 H 
ATOM     31  H10 1FM d   1      13.874  41.373  42.702  0.00  0.00     0.042 H 
ATOM     32  H11 1FM d   1      13.578  40.426  44.199  0.00  0.00     0.042 H 
ATOM     33  H12 1FM d   1      10.962  39.646  41.539  0.00  0.00     0.099 H 
ATOM     34  H13 1FM d   1       9.692  38.022  44.509  0.00  0.00     0.044 H 
ATOM     35  H14 1FM d   1      10.509  39.557  44.958  0.00  0.00     0.044 H 
ATOM     36  H15 1FM d   1      11.034  37.993  46.696  0.00  0.00     0.033 H 
ATOM     37  H16 1FM d   1      11.409  36.694  45.513  0.00  0.00     0.033 H 
ENDROOT
BRANCH   5  38
ATOM     38  O48 1FM d   1      20.728  39.514  42.900  0.00  0.00    -0.360 OA
BRANCH  38  39
ATOM     39  C59 1FM d   1      21.981  39.570  43.577  0.00  0.00     0.010 C 
ATOM     40  H19 1FM d   1      22.745  39.981  42.901  0.00  0.00     0.066 H 
ATOM     41  H20 1FM d   1      22.275  38.557  43.889  0.00  0.00     0.066 H 
ATOM     42  H21 1FM d   1      21.890  40.215  44.463  0.00  0.00     0.066 H 
ENDBRANCH  38  39
ENDBRANCH   5  38
BRANCH  13  43
ATOM     43  C62 1FM d   1      13.933  38.337  48.083  0.00  0.00    -0.052 C 
ATOM     44  H22 1FM d   1      12.950  38.164  48.546  0.00  0.00     0.030 H 
ATOM     45  H23 1FM d   1      14.101  39.418  47.970  0.00  0.00     0.030 H 
ATOM     46  H24 1FM d   1      14.719  37.909  48.722  0.00  0.00     0.030 H 
ENDBRANCH  13  43
BRANCH  11  47
ATOM     47  O42 1FM d   1      13.305  38.991  41.207  0.00  0.00    -0.392 OA
ATOM     48  H17 1FM d   1      12.858  38.166  41.057  0.00  0.00     0.210 HD
ENDBRANCH  11  47
BRANCH  16  49
ATOM     49  O44 1FM d   1      10.898  40.931  43.071  0.00  0.00    -0.385 OA
ATOM     50  H18 1FM d   1      10.991  41.649  42.456  0.00  0.00     0.210 HD
ENDBRANCH  16  49
TORSDOF 5
