REMARK  9 active torsions:
REMARK  status: ('A' for Active; 'I' for Inactive)
REMARK    1  A    between atoms: C1_2  and  N3_6 
REMARK    2  A    between atoms: C2_4  and  C3_5 
REMARK    3  A    between atoms: N3_6  and  C14_20 
REMARK    4  A    between atoms: C18_24  and  C20_26 
REMARK    5  A    between atoms: C20_26  and  C21_27 
REMARK       I    between atoms: C21_27  and  N4_28 
REMARK    6  A    between atoms: N4_28  and  C22_30 
REMARK    7  A    between atoms: C22_30  and  C23_31 
REMARK    8  A    between atoms: C22_30  and  C24_32 
REMARK    9  A    between atoms: C22_30  and  C25_33 
ROOT
ATOM      1  N3  NVW d   1      24.295  17.992 -15.927  0.00  0.00    -0.340 N 
ATOM      2  H1  NVW d   1      24.106  17.947 -14.915  0.00  0.00     0.167 HD
ENDROOT
BRANCH   1   3
ATOM      3  C1  NVW d   1      25.577  18.402 -16.363  0.00  0.00     0.154 A 
ATOM      4  N2  NVW d   1      25.700  18.890 -17.602  0.00  0.00    -0.209 NA
ATOM      5  C2  NVW d   1      26.899  19.295 -18.030  0.00  0.00     0.162 A 
ATOM      6  N1  NVW d   1      28.018  19.234 -17.297  0.00  0.00    -0.231 NA
ATOM      7  C9  NVW d   1      27.905  18.740 -16.059  0.00  0.00     0.062 A 
ATOM      8  C10 NVW d   1      26.697  18.321 -15.557  0.00  0.00     0.129 A 
ATOM      9  C13 NVW d   1      29.198  18.703 -15.304  0.00  0.00    -0.022 C 
ATOM     10  S1  NVW d   1      26.641  17.693 -13.897  0.00  0.00     0.181 S 
ATOM     11  C11 NVW d   1      28.236  16.966 -13.731  0.00  0.00     0.034 C 
ATOM     12  O1  NVW d   1      26.715  18.838 -13.015  0.00  0.00    -0.222 OA
ATOM     13  O2  NVW d   1      25.617  16.690 -13.835  0.00  0.00    -0.222 OA
ATOM     14  C12 NVW d   1      29.248  18.075 -13.926  0.00  0.00    -0.048 C 
ATOM     15  H7  NVW d   1      28.378  16.186 -14.494  0.00  0.00     0.056 H 
ATOM     16  H8  NVW d   1      28.348  16.524 -12.730  0.00  0.00     0.056 H 
ATOM     17  H9  NVW d   1      30.254  17.660 -13.769  0.00  0.00     0.034 H 
ATOM     18  H10 NVW d   1      29.054  18.859 -13.179  0.00  0.00     0.034 H 
ATOM     19  H11 NVW d   1      29.531  19.745 -15.191  0.00  0.00     0.042 H 
ATOM     20  H12 NVW d   1      29.917  18.154 -15.930  0.00  0.00     0.042 H 
BRANCH   5  21
ATOM     21  C3  NVW d   1      26.947  19.855 -19.396  0.00  0.00     0.012 A 
ATOM     22  C4  NVW d   1      28.122  19.963 -20.122  0.00  0.00    -0.069 A 
ATOM     23  C5  NVW d   1      28.163  20.462 -21.414  0.00  0.00    -0.082 A 
ATOM     24  H2  NVW d   1      29.049  19.643 -19.660  0.00  0.00     0.085 H 
ATOM     25  C6  NVW d   1      27.017  20.891 -22.042  0.00  0.00    -0.083 A 
ATOM     26  H3  NVW d   1      29.111  20.515 -21.937  0.00  0.00     0.083 H 
ATOM     27  C7  NVW d   1      25.836  20.799 -21.335  0.00  0.00    -0.082 A 
ATOM     28  H4  NVW d   1      27.041  21.285 -23.051  0.00  0.00     0.083 H 
ATOM     29  C8  NVW d   1      25.800  20.290 -20.049  0.00  0.00    -0.069 A 
ATOM     30  H5  NVW d   1      24.915  21.133 -21.798  0.00  0.00     0.083 H 
ATOM     31  H6  NVW d   1      24.848  20.229 -19.535  0.00  0.00     0.085 H 
ENDBRANCH   5  21
ENDBRANCH   1   3
BRANCH   1  32
ATOM     32  C14 NVW d   1      23.259  17.640 -16.831  0.00  0.00     0.033 A 
ATOM     33  C15 NVW d   1      22.756  18.519 -17.772  0.00  0.00    -0.057 A 
ATOM     34  C19 NVW d   1      21.748  18.136 -18.635  0.00  0.00    -0.074 A 
ATOM     35  H13 NVW d   1      23.159  19.524 -17.833  0.00  0.00     0.086 H 
ATOM     36  C18 NVW d   1      21.200  16.861 -18.590  0.00  0.00    -0.049 A 
ATOM     37  H16 NVW d   1      21.376  18.847 -19.364  0.00  0.00     0.084 H 
ATOM     38  C16 NVW d   1      21.694  15.989 -17.647  0.00  0.00    -0.074 A 
ATOM     39  C17 NVW d   1      22.702  16.382 -16.785  0.00  0.00    -0.057 A 
ATOM     40  H14 NVW d   1      21.290  14.986 -17.579  0.00  0.00     0.084 H 
ATOM     41  H15 NVW d   1      23.066  15.675 -16.048  0.00  0.00     0.086 H 
BRANCH  36  42
ATOM     42  C20 NVW d   1      20.115  16.421 -19.527  0.00  0.00     0.033 C 
ATOM     43  H17 NVW d   1      19.144  16.749 -19.127  0.00  0.00     0.054 H 
ATOM     44  H18 NVW d   1      20.130  15.323 -19.599  0.00  0.00     0.054 H 
BRANCH  42  45
ATOM     45  C21 NVW d   1      20.297  17.007 -20.918  0.00  0.00     0.222 C 
ATOM     46  N4  NVW d   1      21.277  16.354 -21.660  0.00  0.00    -0.353 N 
ATOM     47  H19 NVW d   1      21.680  15.542 -21.238  0.00  0.00     0.163 HD
ATOM     48  O3  NVW d   1      19.634  17.971 -21.298  0.00  0.00    -0.273 OA
BRANCH  46  49
ATOM     49  C22 NVW d   1      21.792  16.714 -22.989  0.00  0.00     0.022 C 
BRANCH  49  50
ATOM     50  C23 NVW d   1      22.600  17.989 -23.016  0.00  0.00    -0.054 C 
ATOM     51  H20 NVW d   1      22.945  18.183 -24.042  0.00  0.00     0.030 H 
ATOM     52  H21 NVW d   1      23.470  17.886 -22.350  0.00  0.00     0.030 H 
ATOM     53  H22 NVW d   1      21.974  18.827 -22.675  0.00  0.00     0.030 H 
ENDBRANCH  49  50
BRANCH  49  54
ATOM     54  C24 NVW d   1      22.740  15.633 -23.435  0.00  0.00    -0.054 C 
ATOM     55  H23 NVW d   1      23.138  15.882 -24.430  0.00  0.00     0.030 H 
ATOM     56  H24 NVW d   1      22.205  14.673 -23.484  0.00  0.00     0.030 H 
ATOM     57  H25 NVW d   1      23.570  15.554 -22.717  0.00  0.00     0.030 H 
ENDBRANCH  49  54
BRANCH  49  58
ATOM     58  C25 NVW d   1      20.700  16.812 -24.032  0.00  0.00    -0.054 C 
ATOM     59  H26 NVW d   1      21.143  17.083 -25.002  0.00  0.00     0.030 H 
ATOM     60  H27 NVW d   1      19.974  17.582 -23.732  0.00  0.00     0.030 H 
ATOM     61  H28 NVW d   1      20.189  15.842 -24.120  0.00  0.00     0.030 H 
ENDBRANCH  49  58
ENDBRANCH  46  49
ENDBRANCH  42  45
ENDBRANCH  36  42
ENDBRANCH   1  32
TORSDOF 9
