REMARK  11 active torsions:
REMARK  status: ('A' for Active; 'I' for Inactive)
REMARK    1  A    between atoms: C3_4  and  O3_1 
REMARK    2  A    between atoms: O3_1  and  C26_26 
REMARK    3  A    between atoms: C10_11  and  C19_20 
REMARK    4  A    between atoms: C13_14  and  C18_19 
REMARK    5  A    between atoms: C17_18  and  C20_21 
REMARK    6  A    between atoms: C20_21  and  C21_22 
REMARK    7  A    between atoms: C20_21  and  C22_23 
REMARK    8  A    between atoms: C22_23  and  C23_24 
REMARK    9  A    between atoms: C23_24  and  C24_25 
REMARK   10  A    between atoms: C26_26  and  C27_27 
REMARK   11  A    between atoms: C27_27  and  C28_28 
ROOT
ATOM      1  C1  LHP d   1      64.238  15.210  -8.427  0.00  0.00    -0.055 C 
ATOM      2  C2  LHP d   1      65.325  14.704  -7.394  0.00  0.00    -0.040 C 
ATOM      3  C3  LHP d   1      65.085  13.167  -6.955  0.00  0.00     0.048 C 
ATOM      4  C4  LHP d   1      63.607  12.926  -6.341  0.00  0.00    -0.036 C 
ATOM      5  C5  LHP d   1      62.492  13.393  -7.461  0.00  0.00    -0.044 C 
ATOM      6  C6  LHP d   1      60.969  13.186  -6.865  0.00  0.00    -0.060 C 
ATOM      7  C7  LHP d   1      60.781  14.073  -5.529  0.00  0.00    -0.061 C 
ATOM      8  C8  LHP d   1      61.033  15.660  -5.815  0.00  0.00    -0.046 C 
ATOM      9  C9  LHP d   1      62.546  15.896  -6.379  0.00  0.00    -0.043 C 
ATOM     10  C10 LHP d   1      62.769  15.016  -7.832  0.00  0.00    -0.036 C 
ATOM     11  C11 LHP d   1      62.784  17.448  -6.642  0.00  0.00    -0.060 C 
ATOM     12  C12 LHP d   1      62.589  18.337  -5.359  0.00  0.00    -0.057 C 
ATOM     13  C13 LHP d   1      61.137  18.100  -4.658  0.00  0.00    -0.036 C 
ATOM     14  C14 LHP d   1      60.881  16.493  -4.515  0.00  0.00    -0.043 C 
ATOM     15  C15 LHP d   1      59.433  16.427  -3.822  0.00  0.00    -0.060 C 
ATOM     16  C16 LHP d   1      59.767  17.322  -2.686  0.00  0.00    -0.060 C 
ATOM     17  C17 LHP d   1      60.883  18.408  -3.094  0.00  0.00    -0.044 C 
ATOM     18  H   LHP d   1      64.330  14.635  -9.360  0.00  0.00     0.034 H 
ATOM     19  H   LHP d   1      64.406  16.277  -8.636  0.00  0.00     0.034 H 
ATOM     20  H   LHP d   1      65.283  15.339  -6.497  0.00  0.00     0.036 H 
ATOM     21  H   LHP d   1      66.319  14.789  -7.857  0.00  0.00     0.036 H 
ATOM     22  H   LHP d   1      65.222  12.510  -7.827  0.00  0.00     0.084 H 
ATOM     23  H   LHP d   1      63.484  13.522  -5.425  0.00  0.00     0.037 H 
ATOM     24  H   LHP d   1      63.472  11.860  -6.106  0.00  0.00     0.037 H 
ATOM     25  H   LHP d   1      62.607  12.785  -8.370  0.00  0.00     0.041 H 
ATOM     26  H   LHP d   1      60.812  12.124  -6.624  0.00  0.00     0.033 H 
ATOM     27  H   LHP d   1      60.235  13.503  -7.620  0.00  0.00     0.033 H 
ATOM     28  H   LHP d   1      61.499  13.730  -4.770  0.00  0.00     0.033 H 
ATOM     29  H   LHP d   1      59.756  13.937  -5.153  0.00  0.00     0.033 H 
ATOM     30  H   LHP d   1      60.303  16.009  -6.560  0.00  0.00     0.041 H 
ATOM     31  H   LHP d   1      63.270  15.543  -5.630  0.00  0.00     0.041 H 
ATOM     32  H   LHP d   1      62.072  17.784  -7.410  0.00  0.00     0.033 H 
ATOM     33  H   LHP d   1      63.812  17.586  -7.008  0.00  0.00     0.033 H 
ATOM     34  H   LHP d   1      62.675  19.395  -5.646  0.00  0.00     0.034 H 
ATOM     35  H   LHP d   1      63.377  18.088  -4.633  0.00  0.00     0.034 H 
ATOM     36  H   LHP d   1      61.622  16.087  -3.810  0.00  0.00     0.041 H 
ATOM     37  H   LHP d   1      59.162  15.411  -3.498  0.00  0.00     0.033 H 
ATOM     38  H   LHP d   1      58.636  16.832  -4.463  0.00  0.00     0.033 H 
ATOM     39  H   LHP d   1      60.149  16.714  -1.853  0.00  0.00     0.033 H 
ATOM     40  H   LHP d   1      58.856  17.849  -2.367  0.00  0.00     0.033 H 
ATOM     41  H   LHP d   1      61.812  18.202  -2.542  0.00  0.00     0.041 H 
ENDROOT
BRANCH  17  42
ATOM     42  C20 LHP d   1      60.435  19.939  -2.710  0.00  0.00    -0.053 C 
ATOM     43  H   LHP d   1      59.511  20.213  -3.240  0.00  0.00     0.040 H 
BRANCH  42  44
ATOM     44  C21 LHP d   1      61.618  20.982  -3.109  0.00  0.00    -0.072 C 
ATOM     45  H   LHP d   1      61.309  22.005  -2.848  0.00  0.00     0.028 H 
ATOM     46  H   LHP d   1      61.810  20.922  -4.190  0.00  0.00     0.028 H 
ATOM     47  H   LHP d   1      62.535  20.725  -2.558  0.00  0.00     0.028 H 
ENDBRANCH  42  44
BRANCH  42  48
ATOM     48  C22 LHP d   1      60.202  19.941  -1.222  0.00  0.00    -0.053 C 
ATOM     49  H   LHP d   1      61.151  19.648  -0.750  0.00  0.00     0.034 H 
ATOM     50  H   LHP d   1      59.439  19.175  -1.018  0.00  0.00     0.034 H 
BRANCH  48  51
ATOM     51  C23 LHP d   1      59.743  21.215  -0.533  0.00  0.00     0.016 C 
ATOM     52  H   LHP d   1      58.809  21.550  -1.008  0.00  0.00     0.049 H 
ATOM     53  H   LHP d   1      60.519  21.983  -0.668  0.00  0.00     0.049 H 
BRANCH  51  54
ATOM     54  C24 LHP d   1      59.499  21.050   0.906  0.00  0.00     0.172 C 
ATOM     55  OT1 LHP d   1      58.522  21.669   1.344  0.00  0.00    -0.648 OA
ATOM     56  OT2 LHP d   1      60.227  20.312   1.606  0.00  0.00    -0.648 OA
ENDBRANCH  51  54
ENDBRANCH  48  51
ENDBRANCH  42  48
ENDBRANCH  17  42
BRANCH  13  57
ATOM     57  C18 LHP d   1      60.015  18.829  -5.673  0.00  0.00    -0.068 C 
ATOM     58  H   LHP d   1      60.248  18.577  -6.718  0.00  0.00     0.028 H 
ATOM     59  H   LHP d   1      60.056  19.920  -5.541  0.00  0.00     0.028 H 
ATOM     60  H   LHP d   1      59.006  18.467  -5.425  0.00  0.00     0.028 H 
ENDBRANCH  13  57
BRANCH  10  61
ATOM     61  C19 LHP d   1      61.803  15.548  -8.927  0.00  0.00    -0.068 C 
ATOM     62  H   LHP d   1      61.952  14.978  -9.856  0.00  0.00     0.028 H 
ATOM     63  H   LHP d   1      62.010  16.612  -9.113  0.00  0.00     0.028 H 
ATOM     64  H   LHP d   1      60.763  15.430  -8.588  0.00  0.00     0.028 H 
ENDBRANCH  10  61
BRANCH   3  65
ATOM     65  O3  LHP d   1      66.026  12.881  -5.994  0.00  0.00    -0.316 OA
BRANCH  65  66
ATOM     66  C26 LHP d   1      66.596  11.752  -5.749  0.00  0.00     0.258 C 
ATOM     67  O25 LHP d   1      66.454  10.582  -6.090  0.00  0.00    -0.265 OA
BRANCH  66  68
ATOM     68  C27 LHP d   1      67.803  11.634  -4.780  0.00  0.00     0.013 C 
ATOM     69  H   LHP d   1      68.448  11.059  -5.461  0.00  0.00     0.047 H 
ATOM     70  H   LHP d   1      67.319  10.949  -4.069  0.00  0.00     0.047 H 
BRANCH  68  71
ATOM     71  C28 LHP d   1      68.955  12.103  -3.809  0.00  0.00    -0.068 C 
ATOM     72  H   LHP d   1      69.501  11.224  -3.436  0.00  0.00     0.028 H 
ATOM     73  H   LHP d   1      68.519  12.651  -2.961  0.00  0.00     0.028 H 
ATOM     74  H   LHP d   1      69.648  12.761  -4.353  0.00  0.00     0.028 H 
ENDBRANCH  68  71
ENDBRANCH  66  68
ENDBRANCH  65  66
ENDBRANCH   3  65
TORSDOF 11
