REMARK  12 active torsions:
REMARK  status: ('A' for Active; 'I' for Inactive)
REMARK    1  A    between atoms: C27_7  and  C19_8 
REMARK    2  A    between atoms: C19_8  and  C33_9 
REMARK    3  A    between atoms: C20_10  and  C21_11 
REMARK    4  A    between atoms: C17_19  and  C34_20 
REMARK    5  A    between atoms: C34_20  and  C36_21 
REMARK    6  A    between atoms: C34_20  and  C35_22 
REMARK    7  A    between atoms: C16_26  and  C15_27 
REMARK       I    between atoms: C15_27  and  N1_29 
REMARK    8  A    between atoms: C6_30  and  C7_36 
REMARK    9  A    between atoms: C1_33  and  C2_34 
REMARK   10  A    between atoms: C2_34  and  C3_35 
REMARK       I    between atoms: C7_36  and  N2_38 
REMARK   11  A    between atoms: C10_40  and  C12_41 
REMARK       I    between atoms: N3_42  and  C13_43 
REMARK   12  A    between atoms: C13_43  and  C14_44 
ROOT
ATOM      1  C19 LTZ d   1     -12.771   3.169  -8.386  0.00  0.00     0.081 C 
ATOM      2  C20 LTZ d   1     -14.148   2.472  -8.572  0.00  0.00     0.072 C 
ATOM      3  N4  LTZ d   1     -14.414   2.918  -9.953  0.00  0.00    -0.317 N 
ATOM      4  C17 LTZ d   1     -15.253   2.510 -10.939  0.00  0.00     0.041 A 
ATOM      5  N5  LTZ d   1     -12.817   4.308  -9.319  0.00  0.00    -0.355 N 
ATOM      6  C18 LTZ d   1     -13.659   3.944 -10.316  0.00  0.00     0.149 A 
ATOM      7  S   LTZ d   1     -13.886   4.599 -11.889  0.00  0.00    -0.046 SA
ATOM      8  C16 LTZ d   1     -15.094   3.392 -12.119  0.00  0.00     0.099 A 
ATOM      9  H8  LTZ d   1     -14.109   1.377  -8.481  0.00  0.00     0.085 H 
ATOM     10  H20 LTZ d   1     -12.311   5.201  -9.231  0.00  0.00     0.162 HD
ENDROOT
BRANCH   8  11
ATOM     11  C15 LTZ d   1     -15.773   3.207 -13.413  0.00  0.00     0.264 C 
ATOM     12  O3  LTZ d   1     -15.637   2.062 -13.817  0.00  0.00    -0.267 OA
ATOM     13  N1  LTZ d   1     -16.390   4.138 -14.140  0.00  0.00    -0.329 N 
ATOM     14  C6  LTZ d   1     -16.731   3.826 -15.524  0.00  0.00     0.092 A 
ATOM     15  C1  LTZ d   1     -16.732   5.474 -13.664  0.00  0.00     0.015 A 
ATOM     16  C5  LTZ d   1     -17.343   5.124 -16.015  0.00  0.00    -0.036 A 
ATOM     17  H21 LTZ d   1     -17.463   3.006 -15.563  0.00  0.00     0.087 H 
ATOM     18  C4  LTZ d   1     -17.433   6.095 -14.860  0.00  0.00    -0.044 A 
ATOM     19  H22 LTZ d   1     -18.350   4.930 -16.412  0.00  0.00     0.036 H 
ATOM     20  H23 LTZ d   1     -16.712   5.552 -16.808  0.00  0.00     0.036 H 
ATOM     21  H24 LTZ d   1     -18.488   6.286 -14.615  0.00  0.00     0.036 H 
ATOM     22  H25 LTZ d   1     -16.942   7.042 -15.130  0.00  0.00     0.036 H 
ATOM     23  H26 LTZ d   1     -15.856   6.051 -13.333  0.00  0.00     0.072 H 
BRANCH  14  24
ATOM     24  C7  LTZ d   1     -15.527   3.451 -16.369  0.00  0.00     0.242 C 
ATOM     25  O1  LTZ d   1     -14.405   3.864 -16.055  0.00  0.00    -0.271 OA
ATOM     26  N2  LTZ d   1     -15.738   2.647 -17.428  0.00  0.00    -0.347 N 
ATOM     27  C11 LTZ d   1     -17.053   2.107 -17.764  0.00  0.00     0.016 C 
ATOM     28  C8  LTZ d   1     -14.665   2.200 -18.321  0.00  0.00     0.013 C 
ATOM     29  C10 LTZ d   1     -17.455   2.580 -19.166  0.00  0.00     0.026 C 
ATOM     30  H32 LTZ d   1     -17.793   2.461 -17.031  0.00  0.00     0.067 H 
ATOM     31  H33 LTZ d   1     -17.014   1.008 -17.745  0.00  0.00     0.067 H 
ATOM     32  N3  LTZ d   1     -16.378   2.221 -20.102  0.00  0.00    -0.345 N 
ATOM     33  H34 LTZ d   1     -18.356   2.019 -19.456  0.00  0.00     0.074 H 
ATOM     34  C13 LTZ d   1     -16.690   1.561 -21.243  0.00  0.00     0.216 C 
ATOM     35  C9  LTZ d   1     -15.027   2.689 -19.722  0.00  0.00     0.013 C 
ATOM     36  O2  LTZ d   1     -15.833   1.147 -22.009  0.00  0.00    -0.274 OA
ATOM     37  H41 LTZ d   1     -15.007   3.789 -19.738  0.00  0.00     0.066 H 
ATOM     38  H42 LTZ d   1     -14.293   2.299 -20.442  0.00  0.00     0.066 H 
ATOM     39  H43 LTZ d   1     -14.595   1.102 -18.309  0.00  0.00     0.066 H 
ATOM     40  H44 LTZ d   1     -13.704   2.632 -18.005  0.00  0.00     0.066 H 
BRANCH  29  41
ATOM     41  C12 LTZ d   1     -17.815   4.072 -19.256  0.00  0.00    -0.056 C 
ATOM     42  H35 LTZ d   1     -18.089   4.321 -20.292  0.00  0.00     0.030 H 
ATOM     43  H36 LTZ d   1     -16.949   4.677 -18.950  0.00  0.00     0.030 H 
ATOM     44  H37 LTZ d   1     -18.665   4.285 -18.591  0.00  0.00     0.030 H 
ENDBRANCH  29  41
BRANCH  34  45
ATOM     45  C14 LTZ d   1     -18.144   1.353 -21.556  0.00  0.00    -0.003 C 
ATOM     46  H38 LTZ d   1     -18.240   0.807 -22.506  0.00  0.00     0.040 H 
ATOM     47  H39 LTZ d   1     -18.644   2.329 -21.642  0.00  0.00     0.040 H 
ATOM     48  H40 LTZ d   1     -18.613   0.771 -20.749  0.00  0.00     0.040 H 
ENDBRANCH  34  45
ENDBRANCH  14  24
BRANCH  15  49
ATOM     49  C2  LTZ d   1     -17.761   5.308 -12.556  0.00  0.00    -0.049 C 
ATOM     50  H27 LTZ d   1     -17.461   4.479 -11.899  0.00  0.00     0.035 H 
ATOM     51  H28 LTZ d   1     -18.744   5.088 -12.999  0.00  0.00     0.035 H 
BRANCH  49  52
ATOM     52  C3  LTZ d   1     -17.847   6.583 -11.750  0.00  0.00    -0.075 C 
ATOM     53  H29 LTZ d   1     -18.591   6.461 -10.949  0.00  0.00     0.027 H 
ATOM     54  H30 LTZ d   1     -18.148   7.412 -12.407  0.00  0.00     0.027 H 
ATOM     55  H31 LTZ d   1     -16.865   6.804 -11.307  0.00  0.00     0.027 H 
ENDBRANCH  49  52
ENDBRANCH  15  49
ENDBRANCH   8  11
BRANCH   4  56
ATOM     56  C34 LTZ d   1     -16.244   1.406 -10.904  0.00  0.00    -0.019 C 
ATOM     57  H13 LTZ d   1     -16.642   1.251 -11.918  0.00  0.00     0.048 H 
BRANCH  56  58
ATOM     58  C36 LTZ d   1     -17.392   1.831 -10.005  0.00  0.00    -0.068 C 
ATOM     59  H14 LTZ d   1     -18.142   1.027  -9.963  0.00  0.00     0.028 H 
ATOM     60  H15 LTZ d   1     -17.855   2.744 -10.408  0.00  0.00     0.028 H 
ATOM     61  H16 LTZ d   1     -17.011   2.030  -8.993  0.00  0.00     0.028 H 
ENDBRANCH  56  58
BRANCH  56  62
ATOM     62  C35 LTZ d   1     -15.567   0.115 -10.469  0.00  0.00    -0.068 C 
ATOM     63  H17 LTZ d   1     -14.751  -0.124 -11.167  0.00  0.00     0.028 H 
ATOM     64  H18 LTZ d   1     -16.302  -0.703 -10.471  0.00  0.00     0.028 H 
ATOM     65  H19 LTZ d   1     -15.158   0.239  -9.455  0.00  0.00     0.028 H 
ENDBRANCH  56  62
ENDBRANCH   4  56
BRANCH   2  66
ATOM     66  C21 LTZ d   1     -15.092   3.056  -7.564  0.00  0.00    -0.032 A 
ATOM     67  C26 LTZ d   1     -15.535   2.285  -6.480  0.00  0.00    -0.073 A 
ATOM     68  C25 LTZ d   1     -16.386   2.833  -5.520  0.00  0.00    -0.061 A 
ATOM     69  H9  LTZ d   1     -15.213   1.254  -6.387  0.00  0.00     0.084 H 
ATOM     70  C24 LTZ d   1     -16.779   4.151  -5.637  0.00  0.00     0.034 A 
ATOM     71  H10 LTZ d   1     -16.735   2.229  -4.690  0.00  0.00     0.086 H 
ATOM     72 CL1  LTZ d   1     -17.832   4.880  -4.392  0.00  0.00    -0.084 Cl
ATOM     73  C23 LTZ d   1     -16.338   4.944  -6.708  0.00  0.00    -0.061 A 
ATOM     74  C22 LTZ d   1     -15.509   4.384  -7.672  0.00  0.00    -0.073 A 
ATOM     75  H11 LTZ d   1     -16.641   5.982  -6.782  0.00  0.00     0.086 H 
ATOM     76  H12 LTZ d   1     -15.183   4.983  -8.515  0.00  0.00     0.084 H 
ENDBRANCH   2  66
BRANCH   1  77
ATOM     77  C27 LTZ d   1     -12.504   3.672  -6.993  0.00  0.00    -0.028 A 
ATOM     78  C28 LTZ d   1     -12.373   2.763  -5.929  0.00  0.00    -0.073 A 
ATOM     79  C29 LTZ d   1     -12.120   3.222  -4.654  0.00  0.00    -0.061 A 
ATOM     80  H2  LTZ d   1     -12.471   1.699  -6.111  0.00  0.00     0.084 H 
ATOM     81  C30 LTZ d   1     -11.999   4.586  -4.447  0.00  0.00     0.034 A 
ATOM     82  H1  LTZ d   1     -12.018   2.527  -3.828  0.00  0.00     0.086 H 
ATOM     83 CL2  LTZ d   1     -11.691   5.159  -2.794  0.00  0.00    -0.084 Cl
ATOM     84  C31 LTZ d   1     -12.116   5.514  -5.486  0.00  0.00    -0.061 A 
ATOM     85  C32 LTZ d   1     -12.355   5.049  -6.770  0.00  0.00    -0.073 A 
ATOM     86  H3  LTZ d   1     -12.022   6.576  -5.292  0.00  0.00     0.086 H 
ATOM     87  H4  LTZ d   1     -12.426   5.746  -7.597  0.00  0.00     0.084 H 
ENDBRANCH   1  77
BRANCH   1  88
ATOM     88  C33 LTZ d   1     -11.631   2.212  -8.756  0.00  0.00    -0.047 C 
ATOM     89  H5  LTZ d   1     -10.666   2.721  -8.619  0.00  0.00     0.031 H 
ATOM     90  H6  LTZ d   1     -11.737   1.904  -9.807  0.00  0.00     0.031 H 
ATOM     91  H7  LTZ d   1     -11.673   1.324  -8.108  0.00  0.00     0.031 H 
ENDBRANCH   1  88
TORSDOF 12
