REMARK  0 active torsions:
REMARK  status: ('A' for Active; 'I' for Inactive)
ROOT
ATOM      1  C24 WPC d   1      69.129 -51.307  -9.124  0.00  0.00    -0.068 A 
ATOM      2  C23 WPC d   1      70.512 -51.271  -9.377  0.00  0.00    -0.082 A 
ATOM      3  C22 WPC d   1      71.209 -52.457  -9.656  0.00  0.00    -0.082 A 
ATOM      4  C21 WPC d   1      70.533 -53.687  -9.678  0.00  0.00    -0.068 A 
ATOM      5  C6  WPC d   1      68.503 -52.533  -9.160  0.00  0.00     0.026 A 
ATOM      6  C7  WPC d   1      67.110 -52.951  -8.966  0.00  0.00     0.165 A 
ATOM      7  N3  WPC d   1      66.138 -52.055  -8.671  0.00  0.00    -0.208 NA
ATOM      8  C4  WPC d   1      64.876 -52.450  -8.291  0.00  0.00     0.165 A 
ATOM      9  C1  WPC d   1      63.874 -51.472  -7.873  0.00  0.00     0.026 A 
ATOM     10  C25 WPC d   1      63.903 -50.109  -7.739  0.00  0.00    -0.068 A 
ATOM     11  C26 WPC d   1      62.749 -49.469  -7.285  0.00  0.00    -0.082 A 
ATOM     12  C27 WPC d   1      61.600 -50.224  -6.982  0.00  0.00    -0.082 A 
ATOM     13  C28 WPC d   1      61.610 -51.618  -7.140  0.00  0.00    -0.068 A 
ATOM     14  C2  WPC d   1      62.777 -52.208  -7.572  0.00  0.00     0.026 A 
ATOM     15  N2  WPC d   1      66.907 -54.280  -9.091  0.00  0.00    -0.208 N 
ATOM     16  N6  WPC d   1      63.694 -56.334  -8.283  0.00  0.00    -0.208 N 
ATOM     17  N4  WPC d   1      66.202 -56.845  -9.114  0.00  0.00    -0.208 N 
ATOM     18  N1  WPC d   1      64.430 -53.752  -8.277  0.00  0.00    -0.208 N 
ATOM     19  C3  WPC d   1      63.138 -53.582  -7.881  0.00  0.00     0.165 A 
ATOM     20  N7  WPC d   1      62.256 -54.612  -7.663  0.00  0.00    -0.208 NA
ATOM     21  C16 WPC d   1      62.479 -55.857  -8.081  0.00  0.00     0.165 C 
ATOM     22  C5  WPC d   1      69.176 -53.681  -9.423  0.00  0.00     0.026 A 
ATOM     23  C8  WPC d   1      68.166 -54.748  -9.292  0.00  0.00     0.165 A 
ATOM     24  N5  WPC d   1      68.465 -56.051  -9.549  0.00  0.00    -0.208 NA
ATOM     25  C11 WPC d   1      67.539 -57.057  -9.397  0.00  0.00     0.165 A 
ATOM     26  C10 WPC d   1      67.853 -58.438  -9.780  0.00  0.00     0.026 A 
ATOM     27  C20 WPC d   1      69.014 -59.080 -10.160  0.00  0.00    -0.068 A 
ATOM     28  C19 WPC d   1      68.959 -60.455 -10.384  0.00  0.00    -0.082 A 
ATOM     29  C18 WPC d   1      67.754 -61.145 -10.191  0.00  0.00    -0.082 A 
ATOM     30  C17 WPC d   1      66.613 -60.450  -9.782  0.00  0.00    -0.068 A 
ATOM     31  C9  WPC d   1      66.715 -59.115  -9.574  0.00  0.00     0.026 A 
ATOM     32  C12 WPC d   1      65.722 -58.112  -9.220  0.00  0.00     0.165 A 
ATOM     33  N8  WPC d   1      64.445 -58.500  -8.890  0.00  0.00    -0.208 NA
ATOM     34  C15 WPC d   1      63.458 -57.596  -8.627  0.00  0.00     0.165 C 
ATOM     35  C14 WPC d   1      62.113 -58.048  -8.261  0.00  0.00     0.026 A 
ATOM     36  C32 WPC d   1      61.469 -59.252  -8.403  0.00  0.00    -0.068 A 
ATOM     37  C13 WPC d   1      61.464 -56.917  -7.924  0.00  0.00     0.026 A 
ATOM     38  C29 WPC d   1      60.103 -56.906  -7.669  0.00  0.00    -0.068 A 
ATOM     39  C30 WPC d   1      59.415 -58.128  -7.737  0.00  0.00    -0.082 A 
ATOM     40  C31 WPC d   1      60.105 -59.305  -8.106  0.00  0.00    -0.082 A 
ATOM     41 FE   WPC d   1      65.323 -55.301  -8.704  0.00  0.00     0.000 Fe
ATOM     42  H1  WPC d   1      68.575 -50.401  -8.908  0.00  0.00     0.085 H 
ATOM     43  H2  WPC d   1      71.041 -50.325  -9.357  0.00  0.00     0.083 H 
ATOM     44  H3  WPC d   1      72.274 -52.423  -9.855  0.00  0.00     0.083 H 
ATOM     45  H4  WPC d   1      71.059 -54.611  -9.888  0.00  0.00     0.085 H 
ATOM     46  H5  WPC d   1      64.796 -49.544  -7.979  0.00  0.00     0.085 H 
ATOM     47  H6  WPC d   1      62.737 -48.392  -7.166  0.00  0.00     0.083 H 
ATOM     48  H7  WPC d   1      60.705 -49.727  -6.626  0.00  0.00     0.083 H 
ATOM     49  H8  WPC d   1      60.728 -52.211  -6.929  0.00  0.00     0.085 H 
ATOM     50  H9  WPC d   1      69.941 -58.532 -10.281  0.00  0.00     0.085 H 
ATOM     51  H10 WPC d   1      69.846 -60.989 -10.707  0.00  0.00     0.083 H 
ATOM     52  H11 WPC d   1      67.708 -62.215 -10.359  0.00  0.00     0.083 H 
ATOM     53  H12 WPC d   1      65.671 -60.965  -9.635  0.00  0.00     0.085 H 
ATOM     54  H13 WPC d   1      62.003 -60.135  -8.736  0.00  0.00     0.085 H 
ATOM     55  H14 WPC d   1      59.586 -55.985  -7.425  0.00  0.00     0.085 H 
ATOM     56  H15 WPC d   1      58.356 -58.169  -7.507  0.00  0.00     0.083 H 
ATOM     57  H16 WPC d   1      59.575 -60.249  -8.159  0.00  0.00     0.083 H 
ATOM     58  H17 WPC d   1      65.870 -55.464  -6.942  0.00  0.00     0.000 HD
ATOM     59  H18 WPC d   1      64.776 -55.138 -10.466  0.00  0.00     0.000 HD
ENDROOT
TORSDOF 0
