REMARK  9 active torsions:
REMARK  status: ('A' for Active; 'I' for Inactive)
REMARK    1  A    between atoms: C2_1  and  C3_2 
REMARK    2  A    between atoms: C2_1  and  N1_6 
REMARK    3  A    between atoms: C3_2  and  C4_3 
REMARK    4  A    between atoms: C4_3  and  C5_4 
REMARK    5  A    between atoms: C5_4  and  C6_5 
REMARK    6  A    between atoms: C6_5  and  C7_7 
REMARK    7  A    between atoms: C7_7  and  C10_8 
REMARK    8  A    between atoms: C7_7  and  C8_11 
REMARK    9  A    between atoms: C8_11  and  S9_12 
ROOT
ATOM      1  C5  DDW d   1       3.194 -17.640   0.572  0.00  0.00    -0.064 C 
ATOM      2  H7  DDW d   1       2.313 -18.299   0.567  0.00  0.00     0.033 H 
ATOM      3  H8  DDW d   1       3.071 -16.870   1.348  0.00  0.00     0.033 H 
ENDROOT
BRANCH   1   4
ATOM      4  C4  DDW d   1       3.330 -16.965  -0.794  0.00  0.00    -0.064 C 
ATOM      5  H5  DDW d   1       3.459 -17.737  -1.567  0.00  0.00     0.033 H 
ATOM      6  H6  DDW d   1       2.418 -16.386  -1.003  0.00  0.00     0.033 H 
BRANCH   4   7
ATOM      7  C3  DDW d   1       4.537 -16.026  -0.815  0.00  0.00    -0.043 C 
ATOM      8  H3  DDW d   1       5.443 -16.589  -0.545  0.00  0.00     0.035 H 
ATOM      9  H4  DDW d   1       4.654 -15.604  -1.824  0.00  0.00     0.035 H 
BRANCH   7  10
ATOM     10  C2  DDW d   1       4.324 -14.892   0.190  0.00  0.00     0.080 C 
ATOM     11  H1  DDW d   1       4.224 -15.318   1.199  0.00  0.00     0.075 H 
ATOM     12  H2  DDW d   1       3.405 -14.347  -0.071  0.00  0.00     0.075 H 
BRANCH  10  13
ATOM     13  N1  DDW d   1       5.459 -13.959   0.172  0.00  0.00    -0.079 N 
ATOM     14  H11 DDW d   1       5.298 -13.221   0.840  0.00  0.00     0.274 HD
ATOM     15  H12 DDW d   1       5.553 -13.563  -0.750  0.00  0.00     0.274 HD
ATOM     16  H13 DDW d   1       6.304 -14.453   0.414  0.00  0.00     0.274 HD
ENDBRANCH  10  13
ENDBRANCH   7  10
ENDBRANCH   4   7
ENDBRANCH   1   4
BRANCH   1  17
ATOM     17  C6  DDW d   1       4.445 -18.469   0.874  0.00  0.00    -0.052 C 
ATOM     18  H9  DDW d   1       5.293 -17.794   1.065  0.00  0.00     0.034 H 
ATOM     19  H10 DDW d   1       4.675 -19.111   0.011  0.00  0.00     0.034 H 
BRANCH  17  20
ATOM     20  C7  DDW d   1       4.203 -19.343   2.108  0.00  0.00     0.038 C 
ATOM     21  H14 DDW d   1       3.337 -19.992   1.914  0.00  0.00     0.057 H 
BRANCH  20  22
ATOM     22  C10 DDW d   1       3.911 -18.485   3.340  0.00  0.00     0.177 C 
ATOM     23  O12 DDW d   1       4.903 -18.046   3.964  0.00  0.00    -0.648 OA
ATOM     24  O11 DDW d   1       2.732 -18.477   3.751  0.00  0.00    -0.648 OA
ENDBRANCH  20  22
BRANCH  20  25
ATOM     25  C8  DDW d   1       5.428 -20.216   2.383  0.00  0.00    -0.013 C 
ATOM     26  H15 DDW d   1       6.308 -19.568   2.506  0.00  0.00     0.050 H 
ATOM     27  H16 DDW d   1       5.585 -20.890   1.528  0.00  0.00     0.050 H 
BRANCH  25  28
ATOM     28  S9  DDW d   1       5.214 -21.220   3.898  0.00  0.00    -0.181 SA
ATOM     29  H17 DDW d   1       6.038 -21.781   4.047  0.00  0.00     0.101 HD
ENDBRANCH  25  28
ENDBRANCH  20  25
ENDBRANCH  17  20
ENDBRANCH   1  17
TORSDOF 9
