REMARK  9 active torsions:
REMARK  status: ('A' for Active; 'I' for Inactive)
REMARK    1  A    between atoms: OBD_1  and  BBC_2 
REMARK    2  A    between atoms: BBC_2  and  OBE_3 
REMARK    3  A    between atoms: BBC_2  and  CAZ_4 
REMARK    4  A    between atoms: CBB_9  and  CAV_10 
REMARK    5  A    between atoms: CAV_10  and  NAS_11 
REMARK    6  A    between atoms: NAP_16  and  CAJ_17 
REMARK    7  A    between atoms: CAL_20  and  OAO_21 
REMARK    8  A    between atoms: CAH_22  and  CAG_23 
REMARK    9  A    between atoms: CAG_23  and  CAF_24 
ROOT
ATOM      1  NAS DWX d   1      18.628  38.450  18.253  0.00  0.00    -0.064 N 
ATOM      2  CAT DWX d   1      17.511  38.136  19.126  0.00  0.00     0.098 C 
ATOM      3  CAU DWX d   1      16.272  38.942  18.874  0.00  0.00     0.020 C 
ATOM      4  CAR DWX d   1      18.232  38.609  16.876  0.00  0.00     0.098 C 
ATOM      5  CAQ DWX d   1      17.017  39.444  16.675  0.00  0.00     0.020 C 
ATOM      6  NAP DWX d   1      15.969  38.941  17.479  0.00  0.00    -0.357 N 
ATOM      7  H12 DWX d   1      18.906  39.377  18.534  0.00  0.00     0.280 HD
ATOM      8  H13 DWX d   1      17.828  38.311  20.165  0.00  0.00     0.078 H 
ATOM      9  H14 DWX d   1      17.261  37.073  18.993  0.00  0.00     0.078 H 
ATOM     10  H15 DWX d   1      16.434  39.976  19.212  0.00  0.00     0.066 H 
ATOM     11  H16 DWX d   1      15.431  38.502  19.430  0.00  0.00     0.066 H 
ATOM     12  H17 DWX d   1      18.036  37.611  16.458  0.00  0.00     0.078 H 
ATOM     13  H18 DWX d   1      19.065  39.078  16.331  0.00  0.00     0.078 H 
ATOM     14  H19 DWX d   1      16.718  39.410  15.617  0.00  0.00     0.066 H 
ATOM     15  H20 DWX d   1      17.234  40.484  16.961  0.00  0.00     0.066 H 
ENDROOT
BRANCH   1  16
ATOM     16  CAV DWX d   1      19.828  37.650  18.482  0.00  0.00     0.107 C 
ATOM     17  H10 DWX d   1      20.042  37.618  19.561  0.00  0.00     0.083 H 
ATOM     18  H11 DWX d   1      19.658  36.628  18.112  0.00  0.00     0.083 H 
BRANCH  16  19
ATOM     19  CBB DWX d   1      20.996  38.245  17.766  0.00  0.00    -0.033 A 
ATOM     20  CBA DWX d   1      21.627  37.543  16.721  0.00  0.00    -0.081 A 
ATOM     21  CAZ DWX d   1      22.736  38.140  16.047  0.00  0.00    -0.118 A 
ATOM     22  H6  DWX d   1      21.275  36.560  16.431  0.00  0.00     0.083 H 
ATOM     23  CAY DWX d   1      23.192  39.423  16.422  0.00  0.00    -0.089 A 
ATOM     24  CAX DWX d   1      22.555  40.121  17.464  0.00  0.00    -0.083 A 
ATOM     25  H7  DWX d   1      24.034  39.870  15.906  0.00  0.00     0.082 H 
ATOM     26  CAW DWX d   1      21.452  39.524  18.134  0.00  0.00    -0.075 A 
ATOM     27  H8  DWX d   1      22.902  41.106  17.754  0.00  0.00     0.083 H 
ATOM     28  H9  DWX d   1      20.958  40.060  18.936  0.00  0.00     0.084 H 
BRANCH  21  29
ATOM     29  BBC DWX d   1      23.606  37.274  14.740  0.00  0.00     0.133 B 
BRANCH  29  30
ATOM     30  OBD DWX d   1      23.495  35.797  14.694  0.00  0.00     0.000 OA
ATOM     31  H1  DWX d   1      22.920  35.546  13.981  0.00  0.00     0.000 HD
ATOM     32  H2  DWX d   1      22.920  35.546  13.981  0.00  0.00     0.000 HD
ENDBRANCH  29  30
BRANCH  29  33
ATOM     33  OBE DWX d   1      24.135  38.061  13.592  0.00  0.00     0.000 OA
ATOM     34  H3  DWX d   1      23.589  37.912  12.829  0.00  0.00     0.000 HD
ATOM     35  H4  DWX d   1      23.589  37.912  12.829  0.00  0.00     0.000 HD
ENDBRANCH  29  33
ENDBRANCH  21  29
ENDBRANCH  16  19
ENDBRANCH   1  16
BRANCH   6  36
ATOM     36  CAJ DWX d   1      14.691  38.385  17.073  0.00  0.00     0.172 A 
ATOM     37  SAI DWX d   1      14.144  38.157  15.495  0.00  0.00    -0.052 SA
ATOM     38  CAH DWX d   1      12.627  37.427  15.898  0.00  0.00     0.043 A 
ATOM     39  CAL DWX d   1      12.620  37.387  17.294  0.00  0.00     0.178 A 
ATOM     40  NAK DWX d   1      13.740  37.896  17.928  0.00  0.00    -0.199 NA
BRANCH  38  41
ATOM     41  CAG DWX d   1      11.508  36.946  15.092  0.00  0.00    -0.007 C 
ATOM     42  H22 DWX d   1      10.624  37.495  15.448  0.00  0.00     0.048 H 
ATOM     43  H23 DWX d   1      11.399  35.879  15.336  0.00  0.00     0.048 H 
BRANCH  41  44
ATOM     44  CAF DWX d   1      11.466  37.030  13.589  0.00  0.00    -0.052 A 
ATOM     45  CAA DWX d   1      11.887  38.161  12.884  0.00  0.00    -0.054 A 
ATOM     46  CAB DWX d   1      11.798  38.180  11.471  0.00  0.00     0.056 A 
ATOM     47  H24 DWX d   1      12.280  39.020  13.416  0.00  0.00     0.087 H 
ATOM     48 CLN  DWX d   1      12.326  39.560  10.585  0.00  0.00    -0.083 Cl
ATOM     49  CAC DWX d   1      11.272  37.074  10.783  0.00  0.00     0.055 A 
ATOM     50 CLM  DWX d   1      11.152  37.103   9.049  0.00  0.00    -0.083 Cl
ATOM     51  CAD DWX d   1      10.836  35.950  11.482  0.00  0.00    -0.060 A 
ATOM     52  CAE DWX d   1      10.928  35.928  12.887  0.00  0.00    -0.075 A 
ATOM     53  H25 DWX d   1      10.429  35.099  10.948  0.00  0.00     0.086 H 
ATOM     54  H26 DWX d   1      10.583  35.058  13.435  0.00  0.00     0.084 H 
ENDBRANCH  41  44
ENDBRANCH  38  41
BRANCH  39  55
ATOM     55  OAO DWX d   1      11.548  36.856  18.045  0.00  0.00    -0.344 OA
ATOM     56  H21 DWX d   1      10.868  36.554  17.454  0.00  0.00     0.219 HD
ENDBRANCH  39  55
ENDBRANCH   6  36
TORSDOF 9
