REMARK  6 active torsions:
REMARK  status: ('A' for Active; 'I' for Inactive)
REMARK    1  A    between atoms: CAF_8  and  CAG_9 
REMARK    2  A    between atoms: NAS_21  and  CAV_22 
REMARK    3  A    between atoms: CAV_22  and  CBB_23 
REMARK    4  A    between atoms: CAY_26  and  BBC_27 
REMARK    5  A    between atoms: BBC_27  and  OBE_28 
REMARK    6  A    between atoms: BBC_27  and  OBD_29 
ROOT
ATOM      1  CAG DWY d   1      11.535  36.911  14.948  0.00  0.00    -0.051 C 
ATOM      2  CAH DWY d   1      12.413  37.526  15.752  0.00  0.00     0.079 C 
ATOM      3  SAI DWY d   1      14.014  38.165  15.319  0.00  0.00    -0.047 SA
ATOM      4  CAL DWY d   1      12.408  37.444  17.113  0.00  0.00     0.286 C 
ATOM      5  OAO DWY d   1      11.452  37.029  17.769  0.00  0.00    -0.265 OA
ATOM      6  NAK DWY d   1      13.456  37.987  17.763  0.00  0.00    -0.184 NA
ATOM      7  CAJ DWY d   1      14.408  38.449  16.931  0.00  0.00     0.173 C 
ATOM      8  NAP DWY d   1      15.597  38.888  17.386  0.00  0.00    -0.357 N 
ATOM      9  CAU DWY d   1      15.868  39.416  18.745  0.00  0.00     0.020 C 
ATOM     10  CAT DWY d   1      17.240  38.908  19.230  0.00  0.00     0.098 C 
ATOM     11  CAQ DWY d   1      16.680  39.154  16.441  0.00  0.00     0.020 C 
ATOM     12  CAR DWY d   1      17.961  38.694  17.056  0.00  0.00     0.098 C 
ATOM     13  NAS DWY d   1      18.347  39.328  18.332  0.00  0.00    -0.064 N 
ATOM     14  H4  DWY d   1      10.840  36.226  15.432  0.00  0.00     0.087 H 
ATOM     15  H5  DWY d   1      15.084  39.071  19.435  0.00  0.00     0.066 H 
ATOM     16  H6  DWY d   1      15.873  40.516  18.717  0.00  0.00     0.066 H 
ATOM     17  H7  DWY d   1      17.216  37.809  19.271  0.00  0.00     0.078 H 
ATOM     18  H8  DWY d   1      17.430  39.309  20.237  0.00  0.00     0.078 H 
ATOM     19  H9  DWY d   1      16.734  40.232  16.231  0.00  0.00     0.066 H 
ATOM     20  H10 DWY d   1      16.499  38.607  15.504  0.00  0.00     0.066 H 
ATOM     21  H11 DWY d   1      18.766  38.885  16.331  0.00  0.00     0.078 H 
ATOM     22  H12 DWY d   1      17.876  37.612  17.233  0.00  0.00     0.078 H 
ATOM     23  H13 DWY d   1      18.395  40.331  18.239  0.00  0.00     0.280 HD
ENDROOT
BRANCH  13  24
ATOM     24  CAV DWY d   1      19.651  38.807  18.873  0.00  0.00     0.107 C 
ATOM     25  H14 DWY d   1      19.471  37.856  19.396  0.00  0.00     0.083 H 
ATOM     26  H15 DWY d   1      20.068  39.541  19.578  0.00  0.00     0.083 H 
BRANCH  24  27
ATOM     27  CBB DWY d   1      20.580  38.591  17.821  0.00  0.00    -0.033 A 
ATOM     28  CAW DWY d   1      20.673  37.261  17.438  0.00  0.00    -0.075 A 
ATOM     29  CAX DWY d   1      21.470  36.876  16.393  0.00  0.00    -0.082 A 
ATOM     30  H16 DWY d   1      20.104  36.512  17.976  0.00  0.00     0.084 H 
ATOM     31  CAY DWY d   1      22.210  37.854  15.776  0.00  0.00    -0.032 A 
ATOM     32  H17 DWY d   1      21.515  35.843  16.067  0.00  0.00     0.083 H 
ATOM     33  CAZ DWY d   1      22.136  39.211  16.104  0.00  0.00    -0.082 A 
ATOM     34  CBA DWY d   1      21.311  39.596  17.177  0.00  0.00    -0.075 A 
ATOM     35  H23 DWY d   1      22.701  39.949  15.545  0.00  0.00     0.083 H 
ATOM     36  H24 DWY d   1      21.244  40.631  17.493  0.00  0.00     0.084 H 
BRANCH  31  37
ATOM     37  BBC DWY d   1      23.187  37.182  14.361  0.00  0.00     0.529 B 
BRANCH  37  38
ATOM     38  OBE DWY d   1      23.589  35.734  14.506  0.00  0.00    -0.433 OA
ATOM     39  H19 DWY d   1      22.931  35.273  15.012  0.00  0.00     0.185 HD
ENDBRANCH  37  38
BRANCH  37  40
ATOM     40  OBD DWY d   1      24.019  38.248  13.594  0.00  0.00    -0.433 OA
ATOM     41  H21 DWY d   1      24.113  37.982  12.687  0.00  0.00     0.185 HD
ENDBRANCH  37  40
ENDBRANCH  31  37
ENDBRANCH  24  27
ENDBRANCH  13  24
BRANCH   1  42
ATOM     42  CAF DWY d   1      11.402  37.046  13.538  0.00  0.00    -0.033 C 
ATOM     43  CAA DWY d   1      11.899  38.070  12.748  0.00  0.00    -0.050 C 
ATOM     44  CAB DWY d   1      11.759  38.004  11.361  0.00  0.00     0.056 C 
ATOM     45  H1  DWY d   1      12.395  38.919  13.205  0.00  0.00     0.087 H 
ATOM     46 CLN  DWY d   1      12.206  39.367  10.380  0.00  0.00    -0.083 Cl
ATOM     47  CAC DWY d   1      11.264  36.840  10.763  0.00  0.00     0.055 C 
ATOM     48 CLM  DWY d   1      11.144  36.716   8.971  0.00  0.00    -0.083 Cl
ATOM     49  CAD DWY d   1      10.884  35.764  11.558  0.00  0.00    -0.059 C 
ATOM     50  CAE DWY d   1      10.976  35.855  12.948  0.00  0.00    -0.071 C 
ATOM     51  H2  DWY d   1      10.516  34.854  11.098  0.00  0.00     0.086 H 
ATOM     52  H3  DWY d   1      10.717  35.004  13.567  0.00  0.00     0.084 H 
ENDBRANCH   1  42
TORSDOF 6
