REMARK  6 active torsions:
REMARK  status: ('A' for Active; 'I' for Inactive)
REMARK    1  A    between atoms: N3_3  and  C4_4 
REMARK    2  A    between atoms: C3_5  and  N2_6 
REMARK    3  A    between atoms: C2_9  and  C1_10 
REMARK    4  A    between atoms: C2_9  and  C7_11 
REMARK    5  A    between atoms: C7_11  and  C8_12 
REMARK    6  A    between atoms: C8_12  and  C9_13 
ROOT
ATOM      1  O   0B3 d   1      16.523  41.982 -10.052  0.00  0.00    -0.272 OA
ATOM      2  C5  0B3 d   1      16.315  41.025  -9.331  0.00  0.00     0.240 C 
ATOM      3  N3  0B3 d   1      15.998  41.170  -8.030  0.00  0.00    -0.156 N 
ATOM      4  C3  0B3 d   1      15.889  40.048  -7.263  0.00  0.00     0.676 C 
ATOM      5  N1  0B3 d   1      16.379  38.930  -7.585  0.00  0.00    -0.217 N 
ATOM      6  C6  0B3 d   1      16.421  39.632  -9.888  0.00  0.00     0.034 C 
ATOM      7  C2  0B3 d   1      17.098  38.762  -8.839  0.00  0.00     0.052 C 
ATOM      8  H6  0B3 d   1      16.268  38.126  -6.951  0.00  0.00     0.178 HD
ATOM      9  H7  0B3 d   1      17.021  39.642 -10.810  0.00  0.00     0.051 H 
ATOM     10  H8  0B3 d   1      15.417  39.240 -10.108  0.00  0.00     0.051 H 
ENDROOT
BRANCH   7  11
ATOM     11  C1  0B3 d   1      17.053  37.306  -9.275  0.00  0.00    -0.052 C 
ATOM     12  H9  0B3 d   1      17.599  37.190 -10.223  0.00  0.00     0.030 H 
ATOM     13  H10 0B3 d   1      16.006  36.997  -9.414  0.00  0.00     0.030 H 
ATOM     14  H11 0B3 d   1      17.521  36.677  -8.503  0.00  0.00     0.030 H 
ENDBRANCH   7  11
BRANCH   7  15
ATOM     15  C7  0B3 d   1      18.564  39.210  -8.709  0.00  0.00    -0.037 C 
ATOM     16  H12 0B3 d   1      18.605  40.308  -8.753  0.00  0.00     0.037 H 
ATOM     17  H13 0B3 d   1      19.140  38.788  -9.546  0.00  0.00     0.037 H 
BRANCH  15  18
ATOM     18  C8  0B3 d   1      19.192  38.744  -7.392  0.00  0.00    -0.039 C 
ATOM     19  H14 0B3 d   1      19.334  37.654  -7.434  0.00  0.00     0.040 H 
ATOM     20  H15 0B3 d   1      18.509  38.993  -6.567  0.00  0.00     0.040 H 
BRANCH  18  21
ATOM     21  C9  0B3 d   1      20.534  39.401  -7.130  0.00  0.00    -0.058 A 
ATOM     22  C14 0B3 d   1      21.623  39.187  -7.969  0.00  0.00    -0.077 A 
ATOM     23  C13 0B3 d   1      22.854  39.806  -7.706  0.00  0.00    -0.082 A 
ATOM     24  H16 0B3 d   1      21.520  38.538  -8.831  0.00  0.00     0.084 H 
ATOM     25  C12 0B3 d   1      22.996  40.637  -6.593  0.00  0.00    -0.083 A 
ATOM     26  H17 0B3 d   1      23.696  39.639  -8.368  0.00  0.00     0.083 H 
ATOM     27  C11 0B3 d   1      21.919  40.853  -5.743  0.00  0.00    -0.082 A 
ATOM     28  H18 0B3 d   1      23.948  41.114  -6.392  0.00  0.00     0.083 H 
ATOM     29  C10 0B3 d   1      20.697  40.228  -6.021  0.00  0.00    -0.077 A 
ATOM     30  H19 0B3 d   1      22.023  41.496  -4.877  0.00  0.00     0.083 H 
ATOM     31  H20 0B3 d   1      19.857  40.392  -5.356  0.00  0.00     0.084 H 
ENDBRANCH  18  21
ENDBRANCH  15  18
ENDBRANCH   7  15
BRANCH   4  32
ATOM     32  N2  0B3 d   1      15.241  40.116  -6.108  0.00  0.00    -0.234 N 
ATOM     33  H4  0B3 d   1      15.151  39.277  -5.518  0.00  0.00     0.174 HD
ATOM     34  H5  0B3 d   1      14.828  41.008  -5.801  0.00  0.00     0.174 HD
ENDBRANCH   4  32
BRANCH   3  35
ATOM     35  C4  0B3 d   1      15.764  42.519  -7.521  0.00  0.00     0.005 C 
ATOM     36  H1  0B3 d   1      15.914  43.248  -8.331  0.00  0.00     0.058 H 
ATOM     37  H2  0B3 d   1      16.469  42.730  -6.703  0.00  0.00     0.058 H 
ATOM     38  H3  0B3 d   1      14.733  42.596  -7.146  0.00  0.00     0.058 H 
ENDBRANCH   3  35
TORSDOF 6
