REMARK  5 active torsions:
REMARK  status: ('A' for Active; 'I' for Inactive)
REMARK    1  A    between atoms: N3_3  and  C4_4 
REMARK    2  A    between atoms: C3_5  and  N2_6 
REMARK    3  A    between atoms: C2_9  and  C1_10 
REMARK    4  A    between atoms: C2_9  and  C7_11 
REMARK    5  A    between atoms: C8_13  and  C10_14 
ROOT
ATOM      1  O   0B4 d   1      18.176  40.749  -9.550  0.00  0.00    -0.272 OA
ATOM      2  C5  0B4 d   1      17.768  39.864  -8.819  0.00  0.00     0.240 C 
ATOM      3  N3  0B4 d   1      17.259  40.119  -7.605  0.00  0.00    -0.156 N 
ATOM      4  C3  0B4 d   1      17.054  39.092  -6.774  0.00  0.00     0.676 C 
ATOM      5  N1  0B4 d   1      17.681  38.002  -6.900  0.00  0.00    -0.216 N 
ATOM      6  C6  0B4 d   1      17.864  38.437  -9.290  0.00  0.00     0.034 C 
ATOM      7  C2  0B4 d   1      18.330  37.579  -8.131  0.00  0.00     0.056 C 
ATOM      8  H6  0B4 d   1      17.736  37.377  -6.083  0.00  0.00     0.178 HD
ATOM      9  H7  0B4 d   1      18.586  38.367 -10.117  0.00  0.00     0.051 H 
ATOM     10  H8  0B4 d   1      16.878  38.092  -9.634  0.00  0.00     0.051 H 
ENDROOT
BRANCH   7  11
ATOM     11  C1  0B4 d   1      18.007  36.122  -8.425  0.00  0.00    -0.052 C 
ATOM     12  H9  0B4 d   1      18.504  35.817  -9.358  0.00  0.00     0.030 H 
ATOM     13  H10 0B4 d   1      16.919  36.002  -8.534  0.00  0.00     0.030 H 
ATOM     14  H11 0B4 d   1      18.364  35.493  -7.596  0.00  0.00     0.030 H 
ENDBRANCH   7  11
BRANCH   7  15
ATOM     15  C7  0B4 d   1      19.846  37.722  -8.023  0.00  0.00    -0.021 A 
ATOM     16  C9  0B4 d   1      20.420  37.000  -6.808  0.00  0.00    -0.051 A 
ATOM     17  C8  0B4 d   1      20.238  38.512  -6.778  0.00  0.00    -0.022 A 
ATOM     18  H13 0B4 d   1      21.431  36.569  -6.852  0.00  0.00     0.034 H 
ATOM     19  H14 0B4 d   1      19.773  36.356  -6.194  0.00  0.00     0.034 H 
ATOM     20  H15 0B4 d   1      19.541  39.037  -6.108  0.00  0.00     0.048 H 
ATOM     21  H12 0B4 d   1      20.364  37.795  -8.990  0.00  0.00     0.044 H 
BRANCH  17  22
ATOM     22  C10 0B4 d   1      21.496  39.228  -7.072  0.00  0.00    -0.054 A 
ATOM     23  C15 0B4 d   1      21.533  40.613  -6.974  0.00  0.00    -0.076 A 
ATOM     24  C14 0B4 d   1      22.710  41.297  -7.250  0.00  0.00    -0.082 A 
ATOM     25  H16 0B4 d   1      20.644  41.160  -6.682  0.00  0.00     0.084 H 
ATOM     26  C13 0B4 d   1      23.847  40.595  -7.625  0.00  0.00    -0.083 A 
ATOM     27  H17 0B4 d   1      22.741  42.378  -7.173  0.00  0.00     0.083 H 
ATOM     28  C12 0B4 d   1      23.808  39.210  -7.724  0.00  0.00    -0.082 A 
ATOM     29  H18 0B4 d   1      24.766  41.128  -7.841  0.00  0.00     0.083 H 
ATOM     30  C11 0B4 d   1      22.632  38.524  -7.452  0.00  0.00    -0.076 A 
ATOM     31  H19 0B4 d   1      24.698  38.663  -8.014  0.00  0.00     0.083 H 
ATOM     32  H20 0B4 d   1      22.600  37.444  -7.536  0.00  0.00     0.084 H 
ENDBRANCH  17  22
ENDBRANCH   7  15
BRANCH   4  33
ATOM     33  N2  0B4 d   1      16.208  39.232  -5.755  0.00  0.00    -0.234 N 
ATOM     34  H4  0B4 d   1      16.044  38.446  -5.110  0.00  0.00     0.174 HD
ATOM     35  H5  0B4 d   1      15.718  40.126  -5.612  0.00  0.00     0.174 HD
ENDBRANCH   4  33
BRANCH   3  36
ATOM     36  C4  0B4 d   1      16.956  41.483  -7.187  0.00  0.00     0.005 C 
ATOM     37  H1  0B4 d   1      17.192  42.178  -8.006  0.00  0.00     0.058 H 
ATOM     38  H2  0B4 d   1      17.560  41.739  -6.304  0.00  0.00     0.058 H 
ATOM     39  H3  0B4 d   1      15.888  41.561  -6.936  0.00  0.00     0.058 H 
ENDBRANCH   3  36
TORSDOF 5
