REMARK  7 active torsions:
REMARK  status: ('A' for Active; 'I' for Inactive)
REMARK    1  A    between atoms: C15_6  and  N10_7 
REMARK    2  A    between atoms: N10_7  and  C4_8 
REMARK    3  A    between atoms: C3_9  and  C14_10 
REMARK    4  A    between atoms: N9_18  and  C13_19 
REMARK    5  A    between atoms: C16_24  and  O21_25 
REMARK    6  A    between atoms: O21_25  and  C24_26 
REMARK    7  A    between atoms: C24_26  and  C27_27 
ROOT
ATOM      1  C4  PDY d   1      27.109  64.467   8.941  0.00  0.00     0.136 A 
ATOM      2  C3  PDY d   1      28.335  64.224   8.105  0.00  0.00     0.030 A 
ATOM      3  N6  PDY d   1      26.603  65.740   9.067  0.00  0.00    -0.211 NA
ATOM      4  C5  PDY d   1      27.196  66.783   8.411  0.00  0.00     0.156 A 
ATOM      5  C8  PDY d   1      26.774  68.157   8.373  0.00  0.00    -0.018 A 
ATOM      6  C11 PDY d   1      27.736  68.758   7.549  0.00  0.00     0.026 A 
ATOM      7  N7  PDY d   1      28.687  67.869   7.062  0.00  0.00    -0.177 NA
ATOM      8  N2  PDY d   1      28.339  66.644   7.612  0.00  0.00    -0.199 N 
ATOM      9  C1  PDY d   1      28.988  65.397   7.427  0.00  0.00     0.141 A 
ATOM     10  N9  PDY d   1      30.103  65.348   6.650  0.00  0.00    -0.340 N 
ATOM     11  H16 PDY d   1      25.918  68.618   8.864  0.00  0.00     0.091 H 
ATOM     12  H17 PDY d   1      27.738  69.821   7.313  0.00  0.00     0.117 H 
ATOM     13  H18 PDY d   1      30.228  66.113   5.971  0.00  0.00     0.167 HD
ENDROOT
BRANCH   2  14
ATOM     14  C14 PDY d   1      28.880  62.813   7.994  0.00  0.00    -0.044 C 
ATOM     15  H13 PDY d   1      28.241  62.127   8.569  0.00  0.00     0.033 H 
ATOM     16  H14 PDY d   1      29.904  62.783   8.394  0.00  0.00     0.033 H 
ATOM     17  H15 PDY d   1      28.890  62.506   6.938  0.00  0.00     0.033 H 
ENDBRANCH   2  14
BRANCH  10  18
ATOM     18  C13 PDY d   1      31.072  64.390   6.678  0.00  0.00     0.033 A 
ATOM     19  C17 PDY d   1      31.630  63.896   7.877  0.00  0.00    -0.055 A 
ATOM     20  C20 PDY d   1      32.615  62.895   7.824  0.00  0.00    -0.049 A 
ATOM     21  H19 PDY d   1      31.301  64.287   8.833  0.00  0.00     0.087 H 
ATOM     22  C16 PDY d   1      33.057  62.405   6.581  0.00  0.00     0.068 A 
ATOM     23  H20 PDY d   1      33.035  62.500   8.742  0.00  0.00     0.087 H 
ATOM     24  C19 PDY d   1      32.489  62.907   5.395  0.00  0.00    -0.049 A 
ATOM     25  C18 PDY d   1      31.508  63.892   5.446  0.00  0.00    -0.055 A 
ATOM     26  H22 PDY d   1      32.818  62.524   4.436  0.00  0.00     0.087 H 
ATOM     27  H21 PDY d   1      31.080  64.275   4.527  0.00  0.00     0.087 H 
BRANCH  22  28
ATOM     28  O21 PDY d   1      34.031  61.418   6.534  0.00  0.00    -0.352 OA
BRANCH  28  29
ATOM     29  C24 PDY d   1      34.823  61.122   5.372  0.00  0.00     0.023 C 
ATOM     30  H23 PDY d   1      34.330  61.540   4.482  0.00  0.00     0.074 H 
ATOM     31  H24 PDY d   1      34.911  60.031   5.263  0.00  0.00     0.074 H 
BRANCH  29  32
ATOM     32  C27 PDY d   1      36.215  61.726   5.502  0.00  0.00    -0.056 C 
ATOM     33  H25 PDY d   1      36.803  61.488   4.604  0.00  0.00     0.030 H 
ATOM     34  H26 PDY d   1      36.715  61.309   6.389  0.00  0.00     0.030 H 
ATOM     35  H27 PDY d   1      36.133  62.818   5.608  0.00  0.00     0.030 H 
ENDBRANCH  29  32
ENDBRANCH  28  29
ENDBRANCH  22  28
ENDBRANCH  10  18
BRANCH   1  36
ATOM     36  N10 PDY d   1      26.534  63.384   9.560  0.00  0.00    -0.368 N 
ATOM     37  H12 PDY d   1      26.797  62.446   9.225  0.00  0.00     0.161 HD
BRANCH  36  38
ATOM     38  C15 PDY d   1      25.575  63.466  10.661  0.00  0.00     0.034 C 
ATOM     39  C25 PDY d   1      25.120  62.039  11.004  0.00  0.00    -0.043 C 
ATOM     40  C26 PDY d   1      24.141  62.004  12.177  0.00  0.00    -0.041 C 
ATOM     41  H1  PDY d   1      24.629  61.603  10.121  0.00  0.00     0.036 H 
ATOM     42  H2  PDY d   1      26.005  61.440  11.265  0.00  0.00     0.036 H 
ATOM     43  C23 PDY d   1      24.744  62.720  13.397  0.00  0.00     0.082 C 
ATOM     44  H3  PDY d   1      23.927  60.958  12.440  0.00  0.00     0.035 H 
ATOM     45  H4  PDY d   1      23.207  62.508  11.886  0.00  0.00     0.035 H 
ATOM     46  N12 PDY d   1      25.324  64.027  13.068  0.00  0.00    -0.073 N 
ATOM     47  H5  PDY d   1      25.534  62.083  13.822  0.00  0.00     0.075 H 
ATOM     48  H6  PDY d   1      23.950  62.867  14.144  0.00  0.00     0.075 H 
ATOM     49  C22 PDY d   1      26.152  64.212  11.885  0.00  0.00     0.100 C 
ATOM     50  H7  PDY d   1      25.891  64.294  13.857  0.00  0.00     0.277 HD
ATOM     51  H8  PDY d   1      24.551  64.667  12.978  0.00  0.00     0.277 HD
ATOM     52  H9  PDY d   1      27.162  63.828  12.093  0.00  0.00     0.078 H 
ATOM     53  H10 PDY d   1      26.208  65.286  11.654  0.00  0.00     0.078 H 
ATOM     54  H11 PDY d   1      24.698  64.032  10.313  0.00  0.00     0.075 H 
ENDBRANCH  36  38
ENDBRANCH   1  36
TORSDOF 7
