REMARK  9 active torsions:
REMARK  status: ('A' for Active; 'I' for Inactive)
REMARK    1  A    between atoms: CAK_2  and  CAL_4 
REMARK    2  A    between atoms: CAL_4  and  CAF_5 
REMARK    3  A    between atoms: CAL_4  and  CAJ_7 
REMARK    4  A    between atoms: CAF_5  and  SED_6 
REMARK    5  A    between atoms: CAJ_7  and  CAI_8 
REMARK    6  A    between atoms: CAI_8  and  CAH_9 
REMARK    7  A    between atoms: CAH_9  and  CAG_10 
REMARK    8  A    between atoms: CAG_10  and  CAE_11 
REMARK    9  A    between atoms: CAE_11  and  NAA_12 
ROOT
ATOM      1  CAJ DDK d   1       4.441 -18.375   0.964  0.00  0.00    -0.052 C 
ATOM      2  H9  DDK d   1       4.766 -18.990   0.112  0.00  0.00     0.034 H 
ATOM      3  H10 DDK d   1       5.243 -17.674   1.237  0.00  0.00     0.034 H 
ENDROOT
BRANCH   1   4
ATOM      4  CAL DDK d   1       4.195 -19.306   2.157  0.00  0.00     0.030 C 
ATOM      5  H1  DDK d   1       3.350 -19.977   1.943  0.00  0.00     0.056 H 
BRANCH   4   6
ATOM      6  CAK DDK d   1       3.899 -18.482   3.393  0.00  0.00     0.177 C 
ATOM      7  OAB DDK d   1       4.826 -17.699   3.780  0.00  0.00    -0.648 OA
ATOM      8  OAC DDK d   1       2.744 -18.541   3.953  0.00  0.00    -0.648 OA
ENDBRANCH   4   6
BRANCH   4   9
ATOM      9  CAF DDK d   1       5.471 -20.122   2.403  0.00  0.00    -0.052 C 
ATOM     10  H2  DDK d   1       6.306 -19.434   2.604  0.00  0.00     0.034 H 
ATOM     11  H3  DDK d   1       5.695 -20.719   1.507  0.00  0.00     0.034 H 
BRANCH   9  12
ATOM     12 SED  DDK d   1       5.245 -21.338   3.953  0.00  0.00     0.000 Se
ATOM     13  H4  DDK d   1       7.126 -22.013   3.697  0.00  0.00     0.000 HD
ATOM     14  H5  DDK d   1       5.929 -19.897   5.184  0.00  0.00     0.000 HD
ATOM     15  H6  DDK d   1       3.364 -20.663   4.208  0.00  0.00     0.000 HD
ATOM     16  H7  DDK d   1       5.015 -22.574   5.528  0.00  0.00     0.000 HD
ATOM     17  H8  DDK d   1       4.561 -22.779   2.722  0.00  0.00     0.000 HD
ENDBRANCH   9  12
ENDBRANCH   4   9
ENDBRANCH   1   4
BRANCH   1  18
ATOM     18  CAI DDK d   1       3.207 -17.547   0.519  0.00  0.00    -0.064 C 
ATOM     19  H11 DDK d   1       3.060 -16.720   1.230  0.00  0.00     0.033 H 
ATOM     20  H12 DDK d   1       2.321 -18.199   0.527  0.00  0.00     0.033 H 
BRANCH  18  21
ATOM     21  CAH DDK d   1       3.380 -16.954  -0.911  0.00  0.00    -0.064 C 
ATOM     22  H13 DDK d   1       2.506 -16.323  -1.132  0.00  0.00     0.033 H 
ATOM     23  H14 DDK d   1       3.421 -17.787  -1.628  0.00  0.00     0.033 H 
BRANCH  21  24
ATOM     24  CAG DDK d   1       4.671 -16.086  -1.091  0.00  0.00    -0.043 C 
ATOM     25  H15 DDK d   1       4.600 -15.460  -1.993  0.00  0.00     0.035 H 
ATOM     26  H16 DDK d   1       5.566 -16.723  -1.156  0.00  0.00     0.035 H 
BRANCH  24  27
ATOM     27  CAE DDK d   1       4.706 -15.231   0.158  0.00  0.00     0.080 C 
ATOM     28  H17 DDK d   1       5.334 -15.723   0.915  0.00  0.00     0.075 H 
ATOM     29  H18 DDK d   1       3.683 -15.118   0.547  0.00  0.00     0.075 H 
BRANCH  27  30
ATOM     30  NAA DDK d   1       5.245 -13.935  -0.130  0.00  0.00    -0.079 N 
ATOM     31  H19 DDK d   1       5.260 -13.382   0.713  0.00  0.00     0.274 HD
ATOM     32  H20 DDK d   1       4.671 -13.478  -0.821  0.00  0.00     0.274 HD
ATOM     33  H21 DDK d   1       6.184 -14.033  -0.484  0.00  0.00     0.274 HD
ENDBRANCH  27  30
ENDBRANCH  24  27
ENDBRANCH  21  24
ENDBRANCH  18  21
ENDBRANCH   1  18
TORSDOF 9
