REMARK  17 active torsions:
REMARK  status: ('A' for Active; 'I' for Inactive)
REMARK    1  A    between atoms: C21_2  and  C20_4 
REMARK    2  A    between atoms: C20_4  and  C24_5 
REMARK    3  A    between atoms: C20_4  and  C17_11 
REMARK    4  A    between atoms: C24_5  and  C25_6 
REMARK    5  A    between atoms: C25_6  and  C26_7 
REMARK    6  A    between atoms: C26_7  and  C27_8 
REMARK    7  A    between atoms: C27_8  and  C28_9 
REMARK    8  A    between atoms: C28_9  and  N29_10 
REMARK    9  A    between atoms: C17_11  and  P13_12 
REMARK   10  A    between atoms: P13_12  and  C12_15 
REMARK   11  A    between atoms: C12_15  and  C14_16 
REMARK   12  A    between atoms: C12_15  and  N10_19 
REMARK   13  A    between atoms: C14_16  and  C16_17 
REMARK   14  A    between atoms: C14_16  and  C15_18 
REMARK       I    between atoms: N10_19  and  C9_20 
REMARK   15  A    between atoms: C9_20  and  C8_22 
REMARK   16  A    between atoms: C8_22  and  C7_23 
REMARK   17  A    between atoms: C7_23  and  C1_24 
ROOT
ATOM      1  C12 EF1 d   1       3.609 -22.931   4.039  0.00  0.00     0.090 C 
ATOM      2  H17 EF1 d   1       4.122 -23.457   4.857  0.00  0.00     0.089 H 
ENDROOT
BRANCH   1   3
ATOM      3  P13 EF1 d   1       4.713 -21.588   3.455  0.00  0.00     0.130 P 
ATOM      4  O18 EF1 d   1       5.845 -22.280   2.748  0.00  0.00    -0.666 OA
ATOM      5  O19 EF1 d   1       5.123 -20.713   4.612  0.00  0.00    -0.666 OA
BRANCH   3   6
ATOM      6  C17 EF1 d   1       3.821 -20.552   2.269  0.00  0.00     0.021 C 
ATOM      7  H15 EF1 d   1       3.958 -20.965   1.259  0.00  0.00     0.050 H 
ATOM      8  H16 EF1 d   1       2.751 -20.555   2.525  0.00  0.00     0.050 H 
BRANCH   6   9
ATOM      9  C20 EF1 d   1       4.330 -19.119   2.290  0.00  0.00     0.039 C 
ATOM     10  H1  EF1 d   1       5.423 -19.107   2.169  0.00  0.00     0.057 H 
BRANCH   9  11
ATOM     11  C21 EF1 d   1       3.957 -18.393   3.565  0.00  0.00     0.177 C 
ATOM     12  O23 EF1 d   1       4.764 -17.558   4.046  0.00  0.00    -0.648 OA
ATOM     13  O22 EF1 d   1       2.842 -18.602   4.086  0.00  0.00    -0.648 OA
ENDBRANCH   9  11
BRANCH   9  14
ATOM     14  C24 EF1 d   1       3.644 -18.416   1.108  0.00  0.00    -0.052 C 
ATOM     15  H2  EF1 d   1       2.601 -18.760   1.051  0.00  0.00     0.034 H 
ATOM     16  H3  EF1 d   1       4.171 -18.689   0.182  0.00  0.00     0.034 H 
BRANCH  14  17
ATOM     17  C25 EF1 d   1       3.651 -16.900   1.245  0.00  0.00    -0.064 C 
ATOM     18  H4  EF1 d   1       4.683 -16.558   1.412  0.00  0.00     0.033 H 
ATOM     19  H5  EF1 d   1       3.026 -16.613   2.103  0.00  0.00     0.033 H 
BRANCH  17  20
ATOM     20  C26 EF1 d   1       3.103 -16.237  -0.017  0.00  0.00    -0.064 C 
ATOM     21  H6  EF1 d   1       3.048 -15.150   0.140  0.00  0.00     0.033 H 
ATOM     22  H7  EF1 d   1       2.096 -16.629  -0.224  0.00  0.00     0.033 H 
BRANCH  20  23
ATOM     23  C27 EF1 d   1       4.012 -16.528  -1.212  0.00  0.00    -0.043 C 
ATOM     24  H8  EF1 d   1       3.492 -16.228  -2.134  0.00  0.00     0.035 H 
ATOM     25  H9  EF1 d   1       4.221 -17.608  -1.244  0.00  0.00     0.035 H 
BRANCH  23  26
ATOM     26  C28 EF1 d   1       5.334 -15.774  -1.126  0.00  0.00     0.080 C 
ATOM     27  H10 EF1 d   1       5.819 -15.787  -2.113  0.00  0.00     0.075 H 
ATOM     28  H11 EF1 d   1       5.984 -16.272  -0.392  0.00  0.00     0.075 H 
BRANCH  26  29
ATOM     29  N29 EF1 d   1       5.126 -14.394  -0.717  0.00  0.00    -0.079 N 
ATOM     30  H12 EF1 d   1       6.014 -13.920  -0.668  0.00  0.00     0.274 HD
ATOM     31  H13 EF1 d   1       4.685 -14.375   0.189  0.00  0.00     0.274 HD
ATOM     32  H14 EF1 d   1       4.534 -13.930  -1.388  0.00  0.00     0.274 HD
ENDBRANCH  26  29
ENDBRANCH  23  26
ENDBRANCH  20  23
ENDBRANCH  17  20
ENDBRANCH  14  17
ENDBRANCH   9  14
ENDBRANCH   6   9
ENDBRANCH   3   6
ENDBRANCH   1   3
BRANCH   1  33
ATOM     33  C14 EF1 d   1       3.326 -23.954   2.929  0.00  0.00    -0.032 C 
ATOM     34  H18 EF1 d   1       4.279 -24.225   2.451  0.00  0.00     0.042 H 
BRANCH  33  35
ATOM     35  C16 EF1 d   1       2.409 -23.320   1.880  0.00  0.00    -0.071 C 
ATOM     36  H19 EF1 d   1       2.204 -24.050   1.083  0.00  0.00     0.028 H 
ATOM     37  H20 EF1 d   1       2.901 -22.436   1.449  0.00  0.00     0.028 H 
ATOM     38  H21 EF1 d   1       1.463 -23.019   2.354  0.00  0.00     0.028 H 
ENDBRANCH  33  35
BRANCH  33  39
ATOM     39  C15 EF1 d   1       2.689 -25.225   3.487  0.00  0.00    -0.071 C 
ATOM     40  H22 EF1 d   1       3.357 -25.670   4.239  0.00  0.00     0.028 H 
ATOM     41  H23 EF1 d   1       2.526 -25.943   2.670  0.00  0.00     0.028 H 
ATOM     42  H24 EF1 d   1       1.725 -24.977   3.954  0.00  0.00     0.028 H 
ENDBRANCH  33  39
ENDBRANCH   1  33
BRANCH   1  43
ATOM     43  N10 EF1 d   1       2.376 -22.382   4.564  0.00  0.00    -0.347 N 
ATOM     44  C9  EF1 d   1       2.005 -22.630   5.832  0.00  0.00     0.218 C 
ATOM     45  O11 EF1 d   1       2.634 -23.360   6.608  0.00  0.00    -0.274 OA
ATOM     46  H25 EF1 d   1       1.796 -21.814   3.979  0.00  0.00     0.163 HD
BRANCH  44  47
ATOM     47  C8  EF1 d   1       0.742 -21.936   6.313  0.00  0.00     0.013 C 
ATOM     48  H26 EF1 d   1       0.254 -21.422   5.472  0.00  0.00     0.047 H 
ATOM     49  H27 EF1 d   1       0.992 -21.204   7.095  0.00  0.00     0.047 H 
BRANCH  47  50
ATOM     50  C7  EF1 d   1      -0.186 -22.997   6.877  0.00  0.00    -0.033 C 
ATOM     51  H28 EF1 d   1      -1.126 -22.516   7.187  0.00  0.00     0.040 H 
ATOM     52  H29 EF1 d   1       0.295 -23.459   7.752  0.00  0.00     0.040 H 
BRANCH  50  53
ATOM     53  C1  EF1 d   1      -0.504 -24.082   5.866  0.00  0.00    -0.058 A 
ATOM     54  C6  EF1 d   1      -1.077 -23.738   4.642  0.00  0.00    -0.077 A 
ATOM     55  C5  EF1 d   1      -1.369 -24.711   3.701  0.00  0.00    -0.082 A 
ATOM     56  H30 EF1 d   1      -1.296 -22.699   4.425  0.00  0.00     0.084 H 
ATOM     57  C4  EF1 d   1      -1.113 -26.036   4.008  0.00  0.00    -0.083 A 
ATOM     58  H34 EF1 d   1      -1.791 -24.439   2.740  0.00  0.00     0.083 H 
ATOM     59  C3  EF1 d   1      -0.552 -26.390   5.238  0.00  0.00    -0.082 A 
ATOM     60  H33 EF1 d   1      -1.351 -26.808   3.286  0.00  0.00     0.083 H 
ATOM     61  C2  EF1 d   1      -0.252 -25.414   6.176  0.00  0.00    -0.077 A 
ATOM     62  H32 EF1 d   1      -0.351 -27.432   5.460  0.00  0.00     0.083 H 
ATOM     63  H31 EF1 d   1       0.172 -25.685   7.136  0.00  0.00     0.084 H 
ENDBRANCH  50  53
ENDBRANCH  47  50
ENDBRANCH  44  47
ENDBRANCH   1  43
TORSDOF 17
