REMARK  15 active torsions:
REMARK  status: ('A' for Active; 'I' for Inactive)
REMARK    1  A    between atoms: PAY_2  and  CAX_5 
REMARK    2  A    between atoms: CAX_5  and  PAZ_6 
REMARK    3  A    between atoms: CAX_5  and  OAD_10 
REMARK    4  A    between atoms: CAX_5  and  CAU_11 
REMARK    5  A    between atoms: CAU_11  and  NAW_12 
REMARK    6  A    between atoms: NAV_16  and  CAT_17 
REMARK    7  A    between atoms: CAT_17  and  CAS_18 
REMARK    8  A    between atoms: CAS_18  and  CAR_19 
REMARK    9  A    between atoms: CAR_19  and  CAQ_20 
REMARK   10  A    between atoms: CAQ_20  and  CAP_21 
REMARK   11  A    between atoms: CAP_21  and  CAO_22 
REMARK   12  A    between atoms: CAO_22  and  CAN_23 
REMARK   13  A    between atoms: CAN_23  and  CAM_24 
REMARK   14  A    between atoms: CAM_24  and  CAL_25 
REMARK   15  A    between atoms: CAL_25  and  CAA_26 
ROOT
ATOM      1  CAS 8PH d   1      14.270 -21.145 -17.852  0.00  0.00    -0.050 C 
ATOM      2  H   8PH d   1      13.406 -21.807 -18.014  0.00  0.00     0.035 H 
ATOM      3  H   8PH d   1      14.920 -21.574 -17.076  0.00  0.00     0.035 H 
ENDROOT
BRANCH   1   4
ATOM      4  CAT 8PH d   1      13.779 -19.765 -17.402  0.00  0.00     0.000 C 
ATOM      5  H   8PH d   1      14.224 -18.997 -18.052  0.00  0.00     0.064 H 
ATOM      6  H   8PH d   1      12.683 -19.729 -17.489  0.00  0.00     0.064 H 
BRANCH   4   7
ATOM      7  NAV 8PH d   1      14.159 -19.487 -16.002  0.00  0.00    -0.352 N 
ATOM      8  CAK 8PH d   1      14.184 -18.277 -15.437  0.00  0.00     0.044 A 
ATOM      9  NAW 8PH d   1      14.347 -18.445 -14.129  0.00  0.00    -0.347 N 
ATOM     10  H   8PH d   1      14.088 -17.324 -15.955  0.00  0.00     0.141 H 
ATOM     11  CAJ 8PH d   1      14.464 -19.747 -13.887  0.00  0.00    -0.004 A 
ATOM     12  CAI 8PH d   1      14.346 -20.391 -15.045  0.00  0.00    -0.005 A 
ATOM     13  H   8PH d   1      14.628 -20.205 -12.913  0.00  0.00     0.113 H 
ATOM     14  H   8PH d   1      14.394 -21.470 -15.185  0.00  0.00     0.113 H 
BRANCH   9  15
ATOM     15  CAU 8PH d   1      14.307 -17.371 -13.109  0.00  0.00     0.054 C 
ATOM     16  H   8PH d   1      15.034 -17.595 -12.315  0.00  0.00     0.071 H 
ATOM     17  H   8PH d   1      14.563 -16.411 -13.581  0.00  0.00     0.071 H 
BRANCH  15  18
ATOM     18  CAX 8PH d   1      12.905 -17.279 -12.501  0.00  0.00     0.301 C 
BRANCH  18  19
ATOM     19  PAY 8PH d   1      11.797 -16.505 -13.786  0.00  0.00     0.311 P 
ATOM     20  OAE 8PH d   1      10.394 -16.232 -13.045  0.00  0.00    -0.637 OA
ATOM     21  OAF 8PH d   1      12.419 -15.055 -14.105  0.00  0.00    -0.637 OA
ATOM     22  OAB 8PH d   1      11.639 -17.335 -15.002  0.00  0.00    -0.637 OA
ENDBRANCH  18  19
BRANCH  18  23
ATOM     23  PAZ 8PH d   1      13.024 -16.126 -11.038  0.00  0.00     0.311 P 
ATOM     24  OAG 8PH d   1      14.455 -16.409 -10.357  0.00  0.00    -0.637 OA
ATOM     25  OAH 8PH d   1      13.104 -14.641 -11.654  0.00  0.00    -0.637 OA
ATOM     26  OAC 8PH d   1      11.897 -16.288 -10.091  0.00  0.00    -0.637 OA
ENDBRANCH  18  23
BRANCH  18  27
ATOM     27  OAD 8PH d   1      12.519 -18.607 -12.144  0.00  0.00    -0.364 OA
ATOM     28  H   8PH d   1      12.545 -19.161 -12.915  0.00  0.00     0.212 HD
ENDBRANCH  18  27
ENDBRANCH  15  18
ENDBRANCH   9  15
ENDBRANCH   4   7
ENDBRANCH   1   4
BRANCH   1  29
ATOM     29  CAR 8PH d   1      15.057 -21.005 -19.156  0.00  0.00    -0.064 C 
ATOM     30  H   8PH d   1      15.813 -21.802 -19.215  0.00  0.00     0.033 H 
ATOM     31  H   8PH d   1      15.555 -20.024 -19.179  0.00  0.00     0.033 H 
BRANCH  29  32
ATOM     32  CAQ 8PH d   1      14.103 -21.120 -20.347  0.00  0.00    -0.065 C 
ATOM     33  H   8PH d   1      13.082 -20.866 -20.025  0.00  0.00     0.033 H 
ATOM     34  H   8PH d   1      14.121 -22.150 -20.733  0.00  0.00     0.033 H 
BRANCH  32  35
ATOM     35  CAP 8PH d   1      14.544 -20.155 -21.450  0.00  0.00    -0.065 C 
ATOM     36  H   8PH d   1      15.224 -19.401 -21.027  0.00  0.00     0.033 H 
ATOM     37  H   8PH d   1      13.661 -19.655 -21.874  0.00  0.00     0.033 H 
BRANCH  35  38
ATOM     38  CAO 8PH d   1      15.267 -20.933 -22.552  0.00  0.00    -0.065 C 
ATOM     39  H   8PH d   1      15.024 -22.002 -22.466  0.00  0.00     0.033 H 
ATOM     40  H   8PH d   1      16.353 -20.794 -22.446  0.00  0.00     0.033 H 
BRANCH  38  41
ATOM     41  CAN 8PH d   1      14.818 -20.417 -23.921  0.00  0.00    -0.065 C 
ATOM     42  H   8PH d   1      14.607 -19.340 -23.855  0.00  0.00     0.033 H 
ATOM     43  H   8PH d   1      13.908 -20.951 -24.233  0.00  0.00     0.033 H 
BRANCH  41  44
ATOM     44  CAM 8PH d   1      15.927 -20.657 -24.948  0.00  0.00    -0.065 C 
ATOM     45  H   8PH d   1      15.790 -21.646 -25.411  0.00  0.00     0.033 H 
ATOM     46  H   8PH d   1      16.905 -20.619 -24.447  0.00  0.00     0.033 H 
BRANCH  44  47
ATOM     47  CAL 8PH d   1      15.865 -19.576 -26.028  0.00  0.00    -0.069 C 
ATOM     48  H   8PH d   1      16.567 -18.767 -25.777  0.00  0.00     0.032 H 
ATOM     49  H   8PH d   1      14.844 -19.172 -26.083  0.00  0.00     0.032 H 
BRANCH  47  50
ATOM     50  CAA 8PH d   1      16.247 -20.179 -27.381  0.00  0.00    -0.077 C 
ATOM     51  H   8PH d   1      16.202 -19.399 -28.156  0.00  0.00     0.027 H 
ATOM     52  H   8PH d   1      15.546 -20.988 -27.633  0.00  0.00     0.027 H 
ATOM     53  H   8PH d   1      17.269 -20.583 -27.327  0.00  0.00     0.027 H 
ENDBRANCH  47  50
ENDBRANCH  44  47
ENDBRANCH  41  44
ENDBRANCH  38  41
ENDBRANCH  35  38
ENDBRANCH  32  35
ENDBRANCH  29  32
ENDBRANCH   1  29
TORSDOF 15
