REMARK  14 active torsions:
REMARK  status: ('A' for Active; 'I' for Inactive)
REMARK    1  A    between atoms: PAX_2  and  CAU_5 
REMARK    2  A    between atoms: CAU_5  and  PAY_6 
REMARK    3  A    between atoms: CAU_5  and  CAT_10 
REMARK    4  A    between atoms: CAT_10  and  NAW_11 
REMARK    5  A    between atoms: NAV_15  and  CAS_16 
REMARK    6  A    between atoms: CAS_16  and  CAR_17 
REMARK    7  A    between atoms: CAR_17  and  CAQ_18 
REMARK    8  A    between atoms: CAQ_18  and  CAP_19 
REMARK    9  A    between atoms: CAP_19  and  CAO_20 
REMARK   10  A    between atoms: CAO_20  and  CAN_21 
REMARK   11  A    between atoms: CAN_21  and  CAM_22 
REMARK   12  A    between atoms: CAM_22  and  CAL_23 
REMARK   13  A    between atoms: CAL_23  and  CAK_24 
REMARK   14  A    between atoms: CAK_24  and  CAA_25 
ROOT
ATOM      1  CAR BH8 d   1     -11.849  44.346 -48.045  0.00  0.00    -0.050 C 
ATOM      2  H   BH8 d   1     -11.435  45.343 -48.257  0.00  0.00     0.035 H 
ATOM      3  H   BH8 d   1     -11.029  43.652 -47.809  0.00  0.00     0.035 H 
ENDROOT
BRANCH   1   4
ATOM      4  CAS BH8 d   1     -12.591  43.840 -49.283  0.00  0.00     0.000 C 
ATOM      5  H   BH8 d   1     -11.858  43.418 -49.986  0.00  0.00     0.064 H 
ATOM      6  H   BH8 d   1     -13.298  43.056 -48.975  0.00  0.00     0.064 H 
BRANCH   4   7
ATOM      7  NAV BH8 d   1     -13.342  44.916 -49.967  0.00  0.00    -0.352 N 
ATOM      8  CAJ BH8 d   1     -12.874  46.132 -50.219  0.00  0.00     0.044 A 
ATOM      9  NAW BH8 d   1     -13.899  46.881 -50.625  0.00  0.00    -0.350 N 
ATOM     10  H   BH8 d   1     -11.841  46.459 -50.113  0.00  0.00     0.141 H 
ATOM     11  CAI BH8 d   1     -14.971  46.100 -50.710  0.00  0.00    -0.005 A 
ATOM     12  CAH BH8 d   1     -14.632  44.882 -50.298  0.00  0.00    -0.005 A 
ATOM     13  H   BH8 d   1     -15.957  46.405 -51.057  0.00  0.00     0.113 H 
ATOM     14  H   BH8 d   1     -15.289  44.015 -50.242  0.00  0.00     0.113 H 
BRANCH   9  15
ATOM     15  CAT BH8 d   1     -13.963  48.355 -50.530  0.00  0.00     0.028 C 
ATOM     16  H   BH8 d   1     -12.950  48.752 -50.367  0.00  0.00     0.067 H 
ATOM     17  H   BH8 d   1     -14.370  48.761 -51.468  0.00  0.00     0.067 H 
BRANCH  15  18
ATOM     18  CAU BH8 d   1     -14.862  48.777 -49.367  0.00  0.00     0.177 C 
ATOM     19  H   BH8 d   1     -15.648  48.022 -49.217  0.00  0.00     0.086 H 
BRANCH  18  20
ATOM     20  PAX BH8 d   1     -15.624  50.395 -49.782  0.00  0.00     0.279 P 
ATOM     21  OAD BH8 d   1     -16.400  50.879 -48.457  0.00  0.00    -0.639 OA
ATOM     22  OAE BH8 d   1     -14.402  51.420 -49.996  0.00  0.00    -0.639 OA
ATOM     23  OAB BH8 d   1     -16.511  50.312 -50.963  0.00  0.00    -0.639 OA
ENDBRANCH  18  20
BRANCH  18  24
ATOM     24  PAY BH8 d   1     -13.882  48.952 -47.821  0.00  0.00     0.279 P 
ATOM     25  OAF BH8 d   1     -14.943  48.894 -46.612  0.00  0.00    -0.639 OA
ATOM     26  OAG BH8 d   1     -12.988  47.619 -47.691  0.00  0.00    -0.639 OA
ATOM     27  OAC BH8 d   1     -13.065  50.185 -47.797  0.00  0.00    -0.639 OA
ENDBRANCH  18  24
ENDBRANCH  15  18
ENDBRANCH   9  15
ENDBRANCH   4   7
ENDBRANCH   1   4
BRANCH   1  28
ATOM     28  CAQ BH8 d   1     -12.787  44.440 -46.839  0.00  0.00    -0.064 C 
ATOM     29  H   BH8 d   1     -13.671  43.805 -46.998  0.00  0.00     0.033 H 
ATOM     30  H   BH8 d   1     -13.106  45.482 -46.689  0.00  0.00     0.033 H 
BRANCH  28  31
ATOM     31  CAP BH8 d   1     -12.001  43.951 -45.619  0.00  0.00    -0.065 C 
ATOM     32  H   BH8 d   1     -11.185  44.659 -45.410  0.00  0.00     0.033 H 
ATOM     33  H   BH8 d   1     -11.579  42.959 -45.838  0.00  0.00     0.033 H 
BRANCH  31  34
ATOM     34  CAO BH8 d   1     -12.900  43.849 -44.387  0.00  0.00    -0.065 C 
ATOM     35  H   BH8 d   1     -13.741  43.173 -44.598  0.00  0.00     0.033 H 
ATOM     36  H   BH8 d   1     -13.287  44.846 -44.128  0.00  0.00     0.033 H 
BRANCH  34  37
ATOM     37  CAN BH8 d   1     -12.076  43.297 -43.220  0.00  0.00    -0.065 C 
ATOM     38  H   BH8 d   1     -11.291  44.019 -42.950  0.00  0.00     0.033 H 
ATOM     39  H   BH8 d   1     -11.612  42.344 -43.515  0.00  0.00     0.033 H 
BRANCH  37  40
ATOM     40  CAM BH8 d   1     -12.996  43.068 -42.020  0.00  0.00    -0.065 C 
ATOM     41  H   BH8 d   1     -13.910  43.667 -42.146  0.00  0.00     0.033 H 
ATOM     42  H   BH8 d   1     -12.476  43.380 -41.102  0.00  0.00     0.033 H 
BRANCH  40  43
ATOM     43  CAL BH8 d   1     -13.377  41.592 -41.903  0.00  0.00    -0.065 C 
ATOM     44  H   BH8 d   1     -13.065  41.053 -42.810  0.00  0.00     0.033 H 
ATOM     45  H   BH8 d   1     -14.466  41.497 -41.776  0.00  0.00     0.033 H 
BRANCH  43  46
ATOM     46  CAK BH8 d   1     -12.660  41.011 -40.683  0.00  0.00    -0.069 C 
ATOM     47  H   BH8 d   1     -11.572  41.087 -40.823  0.00  0.00     0.032 H 
ATOM     48  H   BH8 d   1     -12.941  39.955 -40.558  0.00  0.00     0.032 H 
BRANCH  46  49
ATOM     49  CAA BH8 d   1     -13.075  41.804 -39.440  0.00  0.00    -0.077 C 
ATOM     50  H   BH8 d   1     -12.565  41.394 -38.556  0.00  0.00     0.027 H 
ATOM     51  H   BH8 d   1     -14.164  41.728 -39.303  0.00  0.00     0.027 H 
ATOM     52  H   BH8 d   1     -12.795  42.860 -39.568  0.00  0.00     0.027 H 
ENDBRANCH  46  49
ENDBRANCH  43  46
ENDBRANCH  40  43
ENDBRANCH  37  40
ENDBRANCH  34  37
ENDBRANCH  31  34
ENDBRANCH  28  31
ENDBRANCH   1  28
TORSDOF 14
