REMARK  19 active torsions:
REMARK  status: ('A' for Active; 'I' for Inactive)
REMARK    1  A    between atoms: PBC_2  and  CAZ_5 
REMARK    2  A    between atoms: CAZ_5  and  PBD_6 
REMARK    3  A    between atoms: CAZ_5  and  CAY_10 
REMARK    4  A    between atoms: CAY_10  and  NBB_11 
REMARK    5  A    between atoms: NBA_15  and  CAX_16 
REMARK    6  A    between atoms: CAX_16  and  CAW_17 
REMARK    7  A    between atoms: CAW_17  and  CAV_18 
REMARK    8  A    between atoms: CAV_18  and  CAU_19 
REMARK    9  A    between atoms: CAU_19  and  CAT_20 
REMARK   10  A    between atoms: CAT_20  and  CAS_21 
REMARK   11  A    between atoms: CAS_21  and  CAR_22 
REMARK   12  A    between atoms: CAR_22  and  CAQ_23 
REMARK   13  A    between atoms: CAQ_23  and  CAP_24 
REMARK   14  A    between atoms: CAP_24  and  CAO_25 
REMARK   15  A    between atoms: CAO_25  and  CAN_26 
REMARK   16  A    between atoms: CAN_26  and  CAM_27 
REMARK   17  A    between atoms: CAM_27  and  CAL_28 
REMARK   18  A    between atoms: CAL_28  and  CAK_29 
REMARK   19  A    between atoms: CAK_29  and  CAA_30 
ROOT
ATOM      1  CAT BH3 d   1      12.828 -23.081 -16.610  0.00  0.00    -0.065 C 
ATOM      2  H   BH3 d   1      12.908 -23.903 -17.336  0.00  0.00     0.033 H 
ATOM      3  H   BH3 d   1      13.059 -23.458 -15.603  0.00  0.00     0.033 H 
ENDROOT
BRANCH   1   4
ATOM      4  CAU BH3 d   1      11.406 -22.519 -16.630  0.00  0.00    -0.065 C 
ATOM      5  H   BH3 d   1      11.428 -21.457 -16.346  0.00  0.00     0.033 H 
ATOM      6  H   BH3 d   1      10.987 -22.619 -17.642  0.00  0.00     0.033 H 
BRANCH   4   7
ATOM      7  CAV BH3 d   1      10.534 -23.293 -15.639  0.00  0.00    -0.064 C 
ATOM      8  H   BH3 d   1       9.584 -23.566 -16.122  0.00  0.00     0.033 H 
ATOM      9  H   BH3 d   1      11.060 -24.206 -15.323  0.00  0.00     0.033 H 
BRANCH   7  10
ATOM     10  CAW BH3 d   1      10.251 -22.418 -14.416  0.00  0.00    -0.050 C 
ATOM     11  H   BH3 d   1      10.542 -21.380 -14.633  0.00  0.00     0.035 H 
ATOM     12  H   BH3 d   1       9.178 -22.456 -14.179  0.00  0.00     0.035 H 
BRANCH  10  13
ATOM     13  CAX BH3 d   1      11.056 -22.935 -13.222  0.00  0.00     0.000 C 
ATOM     14  H   BH3 d   1      10.383 -23.482 -12.545  0.00  0.00     0.064 H 
ATOM     15  H   BH3 d   1      11.841 -23.614 -13.586  0.00  0.00     0.064 H 
BRANCH  13  16
ATOM     16  NBA BH3 d   1      11.688 -21.821 -12.478  0.00  0.00    -0.352 N 
ATOM     17  CAJ BH3 d   1      12.704 -21.077 -12.903  0.00  0.00     0.044 A 
ATOM     18  NBB BH3 d   1      13.020 -20.227 -11.929  0.00  0.00    -0.350 N 
ATOM     19  H   BH3 d   1      13.191 -21.150 -13.874  0.00  0.00     0.141 H 
ATOM     20  CAI BH3 d   1      12.198 -20.443 -10.907  0.00  0.00    -0.005 A 
ATOM     21  CAH BH3 d   1      11.374 -21.431 -11.247  0.00  0.00    -0.005 A 
ATOM     22  H   BH3 d   1      12.199 -19.907  -9.959  0.00  0.00     0.113 H 
ATOM     23  H   BH3 d   1      10.582 -21.847 -10.626  0.00  0.00     0.113 H 
BRANCH  18  24
ATOM     24  CAY BH3 d   1      14.161 -19.284 -11.940  0.00  0.00     0.028 C 
ATOM     25  H   BH3 d   1      14.552 -19.184 -10.917  0.00  0.00     0.067 H 
ATOM     26  H   BH3 d   1      14.949 -19.683 -12.596  0.00  0.00     0.067 H 
BRANCH  24  27
ATOM     27  CAZ BH3 d   1      13.742 -17.903 -12.450  0.00  0.00     0.177 C 
ATOM     28  H   BH3 d   1      12.684 -17.726 -12.206  0.00  0.00     0.086 H 
BRANCH  27  29
ATOM     29  PBC BH3 d   1      13.967 -17.834 -14.273  0.00  0.00     0.279 P 
ATOM     30  OAD BH3 d   1      15.247 -18.752 -14.606  0.00  0.00    -0.639 OA
ATOM     31  OAE BH3 d   1      12.701 -18.599 -14.908  0.00  0.00    -0.639 OA
ATOM     32  OAB BH3 d   1      14.107 -16.455 -14.791  0.00  0.00    -0.639 OA
ENDBRANCH  27  29
BRANCH  27  33
ATOM     33  PBD BH3 d   1      14.778 -16.622 -11.637  0.00  0.00     0.279 P 
ATOM     34  OAF BH3 d   1      13.994 -15.225 -11.802  0.00  0.00    -0.639 OA
ATOM     35  OAG BH3 d   1      14.741 -16.969 -10.066  0.00  0.00    -0.639 OA
ATOM     36  OAC BH3 d   1      16.158 -16.568 -12.173  0.00  0.00    -0.639 OA
ENDBRANCH  27  33
ENDBRANCH  24  27
ENDBRANCH  18  24
ENDBRANCH  13  16
ENDBRANCH  10  13
ENDBRANCH   7  10
ENDBRANCH   4   7
ENDBRANCH   1   4
BRANCH   1  37
ATOM     37  CAS BH3 d   1      13.819 -21.975 -16.981  0.00  0.00    -0.065 C 
ATOM     38  H   BH3 d   1      14.274 -21.569 -16.065  0.00  0.00     0.033 H 
ATOM     39  H   BH3 d   1      13.289 -21.172 -17.514  0.00  0.00     0.033 H 
BRANCH  37  40
ATOM     40  CAR BH3 d   1      14.914 -22.547 -17.883  0.00  0.00    -0.065 C 
ATOM     41  H   BH3 d   1      14.484 -23.322 -18.535  0.00  0.00     0.033 H 
ATOM     42  H   BH3 d   1      15.707 -22.989 -17.262  0.00  0.00     0.033 H 
BRANCH  40  43
ATOM     43  CAQ BH3 d   1      15.506 -21.428 -18.743  0.00  0.00    -0.065 C 
ATOM     44  H   BH3 d   1      16.566 -21.288 -18.483  0.00  0.00     0.033 H 
ATOM     45  H   BH3 d   1      14.956 -20.494 -18.557  0.00  0.00     0.033 H 
BRANCH  43  46
ATOM     46  CAP BH3 d   1      15.390 -21.801 -20.222  0.00  0.00    -0.065 C 
ATOM     47  H   BH3 d   1      14.426 -22.301 -20.399  0.00  0.00     0.033 H 
ATOM     48  H   BH3 d   1      16.211 -22.481 -20.493  0.00  0.00     0.033 H 
BRANCH  46  49
ATOM     49  CAO BH3 d   1      15.472 -20.536 -21.080  0.00  0.00    -0.065 C 
ATOM     50  H   BH3 d   1      16.443 -20.045 -20.918  0.00  0.00     0.033 H 
ATOM     51  H   BH3 d   1      14.661 -19.848 -20.798  0.00  0.00     0.033 H 
BRANCH  49  52
ATOM     52  CAN BH3 d   1      15.331 -20.912 -22.556  0.00  0.00    -0.065 C 
ATOM     53  H   BH3 d   1      14.342 -20.599 -22.921  0.00  0.00     0.033 H 
ATOM     54  H   BH3 d   1      15.435 -22.001 -22.668  0.00  0.00     0.033 H 
BRANCH  52  55
ATOM     55  CAM BH3 d   1      16.420 -20.210 -23.370  0.00  0.00    -0.065 C 
ATOM     56  H   BH3 d   1      17.406 -20.443 -22.941  0.00  0.00     0.033 H 
ATOM     57  H   BH3 d   1      16.255 -19.123 -23.342  0.00  0.00     0.033 H 
BRANCH  55  58
ATOM     58  CAL BH3 d   1      16.368 -20.696 -24.820  0.00  0.00    -0.065 C 
ATOM     59  H   BH3 d   1      15.409 -21.203 -25.002  0.00  0.00     0.033 H 
ATOM     60  H   BH3 d   1      17.195 -21.399 -25.001  0.00  0.00     0.033 H 
BRANCH  58  61
ATOM     61  CAK BH3 d   1      16.500 -19.500 -25.765  0.00  0.00    -0.069 C 
ATOM     62  H   BH3 d   1      17.419 -18.944 -25.526  0.00  0.00     0.032 H 
ATOM     63  H   BH3 d   1      15.629 -18.839 -25.643  0.00  0.00     0.032 H 
BRANCH  61  64
ATOM     64  CAA BH3 d   1      16.565 -19.995 -27.211  0.00  0.00    -0.077 C 
ATOM     65  H   BH3 d   1      16.660 -19.134 -27.889  0.00  0.00     0.027 H 
ATOM     66  H   BH3 d   1      15.646 -20.551 -27.450  0.00  0.00     0.027 H 
ATOM     67  H   BH3 d   1      17.436 -20.656 -27.334  0.00  0.00     0.027 H 
ENDBRANCH  61  64
ENDBRANCH  58  61
ENDBRANCH  55  58
ENDBRANCH  52  55
ENDBRANCH  49  52
ENDBRANCH  46  49
ENDBRANCH  43  46
ENDBRANCH  40  43
ENDBRANCH  37  40
ENDBRANCH   1  37
TORSDOF 19
