REMARK  19 active torsions:
REMARK  status: ('A' for Active; 'I' for Inactive)
REMARK    1  A    between atoms: PBC_2  and  CAZ_5 
REMARK    2  A    between atoms: CAZ_5  and  PBD_6 
REMARK    3  A    between atoms: CAZ_5  and  CAY_10 
REMARK    4  A    between atoms: CAY_10  and  NBB_11 
REMARK    5  A    between atoms: NBA_15  and  CAX_16 
REMARK    6  A    between atoms: CAX_16  and  CAW_17 
REMARK    7  A    between atoms: CAW_17  and  CAV_18 
REMARK    8  A    between atoms: CAV_18  and  CAU_19 
REMARK    9  A    between atoms: CAU_19  and  CAT_20 
REMARK   10  A    between atoms: CAT_20  and  CAS_21 
REMARK   11  A    between atoms: CAS_21  and  CAR_22 
REMARK   12  A    between atoms: CAR_22  and  CAQ_23 
REMARK   13  A    between atoms: CAQ_23  and  CAP_24 
REMARK   14  A    between atoms: CAP_24  and  CAO_25 
REMARK   15  A    between atoms: CAO_25  and  CAN_26 
REMARK   16  A    between atoms: CAN_26  and  CAM_27 
REMARK   17  A    between atoms: CAM_27  and  CAL_28 
REMARK   18  A    between atoms: CAL_28  and  CAK_29 
REMARK   19  A    between atoms: CAK_29  and  CAA_30 
ROOT
ATOM      1  CAT BH3 d   1     -13.661  48.927 -48.431  0.00  0.00    -0.065 C 
ATOM      2  H   BH3 d   1     -12.887  49.228 -47.710  0.00  0.00     0.033 H 
ATOM      3  H   BH3 d   1     -13.342  49.201 -49.447  0.00  0.00     0.033 H 
ENDROOT
BRANCH   1   4
ATOM      4  CAU BH3 d   1     -14.976  49.640 -48.098  0.00  0.00    -0.065 C 
ATOM      5  H   BH3 d   1     -15.492  49.096 -47.293  0.00  0.00     0.033 H 
ATOM      6  H   BH3 d   1     -14.761  50.667 -47.767  0.00  0.00     0.033 H 
BRANCH   4   7
ATOM      7  CAV BH3 d   1     -15.871  49.683 -49.335  0.00  0.00    -0.064 C 
ATOM      8  H   BH3 d   1     -15.950  48.675 -49.767  0.00  0.00     0.033 H 
ATOM      9  H   BH3 d   1     -16.872  50.041 -49.053  0.00  0.00     0.033 H 
BRANCH   7  10
ATOM     10  CAW BH3 d   1     -15.258  50.635 -50.365  0.00  0.00    -0.050 C 
ATOM     11  H   BH3 d   1     -15.148  51.635 -49.919  0.00  0.00     0.035 H 
ATOM     12  H   BH3 d   1     -14.270  50.258 -50.668  0.00  0.00     0.035 H 
BRANCH  10  13
ATOM     13  CAX BH3 d   1     -16.167  50.723 -51.592  0.00  0.00     0.000 C 
ATOM     14  H   BH3 d   1     -17.162  51.070 -51.278  0.00  0.00     0.064 H 
ATOM     15  H   BH3 d   1     -15.737  51.440 -52.307  0.00  0.00     0.064 H 
BRANCH  13  16
ATOM     16  NBA BH3 d   1     -16.300  49.403 -52.250  0.00  0.00    -0.352 N 
ATOM     17  CAJ BH3 d   1     -17.194  48.473 -51.945  0.00  0.00     0.044 A 
ATOM     18  NBB BH3 d   1     -17.109  47.507 -52.861  0.00  0.00    -0.350 N 
ATOM     19  H   BH3 d   1     -17.877  48.494 -51.097  0.00  0.00     0.141 H 
ATOM     20  CAI BH3 d   1     -16.146  47.835 -53.716  0.00  0.00    -0.005 A 
ATOM     21  CAH BH3 d   1     -15.642  49.008 -53.340  0.00  0.00    -0.005 A 
ATOM     22  H   BH3 d   1     -15.825  47.247 -54.574  0.00  0.00     0.113 H 
ATOM     23  H   BH3 d   1     -14.836  49.548 -53.834  0.00  0.00     0.113 H 
BRANCH  18  24
ATOM     24  CAY BH3 d   1     -17.902  46.256 -52.840  0.00  0.00     0.028 C 
ATOM     25  H   BH3 d   1     -17.317  45.462 -53.328  0.00  0.00     0.067 H 
ATOM     26  H   BH3 d   1     -18.093  45.980 -51.793  0.00  0.00     0.067 H 
BRANCH  24  27
ATOM     27  CAZ BH3 d   1     -19.246  46.387 -53.563  0.00  0.00     0.177 C 
ATOM     28  H   BH3 d   1     -19.710  47.355 -53.325  0.00  0.00     0.086 H 
BRANCH  27  29
ATOM     29  PBC BH3 d   1     -20.337  45.005 -53.037  0.00  0.00     0.279 P 
ATOM     30  OAD BH3 d   1     -19.604  43.655 -53.518  0.00  0.00    -0.639 OA
ATOM     31  OAE BH3 d   1     -20.296  44.980 -51.427  0.00  0.00    -0.639 OA
ATOM     32  OAB BH3 d   1     -21.716  45.105 -53.565  0.00  0.00    -0.639 OA
ENDBRANCH  27  29
BRANCH  27  33
ATOM     33  PBD BH3 d   1     -18.990  46.232 -55.376  0.00  0.00     0.279 P 
ATOM     34  OAF BH3 d   1     -19.908  47.346 -56.088  0.00  0.00    -0.639 OA
ATOM     35  OAG BH3 d   1     -17.464  46.666 -55.647  0.00  0.00    -0.639 OA
ATOM     36  OAC BH3 d   1     -19.283  44.867 -55.865  0.00  0.00    -0.639 OA
ENDBRANCH  27  33
ENDBRANCH  24  27
ENDBRANCH  18  24
ENDBRANCH  13  16
ENDBRANCH  10  13
ENDBRANCH   7  10
ENDBRANCH   4   7
ENDBRANCH   1   4
BRANCH   1  37
ATOM     37  CAS BH3 d   1     -13.872  47.416 -48.352  0.00  0.00    -0.065 C 
ATOM     38  H   BH3 d   1     -14.654  47.119 -49.066  0.00  0.00     0.033 H 
ATOM     39  H   BH3 d   1     -14.184  47.144 -47.333  0.00  0.00     0.033 H 
BRANCH  37  40
ATOM     40  CAR BH3 d   1     -12.568  46.687 -48.695  0.00  0.00    -0.065 C 
ATOM     41  H   BH3 d   1     -11.729  47.172 -48.174  0.00  0.00     0.033 H 
ATOM     42  H   BH3 d   1     -12.399  46.730 -49.781  0.00  0.00     0.033 H 
BRANCH  40  43
ATOM     43  CAQ BH3 d   1     -12.664  45.226 -48.253  0.00  0.00    -0.065 C 
ATOM     44  H   BH3 d   1     -11.753  44.688 -48.553  0.00  0.00     0.033 H 
ATOM     45  H   BH3 d   1     -13.540  44.754 -48.722  0.00  0.00     0.033 H 
BRANCH  43  46
ATOM     46  CAP BH3 d   1     -12.810  45.185 -46.728  0.00  0.00    -0.065 C 
ATOM     47  H   BH3 d   1     -13.688  45.780 -46.436  0.00  0.00     0.033 H 
ATOM     48  H   BH3 d   1     -11.907  45.614 -46.270  0.00  0.00     0.033 H 
BRANCH  46  49
ATOM     49  CAO BH3 d   1     -12.990  43.751 -46.227  0.00  0.00    -0.065 C 
ATOM     50  H   BH3 d   1     -12.078  43.171 -46.432  0.00  0.00     0.033 H 
ATOM     51  H   BH3 d   1     -13.845  43.285 -46.739  0.00  0.00     0.033 H 
BRANCH  49  52
ATOM     52  CAN BH3 d   1     -13.250  43.783 -44.719  0.00  0.00    -0.065 C 
ATOM     53  H   BH3 d   1     -14.118  44.426 -44.514  0.00  0.00     0.033 H 
ATOM     54  H   BH3 d   1     -12.365  44.188 -44.206  0.00  0.00     0.033 H 
BRANCH  52  55
ATOM     55  CAM BH3 d   1     -13.533  42.371 -44.200  0.00  0.00    -0.065 C 
ATOM     56  H   BH3 d   1     -12.669  41.722 -44.409  0.00  0.00     0.033 H 
ATOM     57  H   BH3 d   1     -14.425  41.967 -44.701  0.00  0.00     0.033 H 
BRANCH  55  58
ATOM     58  CAL BH3 d   1     -13.776  42.427 -42.691  0.00  0.00    -0.065 C 
ATOM     59  H   BH3 d   1     -14.655  43.056 -42.486  0.00  0.00     0.033 H 
ATOM     60  H   BH3 d   1     -12.893  42.856 -42.195  0.00  0.00     0.033 H 
BRANCH  58  61
ATOM     61  CAK BH3 d   1     -14.025  41.016 -42.153  0.00  0.00    -0.069 C 
ATOM     62  H   BH3 d   1     -13.173  40.369 -42.409  0.00  0.00     0.032 H 
ATOM     63  H   BH3 d   1     -14.943  40.608 -42.602  0.00  0.00     0.032 H 
BRANCH  61  64
ATOM     64  CAA BH3 d   1     -14.183  41.076 -40.633  0.00  0.00    -0.077 C 
ATOM     65  H   BH3 d   1     -14.362  40.063 -40.243  0.00  0.00     0.027 H 
ATOM     66  H   BH3 d   1     -15.035  41.723 -40.378  0.00  0.00     0.027 H 
ATOM     67  H   BH3 d   1     -13.265  41.485 -40.185  0.00  0.00     0.027 H 
ENDBRANCH  61  64
ENDBRANCH  58  61
ENDBRANCH  55  58
ENDBRANCH  52  55
ENDBRANCH  49  52
ENDBRANCH  46  49
ENDBRANCH  43  46
ENDBRANCH  40  43
ENDBRANCH  37  40
ENDBRANCH   1  37
TORSDOF 19
