REMARK  17 active torsions:
REMARK  status: ('A' for Active; 'I' for Inactive)
REMARK    1  A    between atoms: C9_1  and  N6_2 
REMARK       I    between atoms: N6_2  and  C8_3 
REMARK       I    between atoms: C8_3  and  N4_5 
REMARK       I    between atoms: N4_5  and  C7_6 
REMARK       I    between atoms: C7_6  and  N5_7 
REMARK    2  A    between atoms: N3_8  and  C6_9 
REMARK    3  A    between atoms: C6_9  and  C5_10 
REMARK    4  A    between atoms: C5_10  and  C4_11 
REMARK    5  A    between atoms: C4_11  and  C2_12 
REMARK    6  A    between atoms: C2_12  and  C1_13 
REMARK    7  A    between atoms: C2_12  and  N2_30 
REMARK       I    between atoms: C1_13  and  N1_15 
REMARK    8  A    between atoms: N1_15  and  C12_16 
REMARK    9  A    between atoms: N1_15  and  C11_23 
REMARK   10  A    between atoms: C12_16  and  C13_17 
REMARK   11  A    between atoms: C11_23  and  C14_24 
REMARK       I    between atoms: N2_30  and  C3_31 
REMARK   12  A    between atoms: C3_31  and  C10_33 
REMARK   13  A    between atoms: C10_33  and  N7_34 
REMARK   14  A    between atoms: C26_38  and  C27_39 
REMARK   15  A    between atoms: C27_39  and  O4_40 
REMARK   16  A    between atoms: O4_40  and  N11_41 
REMARK   17  A    between atoms: C28_42  and  C29_43 
ROOT
ATOM      1  C2  ST7 d   1     -22.331   2.429 -29.686  0.00  0.00     0.089 C 
ATOM      2  H15 ST7 d   1     -21.445   2.292 -30.323  0.00  0.00     0.087 H 
ENDROOT
BRANCH   1   3
ATOM      3  C4  ST7 d   1     -22.096   1.679 -28.420  0.00  0.00    -0.036 C 
ATOM      4  H13 ST7 d   1     -21.244   2.125 -27.885  0.00  0.00     0.036 H 
ATOM      5  H14 ST7 d   1     -22.996   1.737 -27.790  0.00  0.00     0.036 H 
BRANCH   3   6
ATOM      6  C5  ST7 d   1     -21.787   0.205 -28.731  0.00  0.00    -0.048 C 
ATOM      7  H11 ST7 d   1     -22.741  -0.298 -28.945  0.00  0.00     0.035 H 
ATOM      8  H12 ST7 d   1     -21.149   0.179 -29.627  0.00  0.00     0.035 H 
BRANCH   6   9
ATOM      9  C6  ST7 d   1     -21.075  -0.594 -27.628  0.00  0.00     0.009 C 
ATOM     10  H9  ST7 d   1     -20.009  -0.326 -27.578  0.00  0.00     0.064 H 
ATOM     11  H10 ST7 d   1     -21.545  -0.414 -26.650  0.00  0.00     0.064 H 
BRANCH   9  12
ATOM     12  N3  ST7 d   1     -21.247  -2.034 -28.048  0.00  0.00    -0.226 N 
ATOM     13  C7  ST7 d   1     -20.489  -2.671 -28.963  0.00  0.00     0.675 C 
ATOM     14  N4  ST7 d   1     -20.851  -3.945 -29.216  0.00  0.00    -0.142 N 
ATOM     15  N5  ST7 d   1     -19.312  -2.135 -29.427  0.00  0.00    -0.235 N 
ATOM     16  C8  ST7 d   1     -20.268  -4.801 -30.099  0.00  0.00     0.334 C 
ATOM     17  H5  ST7 d   1     -21.631  -4.299 -28.700  0.00  0.00     0.189 HD
ATOM     18  N6  ST7 d   1     -20.884  -5.964 -30.246  0.00  0.00    -0.347 N 
ATOM     19  O3  ST7 d   1     -19.170  -4.555 -30.608  0.00  0.00    -0.247 OA
ATOM     20  H4  ST7 d   1     -21.762  -6.107 -29.788  0.00  0.00     0.163 HD
ATOM     21  H6  ST7 d   1     -19.072  -1.157 -29.212  0.00  0.00     0.174 HD
ATOM     22  H7  ST7 d   1     -18.670  -2.711 -29.990  0.00  0.00     0.174 HD
ATOM     23  H8  ST7 d   1     -22.003  -2.572 -27.600  0.00  0.00     0.177 HD
BRANCH  18  24
ATOM     24  C9  ST7 d   1     -20.320  -7.056 -31.062  0.00  0.00    -0.017 C 
ATOM     25  H1  ST7 d   1     -21.000  -7.920 -31.039  0.00  0.00     0.056 H 
ATOM     26  H2  ST7 d   1     -19.341  -7.349 -30.655  0.00  0.00     0.056 H 
ATOM     27  H3  ST7 d   1     -20.198  -6.713 -32.100  0.00  0.00     0.056 H 
ENDBRANCH  18  24
ENDBRANCH   9  12
ENDBRANCH   6   9
ENDBRANCH   3   6
ENDBRANCH   1   3
BRANCH   1  28
ATOM     28  C1  ST7 d   1     -23.591   2.026 -30.447  0.00  0.00     0.243 C 
ATOM     29  O2  ST7 d   1     -24.648   1.743 -29.881  0.00  0.00    -0.271 OA
ATOM     30  N1  ST7 d   1     -23.584   2.231 -31.732  0.00  0.00    -0.342 N 
BRANCH  30  31
ATOM     31  C12 ST7 d   1     -24.901   2.166 -32.397  0.00  0.00     0.022 C 
ATOM     32  H16 ST7 d   1     -25.133   3.149 -32.833  0.00  0.00     0.071 H 
ATOM     33  H17 ST7 d   1     -25.668   1.904 -31.653  0.00  0.00     0.071 H 
BRANCH  31  34
ATOM     34  C13 ST7 d   1     -24.902   1.135 -33.485  0.00  0.00    -0.040 A 
ATOM     35  C20 ST7 d   1     -24.961  -0.194 -33.070  0.00  0.00    -0.075 A 
ATOM     36  C21 ST7 d   1     -25.023  -1.132 -34.081  0.00  0.00    -0.082 A 
ATOM     37  H18 ST7 d   1     -24.958  -0.473 -32.023  0.00  0.00     0.084 H 
ATOM     38  C22 ST7 d   1     -24.931  -0.713 -35.421  0.00  0.00    -0.083 A 
ATOM     39  H19 ST7 d   1     -25.142  -2.183 -33.844  0.00  0.00     0.083 H 
ATOM     40  C23 ST7 d   1     -24.835   0.623 -35.834  0.00  0.00    -0.082 A 
ATOM     41  H20 ST7 d   1     -24.935  -1.478 -36.189  0.00  0.00     0.083 H 
ATOM     42  C24 ST7 d   1     -24.824   1.564 -34.828  0.00  0.00    -0.075 A 
ATOM     43  H21 ST7 d   1     -24.773   0.899 -36.880  0.00  0.00     0.083 H 
ATOM     44  H22 ST7 d   1     -24.756   2.620 -35.064  0.00  0.00     0.084 H 
ENDBRANCH  31  34
ENDBRANCH  30  31
BRANCH  30  45
ATOM     45  C11 ST7 d   1     -22.381   2.590 -32.537  0.00  0.00     0.022 C 
ATOM     46  H23 ST7 d   1     -22.036   3.581 -32.206  0.00  0.00     0.071 H 
ATOM     47  H24 ST7 d   1     -22.684   2.641 -33.593  0.00  0.00     0.071 H 
BRANCH  45  48
ATOM     48  C14 ST7 d   1     -21.221   1.639 -32.434  0.00  0.00    -0.040 A 
ATOM     49  C15 ST7 d   1     -21.410   0.238 -32.460  0.00  0.00    -0.075 A 
ATOM     50  C16 ST7 d   1     -20.254  -0.542 -32.347  0.00  0.00    -0.082 A 
ATOM     51  H25 ST7 d   1     -22.394  -0.206 -32.562  0.00  0.00     0.084 H 
ATOM     52  C17 ST7 d   1     -18.949  -0.013 -32.235  0.00  0.00    -0.083 A 
ATOM     53  H26 ST7 d   1     -20.367  -1.620 -32.345  0.00  0.00     0.083 H 
ATOM     54  C18 ST7 d   1     -18.788   1.386 -32.234  0.00  0.00    -0.082 A 
ATOM     55  H27 ST7 d   1     -18.090  -0.669 -32.152  0.00  0.00     0.083 H 
ATOM     56  C19 ST7 d   1     -19.927   2.184 -32.338  0.00  0.00    -0.075 A 
ATOM     57  H28 ST7 d   1     -17.803   1.832 -32.154  0.00  0.00     0.083 H 
ATOM     58  H29 ST7 d   1     -19.812   3.262 -32.345  0.00  0.00     0.084 H 
ENDBRANCH  45  48
ENDBRANCH  30  45
ENDBRANCH   1  28
BRANCH   1  59
ATOM     59  N2  ST7 d   1     -22.607   3.932 -29.465  0.00  0.00    -0.346 N 
ATOM     60  C3  ST7 d   1     -21.730   4.879 -29.335  0.00  0.00     0.238 C 
ATOM     61  O1  ST7 d   1     -20.527   4.612 -29.193  0.00  0.00    -0.272 OA
ATOM     62  H30 ST7 d   1     -23.568   4.206 -29.417  0.00  0.00     0.163 HD
BRANCH  60  63
ATOM     63  C10 ST7 d   1     -22.319   6.351 -29.350  0.00  0.00     0.092 C 
ATOM     64  H31 ST7 d   1     -23.328   6.364 -28.912  0.00  0.00     0.082 H 
ATOM     65  H32 ST7 d   1     -22.361   6.736 -30.380  0.00  0.00     0.082 H 
BRANCH  63  66
ATOM     66  N7  ST7 d   1     -21.407   7.155 -28.546  0.00  0.00    -0.243 N 
ATOM     67  N8  ST7 d   1     -20.276   7.532 -28.949  0.00  0.00    -0.066 NA
ATOM     68  N9  ST7 d   1     -19.672   8.093 -28.037  0.00  0.00    -0.142 NA
ATOM     69  C25 ST7 d   1     -20.488   8.092 -26.934  0.00  0.00     0.051 A 
ATOM     70  C26 ST7 d   1     -21.618   7.470 -27.272  0.00  0.00     0.078 A 
ATOM     71  H33 ST7 d   1     -20.255   8.521 -25.960  0.00  0.00     0.120 H 
BRANCH  70  72
ATOM     72  C27 ST7 d   1     -22.858   7.149 -26.413  0.00  0.00     0.088 C 
ATOM     73  H34 ST7 d   1     -23.767   7.421 -26.970  0.00  0.00     0.088 H 
ATOM     74  H35 ST7 d   1     -22.813   7.728 -25.479  0.00  0.00     0.088 H 
BRANCH  72  75
ATOM     75  O4  ST7 d   1     -22.894   5.728 -26.097  0.00  0.00    -0.251 OA
BRANCH  75  76
ATOM     76  N11 ST7 d   1     -21.936   5.140 -25.260  0.00  0.00    -0.145 NA
ATOM     77  C28 ST7 d   1     -21.922   3.807 -25.078  0.00  0.00     0.039 C 
ATOM     78  H36 ST7 d   1     -22.702   3.231 -25.573  0.00  0.00     0.119 H 
BRANCH  77  79
ATOM     79  C29 ST7 d   1     -20.989   3.091 -24.304  0.00  0.00    -0.003 A 
ATOM     80  C30 ST7 d   1     -20.718   3.391 -22.977  0.00  0.00     0.004 A 
ATOM     81  C34 ST7 d   1     -21.390   4.460 -22.369  0.00  0.00    -0.070 A 
ATOM     82  C31 ST7 d   1     -19.757   2.605 -22.283  0.00  0.00     0.067 A 
ATOM     83  C35 ST7 d   1     -21.108   4.707 -21.052  0.00  0.00    -0.082 A 
ATOM     84  H37 ST7 d   1     -22.102   5.065 -22.918  0.00  0.00     0.084 H 
ATOM     85  C36 ST7 d   1     -20.174   3.946 -20.357  0.00  0.00    -0.081 A 
ATOM     86  H38 ST7 d   1     -21.623   5.512 -20.541  0.00  0.00     0.083 H 
ATOM     87  C37 ST7 d   1     -19.490   2.902 -20.950  0.00  0.00    -0.054 A 
ATOM     88  H39 ST7 d   1     -19.976   4.179 -19.317  0.00  0.00     0.083 H 
ATOM     89  H40 ST7 d   1     -18.762   2.327 -20.389  0.00  0.00     0.087 H 
ATOM     90  N10 ST7 d   1     -19.081   1.571 -22.875  0.00  0.00    -0.260 NA
ATOM     91  C32 ST7 d   1     -19.335   1.283 -24.122  0.00  0.00     0.004 A 
ATOM     92  C33 ST7 d   1     -20.268   2.033 -24.832  0.00  0.00    -0.054 A 
ATOM     93  H41 ST7 d   1     -18.820   0.460 -24.605  0.00  0.00     0.114 H 
ATOM     94  H42 ST7 d   1     -20.442   1.771 -25.869  0.00  0.00     0.087 H 
ENDBRANCH  77  79
ENDBRANCH  75  76
ENDBRANCH  72  75
ENDBRANCH  70  72
ENDBRANCH  63  66
ENDBRANCH  60  63
ENDBRANCH   1  59
TORSDOF 17
