REMARK  14 active torsions:
REMARK  status: ('A' for Active; 'I' for Inactive)
REMARK    1  A    between atoms: C9_1  and  N6_2 
REMARK       I    between atoms: N6_2  and  C8_3 
REMARK       I    between atoms: C8_3  and  N4_5 
REMARK       I    between atoms: N4_5  and  C7_6 
REMARK       I    between atoms: C7_6  and  N5_7 
REMARK    2  A    between atoms: N3_8  and  C6_9 
REMARK    3  A    between atoms: C6_9  and  C5_10 
REMARK    4  A    between atoms: C5_10  and  C4_11 
REMARK    5  A    between atoms: C4_11  and  C2_12 
REMARK    6  A    between atoms: C2_12  and  N2_13 
REMARK    7  A    between atoms: C2_12  and  C1_20 
REMARK       I    between atoms: N2_13  and  C3_14 
REMARK    8  A    between atoms: C3_14  and  C10_16 
REMARK    9  A    between atoms: C10_16  and  N7_17 
REMARK   10  A    between atoms: N7_17  and  N8_18 
REMARK       I    between atoms: C1_20  and  N1_22 
REMARK   11  A    between atoms: N1_22  and  C12_23 
REMARK   12  A    between atoms: N1_22  and  C11_30 
REMARK   13  A    between atoms: C12_23  and  C13_24 
REMARK   14  A    between atoms: C11_30  and  C14_31 
ROOT
ATOM      1  C2  A1L d   1     -21.865   1.875 -28.035  0.00  0.00     0.089 C 
ATOM      2  H15 A1L d   1     -22.905   1.822 -28.388  0.00  0.00     0.087 H 
ENDROOT
BRANCH   1   3
ATOM      3  C4  A1L d   1     -21.624   0.874 -26.910  0.00  0.00    -0.036 C 
ATOM      4  H13 A1L d   1     -21.070   1.342 -26.083  0.00  0.00     0.036 H 
ATOM      5  H14 A1L d   1     -22.577   0.474 -26.533  0.00  0.00     0.036 H 
BRANCH   3   6
ATOM      6  C5  A1L d   1     -20.797  -0.226 -27.560  0.00  0.00    -0.048 C 
ATOM      7  H11 A1L d   1     -21.323  -0.572 -28.462  0.00  0.00     0.035 H 
ATOM      8  H12 A1L d   1     -19.820   0.193 -27.843  0.00  0.00     0.035 H 
BRANCH   6   9
ATOM      9  C6  A1L d   1     -20.568  -1.404 -26.661  0.00  0.00     0.009 C 
ATOM     10  H9  A1L d   1     -19.506  -1.456 -26.381  0.00  0.00     0.064 H 
ATOM     11  H10 A1L d   1     -21.182  -1.303 -25.754  0.00  0.00     0.064 H 
BRANCH   9  12
ATOM     12  N3  A1L d   1     -20.951  -2.627 -27.387  0.00  0.00    -0.226 N 
ATOM     13  C7  A1L d   1     -20.321  -3.121 -28.465  0.00  0.00     0.675 C 
ATOM     14  N4  A1L d   1     -20.801  -4.296 -28.912  0.00  0.00    -0.142 N 
ATOM     15  N5  A1L d   1     -19.258  -2.496 -29.032  0.00  0.00    -0.235 N 
ATOM     16  C8  A1L d   1     -20.336  -5.019 -29.960  0.00  0.00     0.334 C 
ATOM     17  H5  A1L d   1     -21.584  -4.676 -28.419  0.00  0.00     0.189 HD
ATOM     18  N6  A1L d   1     -21.011  -6.155 -30.203  0.00  0.00    -0.347 N 
ATOM     19  O3  A1L d   1     -19.341  -4.634 -30.596  0.00  0.00    -0.247 OA
ATOM     20  H4  A1L d   1     -21.802  -6.396 -29.641  0.00  0.00     0.163 HD
ATOM     21  H6  A1L d   1     -18.927  -1.597 -28.654  0.00  0.00     0.174 HD
ATOM     22  H7  A1L d   1     -18.782  -2.921 -29.841  0.00  0.00     0.174 HD
ATOM     23  H8  A1L d   1     -21.770  -3.146 -27.039  0.00  0.00     0.177 HD
BRANCH  18  24
ATOM     24  C9  A1L d   1     -20.583  -7.054 -31.305  0.00  0.00    -0.017 C 
ATOM     25  H1  A1L d   1     -21.253  -7.926 -31.348  0.00  0.00     0.056 H 
ATOM     26  H2  A1L d   1     -19.552  -7.392 -31.123  0.00  0.00     0.056 H 
ATOM     27  H3  A1L d   1     -20.627  -6.510 -32.260  0.00  0.00     0.056 H 
ENDBRANCH  18  24
ENDBRANCH   9  12
ENDBRANCH   6   9
ENDBRANCH   3   6
ENDBRANCH   1   3
BRANCH   1  28
ATOM     28  N2  A1L d   1     -20.933   1.430 -29.111  0.00  0.00    -0.346 N 
ATOM     29  C3  A1L d   1     -20.781   1.963 -30.319  0.00  0.00     0.240 C 
ATOM     30  O1  A1L d   1     -21.387   2.963 -30.693  0.00  0.00    -0.272 OA
ATOM     31  H16 A1L d   1     -20.357   0.641 -28.899  0.00  0.00     0.163 HD
BRANCH  29  32
ATOM     32  C10 A1L d   1     -19.751   1.229 -31.231  0.00  0.00     0.120 C 
ATOM     33  H17 A1L d   1     -20.164   0.258 -31.543  0.00  0.00     0.086 H 
ATOM     34  H18 A1L d   1     -18.817   1.068 -30.673  0.00  0.00     0.086 H 
BRANCH  32  35
ATOM     35  N7  A1L d   1     -19.475   2.053 -32.426  0.00  0.00    -0.106 NA
BRANCH  35  36
ATOM     36  N8  A1L d   1     -19.249   1.514 -33.415  0.00  0.00    -0.167 NA
ATOM     37  N9  A1L d   1     -18.922   1.175 -34.468  0.00  0.00     0.068 N 
ENDBRANCH  35  36
ENDBRANCH  32  35
ENDBRANCH  29  32
ENDBRANCH   1  28
BRANCH   1  38
ATOM     38  C1  A1L d   1     -21.579   3.295 -27.546  0.00  0.00     0.243 C 
ATOM     39  O2  A1L d   1     -20.470   3.792 -27.746  0.00  0.00    -0.271 OA
ATOM     40  N1  A1L d   1     -22.581   3.946 -26.928  0.00  0.00    -0.342 N 
BRANCH  40  41
ATOM     41  C12 A1L d   1     -22.373   5.346 -26.453  0.00  0.00     0.022 C 
ATOM     42  H19 A1L d   1     -21.693   5.339 -25.588  0.00  0.00     0.071 H 
ATOM     43  H20 A1L d   1     -23.340   5.777 -26.156  0.00  0.00     0.071 H 
BRANCH  41  44
ATOM     44  C13 A1L d   1     -21.752   6.211 -27.589  0.00  0.00    -0.040 A 
ATOM     45  C20 A1L d   1     -21.012   7.360 -27.297  0.00  0.00    -0.075 A 
ATOM     46  C21 A1L d   1     -20.446   8.103 -28.349  0.00  0.00    -0.082 A 
ATOM     47  H21 A1L d   1     -20.875   7.676 -26.269  0.00  0.00     0.084 H 
ATOM     48  C22 A1L d   1     -20.615   7.732 -29.687  0.00  0.00    -0.083 A 
ATOM     49  H22 A1L d   1     -19.863   8.987 -28.116  0.00  0.00     0.083 H 
ATOM     50  C23 A1L d   1     -21.355   6.592 -29.990  0.00  0.00    -0.082 A 
ATOM     51  H23 A1L d   1     -20.174   8.326 -30.480  0.00  0.00     0.083 H 
ATOM     52  C24 A1L d   1     -21.912   5.847 -28.938  0.00  0.00    -0.075 A 
ATOM     53  H24 A1L d   1     -21.499   6.285 -31.020  0.00  0.00     0.083 H 
ATOM     54  H25 A1L d   1     -22.486   4.959 -29.174  0.00  0.00     0.084 H 
ENDBRANCH  41  44
ENDBRANCH  40  41
BRANCH  40  55
ATOM     55  C11 A1L d   1     -23.898   3.313 -26.677  0.00  0.00     0.022 C 
ATOM     56  H26 A1L d   1     -24.324   3.761 -25.767  0.00  0.00     0.071 H 
ATOM     57  H27 A1L d   1     -23.735   2.237 -26.514  0.00  0.00     0.071 H 
BRANCH  55  58
ATOM     58  C14 A1L d   1     -24.934   3.476 -27.827  0.00  0.00    -0.040 A 
ATOM     59  C15 A1L d   1     -24.547   3.542 -29.172  0.00  0.00    -0.075 A 
ATOM     60  C16 A1L d   1     -25.507   3.677 -30.184  0.00  0.00    -0.082 A 
ATOM     61  H28 A1L d   1     -23.496   3.488 -29.432  0.00  0.00     0.084 H 
ATOM     62  C17 A1L d   1     -26.863   3.741 -29.863  0.00  0.00    -0.083 A 
ATOM     63  H29 A1L d   1     -25.195   3.732 -31.221  0.00  0.00     0.083 H 
ATOM     64  C18 A1L d   1     -27.262   3.671 -28.529  0.00  0.00    -0.082 A 
ATOM     65  H30 A1L d   1     -27.604   3.845 -30.648  0.00  0.00     0.083 H 
ATOM     66  C19 A1L d   1     -26.301   3.537 -27.520  0.00  0.00    -0.075 A 
ATOM     67  H31 A1L d   1     -28.314   3.720 -28.274  0.00  0.00     0.083 H 
ATOM     68  H32 A1L d   1     -26.619   3.479 -26.485  0.00  0.00     0.084 H 
ENDBRANCH  55  58
ENDBRANCH  40  55
ENDBRANCH   1  38
TORSDOF 14
