REMARK  11 active torsions:
REMARK  status: ('A' for Active; 'I' for Inactive)
REMARK    1  A    between atoms: C2_3  and  C5_7 
REMARK    2  A    between atoms: C3_5  and  N3_13 
REMARK    3  A    between atoms: C4_6  and  C19_24 
REMARK    4  A    between atoms: N3_13  and  C11_14 
REMARK    5  A    between atoms: C14_17  and  C17_20 
REMARK    6  A    between atoms: C17_20  and  C18_21 
REMARK       I    between atoms: C18_21  and  N4_22 
REMARK    7  A    between atoms: N4_22  and  C20_27 
REMARK       I    between atoms: C19_24  and  N5_26 
REMARK    8  A    between atoms: C20_27  and  C21_28 
REMARK    9  A    between atoms: C21_28  and  C22_29 
REMARK   10  A    between atoms: C21_28  and  C23_30 
REMARK   11  A    between atoms: C21_28  and  C24_31 
ROOT
ATOM      1  C11 QPC d   1      23.227  17.714 -16.459  0.00  0.00     0.033 A 
ATOM      2  C12 QPC d   1      22.610  16.497 -16.277  0.00  0.00    -0.057 A 
ATOM      3  C13 QPC d   1      21.471  16.136 -16.972  0.00  0.00    -0.074 A 
ATOM      4  C14 QPC d   1      20.924  17.009 -17.883  0.00  0.00    -0.049 A 
ATOM      5  C15 QPC d   1      21.524  18.231 -18.063  0.00  0.00    -0.074 A 
ATOM      6  C16 QPC d   1      22.650  18.578 -17.361  0.00  0.00    -0.057 A 
ATOM      7  H8  QPC d   1      23.032  15.798 -15.564  0.00  0.00     0.086 H 
ATOM      8  H9  QPC d   1      21.011  15.170 -16.800  0.00  0.00     0.084 H 
ATOM      9  H10 QPC d   1      21.101  18.933 -18.772  0.00  0.00     0.084 H 
ATOM     10  H11 QPC d   1      23.095  19.554 -17.520  0.00  0.00     0.086 H 
ENDROOT
BRANCH   1  11
ATOM     11  N3  QPC d   1      24.402  18.064 -15.727  0.00  0.00    -0.340 N 
ATOM     12  H7  QPC d   1      24.391  17.965 -14.702  0.00  0.00     0.167 HD
BRANCH  11  13
ATOM     13  C3  QPC d   1      25.583  18.542 -16.349  0.00  0.00     0.147 A 
ATOM     14  N2  QPC d   1      25.511  18.973 -17.621  0.00  0.00    -0.210 NA
ATOM     15  C2  QPC d   1      26.609  19.444 -18.229  0.00  0.00     0.161 A 
ATOM     16  N1  QPC d   1      27.815  19.512 -17.641  0.00  0.00    -0.240 NA
ATOM     17  C1  QPC d   1      27.884  19.080 -16.367  0.00  0.00     0.024 A 
ATOM     18  C4  QPC d   1      26.797  18.583 -15.668  0.00  0.00     0.095 A 
ATOM     19  H1  QPC d   1      28.842  19.124 -15.862  0.00  0.00     0.116 H 
BRANCH  15  20
ATOM     20  C5  QPC d   1      26.460  19.923 -19.617  0.00  0.00     0.012 A 
ATOM     21  C6  QPC d   1      27.433  20.696 -20.231  0.00  0.00    -0.069 A 
ATOM     22  C7  QPC d   1      27.320  21.154 -21.532  0.00  0.00    -0.082 A 
ATOM     23  H2  QPC d   1      28.322  20.953 -19.667  0.00  0.00     0.085 H 
ATOM     24  C8  QPC d   1      26.198  20.851 -22.277  0.00  0.00    -0.083 A 
ATOM     25  H3  QPC d   1      28.113  21.751 -21.966  0.00  0.00     0.083 H 
ATOM     26  C9  QPC d   1      25.208  20.085 -21.695  0.00  0.00    -0.082 A 
ATOM     27  H4  QPC d   1      26.097  21.207 -23.296  0.00  0.00     0.083 H 
ATOM     28  C10 QPC d   1      25.345  19.632 -20.391  0.00  0.00    -0.069 A 
ATOM     29  H5  QPC d   1      24.318  19.836 -22.261  0.00  0.00     0.083 H 
ATOM     30  H6  QPC d   1      24.553  19.029 -19.961  0.00  0.00     0.085 H 
ENDBRANCH  15  20
BRANCH  18  31
ATOM     31  C19 QPC d   1      26.966  18.142 -14.257  0.00  0.00     0.254 C 
ATOM     32  O2  QPC d   1      26.025  18.147 -13.476  0.00  0.00    -0.268 OA
ATOM     33  N5  QPC d   1      28.229  17.760 -13.906  0.00  0.00    -0.366 N 
ATOM     34  H15 QPC d   1      28.417  17.451 -12.973  0.00  0.00     0.159 HD
ATOM     35  H16 QPC d   1      28.966  17.789 -14.581  0.00  0.00     0.159 HD
ENDBRANCH  18  31
ENDBRANCH  11  13
ENDBRANCH   1  11
BRANCH   4  36
ATOM     36  C17 QPC d   1      19.700  16.706 -18.678  0.00  0.00     0.033 C 
ATOM     37  H12 QPC d   1      19.307  17.652 -19.079  0.00  0.00     0.054 H 
ATOM     38  H13 QPC d   1      18.956  16.255 -18.006  0.00  0.00     0.054 H 
BRANCH  36  39
ATOM     39  C18 QPC d   1      19.926  15.766 -19.828  0.00  0.00     0.221 C 
ATOM     40  N4  QPC d   1      21.116  15.976 -20.498  0.00  0.00    -0.360 N 
ATOM     41  H14 QPC d   1      21.794  16.594 -20.100  0.00  0.00     0.162 HD
ATOM     42  O1  QPC d   1      19.100  14.908 -20.115  0.00  0.00    -0.273 OA
BRANCH  40  43
ATOM     43  C20 QPC d   1      21.412  15.327 -21.763  0.00  0.00     0.001 C 
ATOM     44  H17 QPC d   1      20.500  14.816 -22.105  0.00  0.00     0.065 H 
ATOM     45  H18 QPC d   1      22.204  14.584 -21.587  0.00  0.00     0.065 H 
BRANCH  43  46
ATOM     46  C21 QPC d   1      21.878  16.259 -22.878  0.00  0.00    -0.035 C 
BRANCH  46  47
ATOM     47  C22 QPC d   1      20.867  17.342 -23.170  0.00  0.00    -0.068 C 
ATOM     48  H19 QPC d   1      21.244  17.987 -23.977  0.00  0.00     0.028 H 
ATOM     49  H20 QPC d   1      20.704  17.945 -22.265  0.00  0.00     0.028 H 
ATOM     50  H21 QPC d   1      19.917  16.883 -23.481  0.00  0.00     0.028 H 
ENDBRANCH  46  47
BRANCH  46  51
ATOM     51  C23 QPC d   1      23.193  16.915 -22.536  0.00  0.00    -0.068 C 
ATOM     52  H22 QPC d   1      23.944  16.141 -22.320  0.00  0.00     0.028 H 
ATOM     53  H23 QPC d   1      23.064  17.557 -21.652  0.00  0.00     0.028 H 
ATOM     54  H24 QPC d   1      23.530  17.525 -23.387  0.00  0.00     0.028 H 
ENDBRANCH  46  51
BRANCH  46  55
ATOM     55  C24 QPC d   1      22.081  15.445 -24.130  0.00  0.00    -0.068 C 
ATOM     56  H25 QPC d   1      21.136  14.953 -24.405  0.00  0.00     0.028 H 
ATOM     57  H26 QPC d   1      22.853  14.682 -23.950  0.00  0.00     0.028 H 
ATOM     58  H27 QPC d   1      22.402  16.106 -24.949  0.00  0.00     0.028 H 
ENDBRANCH  46  55
ENDBRANCH  43  46
ENDBRANCH  40  43
ENDBRANCH  36  39
ENDBRANCH   4  36
TORSDOF 11
