REMARK WARNING: 32 MAX_TORS EXCEEDED!!!
REMARK  34 active torsions:
REMARK  status: ('A' for Active; 'I' for Inactive)
REMARK    1  A    between atoms: CA_3  and  CB_4 
REMARK    2  A    between atoms: CB_4  and  CG_5 
REMARK    3  A    between atoms: CB_4  and  OB_20 
REMARK    4  A    between atoms: NE1_7  and  C1_8 
REMARK    5  A    between atoms: C1_8  and  C3_9 
REMARK    6  A    between atoms: C1_8  and  C4_10 
REMARK    7  A    between atoms: C1_8  and  C2_13 
REMARK    8  A    between atoms: C4_10  and  C5_11 
REMARK    9  A    between atoms: C4_10  and  O6_12 
REMARK   10  A    between atoms: N_22  and  CN_23 
REMARK   11  A    between atoms: CA_24  and  CB_25 
REMARK   12  A    between atoms: CB_25  and  CG_26 
REMARK   13  A    between atoms: CG_26  and  CG1_27 
REMARK   14  A    between atoms: CG_26  and  CG2_29 
REMARK   15  A    between atoms: CG1_27  and  O4_28 
REMARK   16  A    between atoms: CA_33  and  CB_36 
REMARK   17  A    between atoms: CA_38  and  CB_40 
REMARK   18  A    between atoms: CB_40  and  OB_41 
REMARK   19  A    between atoms: CB_40  and  CG_43 
REMARK   20  A    between atoms: OB_41  and  CB1_42 
REMARK   21  A    between atoms: CA_51  and  CB_54 
REMARK   22  A    between atoms: CB_54  and  CG1_55 
REMARK   23  A    between atoms: CB_54  and  CG2_56 
REMARK   24  A    between atoms: N_57  and  CN_58 
REMARK   25  A    between atoms: CA_59  and  CB_60 
REMARK   26  A    between atoms: CB_60  and  CG_61 
REMARK   27  A    between atoms: CG_61  and  CD1_62 
REMARK   28  A    between atoms: CG_61  and  CD2_63 
REMARK   29  A    between atoms: CA_67  and  CB_69 
REMARK   30  A    between atoms: CB_69  and  CG2_70 
REMARK   31  A    between atoms: CB_69  and  CG1_71 
REMARK   32  A    between atoms: CG1_71  and  CD_72 
REMARK   33  A    between atoms: CD_72  and  CE1_73 
REMARK   34  A    between atoms: CD_72  and  CE2_74 
ROOT
ATOM      1  O   WRP d   1     -27.230  12.377  -5.476  0.00  0.00    -0.271 OA
ATOM      2  C   WRP d   1     -26.117  12.249  -5.989  0.00  0.00     0.245 C 
ATOM      3  CA  WRP d   1     -25.099  11.376  -5.251  0.00  0.00     0.118 C 
ATOM      4  N   WRP d   1     -24.835  11.959  -3.948  0.00  0.00    -0.343 N 
ATOM      5  H1  WRP d   1     -24.164  11.316  -5.827  0.00  0.00     0.092 H 
ATOM      6  H20 WRP d   1     -25.160  11.479  -3.133  0.00  0.00     0.163 HD
ATOM      7  N   WLU d   1     -25.850  12.865  -7.167  0.00  0.00    -0.341 N 
ATOM      8  CA  WLU d   1     -24.546  12.749  -7.904  0.00  0.00     0.091 C 
ATOM      9  C   WLU d   1     -24.099  14.155  -8.336  0.00  0.00     0.241 C 
ATOM     10  O   WLU d   1     -24.138  14.502  -9.514  0.00  0.00    -0.271 OA
ATOM     11  H24 WLU d   1     -23.780  12.318  -7.243  0.00  0.00     0.087 H 
ATOM     12  N   ALA d   1     -23.662  14.917  -7.376  0.00  0.00    -0.346 N 
ATOM     13  CA  ALA d   1     -23.220  16.287  -7.687  0.00  0.00     0.086 C 
ATOM     14  C   ALA d   1     -21.946  16.675  -6.981  0.00  0.00     0.240 C 
ATOM     15  O   ALA d   1     -21.194  17.460  -7.579  0.00  0.00    -0.271 OA
ATOM     16  H34 ALA d   1     -23.627  14.576  -6.437  0.00  0.00     0.163 HD
ATOM     17  H35 ALA d   1     -23.004  16.305  -8.765  0.00  0.00     0.086 H 
ATOM     18  N   WPA d   1     -21.731  16.211  -5.737  0.00  0.00    -0.343 N 
ATOM     19  CA  WPA d   1     -20.597  16.633  -4.943  0.00  0.00     0.118 C 
ATOM     20  C   WPA d   1     -20.076  15.404  -4.191  0.00  0.00     0.244 C 
ATOM     21  O   WPA d   1     -20.719  14.364  -4.154  0.00  0.00    -0.271 OA
ATOM     22  H39 WPA d   1     -22.376  15.553  -5.348  0.00  0.00     0.163 HD
ATOM     23  H40 WPA d   1     -19.813  17.010  -5.616  0.00  0.00     0.092 H 
ATOM     24  N   VAL d   1     -18.976  15.593  -3.487  0.00  0.00    -0.346 N 
ATOM     25  CA  VAL d   1     -18.446  14.588  -2.563  0.00  0.00     0.092 C 
ATOM     26  C   VAL d   1     -19.142  14.788  -1.206  0.00  0.00     0.243 C 
ATOM     27  O   VAL d   1     -18.914  15.826  -0.610  0.00  0.00    -0.271 OA
ATOM     28  H50 VAL d   1     -18.484  16.458  -3.589  0.00  0.00     0.163 HD
ATOM     29  H51 VAL d   1     -18.653  13.576  -2.940  0.00  0.00     0.088 H 
ATOM     30  N   MLE d   1     -19.983  13.886  -0.658  0.00  0.00    -0.341 N 
ATOM     31  CA  MLE d   1     -20.438  12.618  -1.287  0.00  0.00     0.091 C 
ATOM     32  C   MLE d   1     -21.958  12.628  -1.316  0.00  0.00     0.241 C 
ATOM     33  O   MLE d   1     -22.639  11.857  -0.617  0.00  0.00    -0.271 OA
ATOM     34  H62 MLE d   1     -20.050  12.582  -2.316  0.00  0.00     0.087 H 
ATOM     35  C   WVL d   1     -24.177  13.107  -3.794  0.00  0.00     0.241 C 
ATOM     36  CA  WVL d   1     -23.959  13.558  -2.369  0.00  0.00     0.095 C 
ATOM     37  O   WVL d   1     -23.743  13.734  -4.766  0.00  0.00    -0.271 OA
ATOM     38  N   WVL d   1     -22.530  13.488  -2.135  0.00  0.00    -0.345 N 
ATOM     39  H72 WVL d   1     -24.460  12.857  -1.686  0.00  0.00     0.088 H 
ATOM     40  H84 WVL d   1     -21.942  14.132  -2.625  0.00  0.00     0.163 HD
ENDROOT
BRANCH   3  41
ATOM     41  CB  WRP d   1     -25.710   9.962  -5.089  0.00  0.00     0.091 C 
ATOM     42  H2  WRP d   1     -26.719  10.066  -4.663  0.00  0.00     0.094 H 
BRANCH  41  43
ATOM     43  CG  WRP d   1     -25.830   9.266  -6.425  0.00  0.00     0.001 A 
ATOM     44  CD1 WRP d   1     -26.945   9.204  -7.210  0.00  0.00    -0.009 A 
ATOM     45  NE1 WRP d   1     -26.665   8.461  -8.321  0.00  0.00    -0.344 N 
ATOM     46  H3  WRP d   1     -27.903   9.671  -6.986  0.00  0.00     0.112 H 
ATOM     47  CE2 WRP d   1     -25.359   8.023  -8.273  0.00  0.00     0.046 A 
ATOM     48  CZ2 WRP d   1     -24.602   7.225  -9.140  0.00  0.00    -0.056 A 
ATOM     49  CD2 WRP d   1     -24.793   8.518  -7.050  0.00  0.00     0.001 A 
ATOM     50  CH2 WRP d   1     -23.275   6.936  -8.792  0.00  0.00    -0.081 A 
ATOM     51  H15 WRP d   1     -25.032   6.840 -10.058  0.00  0.00     0.087 H 
ATOM     52  CZ3 WRP d   1     -22.726   7.394  -7.601  0.00  0.00    -0.082 A 
ATOM     53  H16 WRP d   1     -22.666   6.344  -9.465  0.00  0.00     0.083 H 
ATOM     54  CE3 WRP d   1     -23.445   8.213  -6.721  0.00  0.00    -0.070 A 
ATOM     55  H17 WRP d   1     -21.712   7.109  -7.345  0.00  0.00     0.083 H 
ATOM     56  H18 WRP d   1     -22.988   8.601  -5.818  0.00  0.00     0.084 H 
BRANCH  45  57
ATOM     57  C1  WRP d   1     -27.660   8.132  -9.381  0.00  0.00     0.055 C 
BRANCH  57  58
ATOM     58  C3  WRP d   1     -28.953   8.904  -9.130  0.00  0.00    -0.051 C 
ATOM     59  H4  WRP d   1     -29.685   8.659  -9.914  0.00  0.00     0.030 H 
ATOM     60  H5  WRP d   1     -28.745   9.984  -9.148  0.00  0.00     0.030 H 
ATOM     61  H6  WRP d   1     -29.361   8.626  -8.147  0.00  0.00     0.030 H 
ENDBRANCH  57  58
BRANCH  57  62
ATOM     62  C4  WRP d   1     -27.933   6.620  -9.342  0.00  0.00     0.056 C 
ATOM     63  H7  WRP d   1     -26.969   6.098  -9.432  0.00  0.00     0.086 H 
BRANCH  62  64
ATOM     64  C5  WRP d   1     -28.632   6.144  -8.072  0.00  0.00    -0.050 C 
ATOM     65  H8  WRP d   1     -28.789   5.056  -8.125  0.00  0.00     0.031 H 
ATOM     66  H9  WRP d   1     -29.604   6.650  -7.977  0.00  0.00     0.031 H 
ATOM     67  H10 WRP d   1     -28.007   6.382  -7.198  0.00  0.00     0.031 H 
ENDBRANCH  62  64
BRANCH  62  68
ATOM     68  O6  WRP d   1     -28.779   6.247 -10.419  0.00  0.00    -0.393 OA
ATOM     69  H11 WRP d   1     -29.625   6.666 -10.315  0.00  0.00     0.210 HD
ENDBRANCH  62  68
ENDBRANCH  57  62
BRANCH  57  70
ATOM     70  C2  WRP d   1     -27.153   8.546 -10.750  0.00  0.00    -0.051 C 
ATOM     71  H12 WRP d   1     -27.905   8.292 -11.512  0.00  0.00     0.030 H 
ATOM     72  H13 WRP d   1     -26.215   8.015 -10.970  0.00  0.00     0.030 H 
ATOM     73  H14 WRP d   1     -26.971   9.631 -10.761  0.00  0.00     0.030 H 
ENDBRANCH  57  70
ENDBRANCH  45  57
ENDBRANCH  41  43
BRANCH  41  74
ATOM     74  OB  WRP d   1     -24.922   9.196  -4.195  0.00  0.00    -0.388 OA
ATOM     75  H19 WRP d   1     -24.858   9.649  -3.362  0.00  0.00     0.210 HD
ENDBRANCH  41  74
ENDBRANCH   3  41
BRANCH   7  76
ATOM     76  CN  WLU d   1     -26.941  13.600  -7.812  0.00  0.00    -0.015 C 
ATOM     77  H21 WLU d   1     -27.823  13.598  -7.155  0.00  0.00     0.056 H 
ATOM     78  H22 WLU d   1     -27.194  13.117  -8.767  0.00  0.00     0.056 H 
ATOM     79  H23 WLU d   1     -26.625  14.637  -7.998  0.00  0.00     0.056 H 
ENDBRANCH   7  76
BRANCH   8  80
ATOM     80  CB  WLU d   1     -24.762  11.820  -9.087  0.00  0.00    -0.033 C 
ATOM     81  H25 WLU d   1     -25.503  12.279  -9.758  0.00  0.00     0.037 H 
ATOM     82  H26 WLU d   1     -25.152  10.863  -8.710  0.00  0.00     0.037 H 
BRANCH  80  83
ATOM     83  CG  WLU d   1     -23.506  11.544  -9.880  0.00  0.00    -0.035 C 
ATOM     84  H27 WLU d   1     -23.119  12.510 -10.236  0.00  0.00     0.042 H 
BRANCH  83  85
ATOM     85  CG1 WLU d   1     -23.842  10.695 -11.100  0.00  0.00     0.020 C 
ATOM     86  H28 WLU d   1     -24.308   9.749 -10.787  0.00  0.00     0.074 H 
ATOM     87  H29 WLU d   1     -22.930  10.482 -11.676  0.00  0.00     0.074 H 
BRANCH  85  88
ATOM     88  O4  WLU d   1     -24.762  11.460 -11.895  0.00  0.00    -0.400 OA
ATOM     89  H30 WLU d   1     -24.998  10.963 -12.670  0.00  0.00     0.209 HD
ENDBRANCH  85  88
ENDBRANCH  83  85
BRANCH  83  90
ATOM     90  CG2 WLU d   1     -22.406  10.894  -9.045  0.00  0.00    -0.071 C 
ATOM     91  H31 WLU d   1     -22.185  11.527  -8.173  0.00  0.00     0.028 H 
ATOM     92  H32 WLU d   1     -21.499  10.782  -9.657  0.00  0.00     0.028 H 
ATOM     93  H33 WLU d   1     -22.742   9.904  -8.703  0.00  0.00     0.028 H 
ENDBRANCH  83  90
ENDBRANCH  80  83
ENDBRANCH   8  80
BRANCH  36  94
ATOM     94  CB  WVL d   1     -24.562  14.939  -2.139  0.00  0.00    -0.013 C 
ATOM     95  H73 WVL d   1     -24.073  15.653  -2.818  0.00  0.00     0.049 H 
BRANCH  94  96
ATOM     96  CG2 WVL d   1     -24.377  15.423  -0.713  0.00  0.00    -0.067 C 
ATOM     97  H74 WVL d   1     -24.829  16.420  -0.603  0.00  0.00     0.028 H 
ATOM     98  H75 WVL d   1     -23.303  15.479  -0.481  0.00  0.00     0.028 H 
ATOM     99  H76 WVL d   1     -24.865  14.721  -0.021  0.00  0.00     0.028 H 
ENDBRANCH  94  96
BRANCH  94 100
ATOM    100  CG1 WVL d   1     -26.023  14.884  -2.449  0.00  0.00    -0.095 C 
ATOM    101  H77 WVL d   1     -26.642  14.339  -1.738  0.00  0.00     0.077 H 
BRANCH 100 102
ATOM    102  CD  WVL d   1     -26.660  15.420  -3.489  0.00  0.00    -0.091 C 
BRANCH 102 103
ATOM    103  CE1 WVL d   1     -28.158  15.220  -3.660  0.00  0.00    -0.055 C 
ATOM    104  H78 WVL d   1     -28.495  15.736  -4.571  0.00  0.00     0.033 H 
ATOM    105  H79 WVL d   1     -28.685  15.635  -2.788  0.00  0.00     0.033 H 
ATOM    106  H80 WVL d   1     -28.377  14.145  -3.744  0.00  0.00     0.033 H 
ENDBRANCH 102 103
BRANCH 102 107
ATOM    107  CE2 WVL d   1     -26.006  16.237  -4.566  0.00  0.00    -0.055 C 
ATOM    108  H81 WVL d   1     -24.930  16.326  -4.356  0.00  0.00     0.033 H 
ATOM    109  H82 WVL d   1     -26.458  17.239  -4.592  0.00  0.00     0.033 H 
ATOM    110  H83 WVL d   1     -26.151  15.744  -5.539  0.00  0.00     0.033 H 
ENDBRANCH 102 107
ENDBRANCH 100 102
ENDBRANCH  94 100
ENDBRANCH  36  94
BRANCH  13 111
ATOM    111  CB  ALA d   1     -24.295  17.321  -7.438  0.00  0.00    -0.049 C 
ATOM    112  H36 ALA d   1     -23.908  18.320  -7.687  0.00  0.00     0.030 H 
ATOM    113  H37 ALA d   1     -24.590  17.296  -6.378  0.00  0.00     0.030 H 
ATOM    114  H38 ALA d   1     -25.170  17.099  -8.067  0.00  0.00     0.030 H 
ENDBRANCH  13 111
BRANCH  31 115
ATOM    115  CB  MLE d   1     -19.976  11.356  -0.554  0.00  0.00    -0.035 C 
ATOM    116  H63 MLE d   1     -20.568  10.508  -0.930  0.00  0.00     0.037 H 
ATOM    117  H64 MLE d   1     -20.174  11.494   0.519  0.00  0.00     0.037 H 
BRANCH 115 118
ATOM    118  CG  MLE d   1     -18.506  11.013  -0.720  0.00  0.00    -0.059 C 
ATOM    119  H65 MLE d   1     -17.896  11.891  -0.460  0.00  0.00     0.038 H 
BRANCH 118 120
ATOM    120  CD1 MLE d   1     -18.205   9.869   0.254  0.00  0.00    -0.073 C 
ATOM    121  H66 MLE d   1     -17.146   9.585   0.169  0.00  0.00     0.028 H 
ATOM    122  H67 MLE d   1     -18.838   9.003   0.009  0.00  0.00     0.028 H 
ATOM    123  H68 MLE d   1     -18.415  10.198   1.282  0.00  0.00     0.028 H 
ENDBRANCH 118 120
BRANCH 118 124
ATOM    124  CD2 MLE d   1     -18.173  10.597  -2.138  0.00  0.00    -0.073 C 
ATOM    125  H69 MLE d   1     -18.394  11.427  -2.825  0.00  0.00     0.028 H 
ATOM    126  H70 MLE d   1     -18.778   9.721  -2.415  0.00  0.00     0.028 H 
ATOM    127  H71 MLE d   1     -17.105  10.341  -2.204  0.00  0.00     0.028 H 
ENDBRANCH 118 124
ENDBRANCH 115 118
ENDBRANCH  31 115
BRANCH  30 128
ATOM    128  CN  MLE d   1     -20.514  14.189   0.675  0.00  0.00    -0.015 C 
ATOM    129  H59 MLE d   1     -20.102  15.147   1.025  0.00  0.00     0.056 H 
ATOM    130  H60 MLE d   1     -20.227  13.390   1.374  0.00  0.00     0.056 H 
ATOM    131  H61 MLE d   1     -21.611  14.257   0.626  0.00  0.00     0.056 H 
ENDBRANCH  30 128
BRANCH  19 132
ATOM    132  CB  WPA d   1     -20.950  17.742  -3.943  0.00  0.00     0.091 C 
ATOM    133  H41 WPA d   1     -20.029  18.068  -3.438  0.00  0.00     0.095 H 
BRANCH 132 134
ATOM    134  OB  WPA d   1     -21.789  17.121  -2.974  0.00  0.00    -0.383 OA
BRANCH 134 135
ATOM    135  CB1 WPA d   1     -21.760  17.803  -1.719  0.00  0.00     0.005 C 
ATOM    136  H42 WPA d   1     -22.421  17.288  -1.006  0.00  0.00     0.066 H 
ATOM    137  H43 WPA d   1     -22.105  18.838  -1.856  0.00  0.00     0.066 H 
ATOM    138  H44 WPA d   1     -20.732  17.808  -1.328  0.00  0.00     0.066 H 
ENDBRANCH 134 135
ENDBRANCH 132 134
BRANCH 132 139
ATOM    139  CG  WPA d   1     -21.524  18.947  -4.610  0.00  0.00    -0.027 A 
ATOM    140  CD1 WPA d   1     -20.664  19.929  -5.136  0.00  0.00    -0.074 A 
ATOM    141  CE1 WPA d   1     -21.168  21.096  -5.716  0.00  0.00    -0.082 A 
ATOM    142  H45 WPA d   1     -19.592  19.777  -5.090  0.00  0.00     0.084 H 
ATOM    143  CZ  WPA d   1     -22.516  21.253  -5.805  0.00  0.00    -0.083 A 
ATOM    144  H46 WPA d   1     -20.497  21.862  -6.088  0.00  0.00     0.083 H 
ATOM    145  CE2 WPA d   1     -23.385  20.322  -5.307  0.00  0.00    -0.082 A 
ATOM    146  H47 WPA d   1     -22.913  22.141  -6.284  0.00  0.00     0.083 H 
ATOM    147  CD2 WPA d   1     -22.868  19.155  -4.666  0.00  0.00    -0.074 A 
ATOM    148  H48 WPA d   1     -24.455  20.468  -5.398  0.00  0.00     0.083 H 
ATOM    149  H49 WPA d   1     -23.547  18.434  -4.224  0.00  0.00     0.084 H 
ENDBRANCH 132 139
ENDBRANCH  19 132
BRANCH  25 150
ATOM    150  CB  VAL d   1     -16.938  14.793  -2.449  0.00  0.00    -0.033 C 
ATOM    151  H52 VAL d   1     -16.773  15.844  -2.169  0.00  0.00     0.042 H 
BRANCH 150 152
ATOM    152  CG1 VAL d   1     -16.305  13.947  -1.361  0.00  0.00    -0.071 C 
ATOM    153  H53 VAL d   1     -15.222  14.140  -1.330  0.00  0.00     0.028 H 
ATOM    154  H54 VAL d   1     -16.482  12.883  -1.575  0.00  0.00     0.028 H 
ATOM    155  H55 VAL d   1     -16.751  14.205  -0.389  0.00  0.00     0.028 H 
ENDBRANCH 150 152
BRANCH 150 156
ATOM    156  CG2 VAL d   1     -16.280  14.576  -3.800  0.00  0.00    -0.071 C 
ATOM    157  H56 VAL d   1     -16.772  15.209  -4.553  0.00  0.00     0.028 H 
ATOM    158  H57 VAL d   1     -16.377  13.519  -4.089  0.00  0.00     0.028 H 
ATOM    159  H58 VAL d   1     -15.215  14.843  -3.736  0.00  0.00     0.028 H 
ENDBRANCH 150 156
ENDBRANCH  25 150
TORSDOF 34
