REMARK WARNING: 32 MAX_TORS EXCEEDED!!!
REMARK  34 active torsions:
REMARK  status: ('A' for Active; 'I' for Inactive)
REMARK    1  A    between atoms: CA_3  and  CB_4 
REMARK    2  A    between atoms: CB_4  and  CG_5 
REMARK    3  A    between atoms: CB_4  and  OB_20 
REMARK    4  A    between atoms: NE1_7  and  C1_8 
REMARK    5  A    between atoms: C1_8  and  C3_9 
REMARK    6  A    between atoms: C1_8  and  C4_10 
REMARK    7  A    between atoms: C1_8  and  C2_13 
REMARK    8  A    between atoms: C4_10  and  C5_11 
REMARK    9  A    between atoms: C4_10  and  O6_12 
REMARK   10  A    between atoms: N_22  and  CN_23 
REMARK   11  A    between atoms: CA_24  and  CB_25 
REMARK   12  A    between atoms: CB_25  and  CG_26 
REMARK   13  A    between atoms: CG_26  and  CG1_27 
REMARK   14  A    between atoms: CG_26  and  CG2_29 
REMARK   15  A    between atoms: CG1_27  and  O4_28 
REMARK   16  A    between atoms: CA_33  and  CB_36 
REMARK   17  A    between atoms: CA_38  and  CB_40 
REMARK   18  A    between atoms: CB_40  and  OB_41 
REMARK   19  A    between atoms: CB_40  and  CG_43 
REMARK   20  A    between atoms: OB_41  and  CB1_42 
REMARK   21  A    between atoms: CA_51  and  CB_54 
REMARK   22  A    between atoms: CB_54  and  CG1_55 
REMARK   23  A    between atoms: CB_54  and  CG2_56 
REMARK   24  A    between atoms: N_57  and  CN_58 
REMARK   25  A    between atoms: CA_59  and  CB_60 
REMARK   26  A    between atoms: CB_60  and  CG_61 
REMARK   27  A    between atoms: CG_61  and  CD1_62 
REMARK   28  A    between atoms: CG_61  and  CD2_63 
REMARK   29  A    between atoms: CA_67  and  CB_69 
REMARK   30  A    between atoms: CB_69  and  CG2_70 
REMARK   31  A    between atoms: CB_69  and  CG1_71 
REMARK   32  A    between atoms: CG1_71  and  CD_72 
REMARK   33  A    between atoms: CD_72  and  CE1_73 
REMARK   34  A    between atoms: CD_72  and  CE2_74 
ROOT
ATOM      1  O   WRP d   1     -27.158  12.584  -5.537  0.00  0.00    -0.271 OA
ATOM      2  C   WRP d   1     -26.052  12.421  -6.056  0.00  0.00     0.245 C 
ATOM      3  CA  WRP d   1     -25.046  11.566  -5.301  0.00  0.00     0.118 C 
ATOM      4  N   WRP d   1     -24.819  12.178  -3.983  0.00  0.00    -0.343 N 
ATOM      5  H1  WRP d   1     -24.100  11.498  -5.859  0.00  0.00     0.092 H 
ATOM      6  H20 WRP d   1     -25.167  11.719  -3.166  0.00  0.00     0.163 HD
ATOM      7  N   WLU d   1     -25.765  12.980  -7.241  0.00  0.00    -0.341 N 
ATOM      8  CA  WLU d   1     -24.497  12.831  -7.970  0.00  0.00     0.091 C 
ATOM      9  C   WLU d   1     -24.040  14.231  -8.402  0.00  0.00     0.241 C 
ATOM     10  O   WLU d   1     -24.077  14.584  -9.583  0.00  0.00    -0.271 OA
ATOM     11  H24 WLU d   1     -23.739  12.395  -7.302  0.00  0.00     0.087 H 
ATOM     12  N   ALA d   1     -23.621  15.020  -7.499  0.00  0.00    -0.346 N 
ATOM     13  CA  ALA d   1     -23.141  16.383  -7.831  0.00  0.00     0.086 C 
ATOM     14  C   ALA d   1     -21.855  16.716  -7.121  0.00  0.00     0.240 C 
ATOM     15  O   ALA d   1     -21.063  17.474  -7.719  0.00  0.00    -0.271 OA
ATOM     16  H34 ALA d   1     -23.615  14.716  -6.546  0.00  0.00     0.163 HD
ATOM     17  H35 ALA d   1     -22.945  16.413  -8.913  0.00  0.00     0.086 H 
ATOM     18  N   WPA d   1     -21.624  16.239  -5.887  0.00  0.00    -0.343 N 
ATOM     19  CA  WPA d   1     -20.464  16.615  -5.077  0.00  0.00     0.118 C 
ATOM     20  C   WPA d   1     -19.964  15.396  -4.303  0.00  0.00     0.244 C 
ATOM     21  O   WPA d   1     -20.621  14.330  -4.297  0.00  0.00    -0.271 OA
ATOM     22  H39 WPA d   1     -22.280  15.591  -5.500  0.00  0.00     0.163 HD
ATOM     23  H40 WPA d   1     -19.669  16.967  -5.750  0.00  0.00     0.092 H 
ATOM     24  N   VAL d   1     -18.885  15.590  -3.597  0.00  0.00    -0.346 N 
ATOM     25  CA  VAL d   1     -18.373  14.605  -2.654  0.00  0.00     0.092 C 
ATOM     26  C   VAL d   1     -19.048  14.857  -1.298  0.00  0.00     0.243 C 
ATOM     27  O   VAL d   1     -18.747  15.910  -0.739  0.00  0.00    -0.271 OA
ATOM     28  H50 VAL d   1     -18.388  16.451  -3.708  0.00  0.00     0.163 HD
ATOM     29  H51 VAL d   1     -18.590  13.583  -2.999  0.00  0.00     0.088 H 
ATOM     30  N   MLE d   1     -19.942  14.043  -0.731  0.00  0.00    -0.341 N 
ATOM     31  CA  MLE d   1     -20.436  12.752  -1.290  0.00  0.00     0.091 C 
ATOM     32  C   MLE d   1     -21.971  12.824  -1.332  0.00  0.00     0.241 C 
ATOM     33  O   MLE d   1     -22.670  12.082  -0.634  0.00  0.00    -0.271 OA
ATOM     34  H62 MLE d   1     -20.045  12.632  -2.311  0.00  0.00     0.087 H 
ATOM     35  C   WVL d   1     -24.166  13.320  -3.852  0.00  0.00     0.241 C 
ATOM     36  CA  WVL d   1     -23.970  13.803  -2.417  0.00  0.00     0.095 C 
ATOM     37  O   WVL d   1     -23.685  13.956  -4.788  0.00  0.00    -0.271 OA
ATOM     38  N   WVL d   1     -22.519  13.744  -2.115  0.00  0.00    -0.345 N 
ATOM     39  H72 WVL d   1     -24.488  13.101  -1.747  0.00  0.00     0.088 H 
ATOM     40  H84 WVL d   1     -21.922  14.434  -2.523  0.00  0.00     0.163 HD
ENDROOT
BRANCH   3  41
ATOM     41  CB  WRP d   1     -25.660  10.164  -5.111  0.00  0.00     0.091 C 
ATOM     42  H2  WRP d   1     -26.675  10.277  -4.702  0.00  0.00     0.094 H 
BRANCH  41  43
ATOM     43  CG  WRP d   1     -25.744   9.423  -6.415  0.00  0.00     0.001 A 
ATOM     44  CD1 WRP d   1     -26.856   9.368  -7.222  0.00  0.00    -0.009 A 
ATOM     45  NE1 WRP d   1     -26.549   8.610  -8.317  0.00  0.00    -0.344 N 
ATOM     46  H3  WRP d   1     -27.814   9.845  -7.023  0.00  0.00     0.112 H 
ATOM     47  CE2 WRP d   1     -25.259   8.163  -8.239  0.00  0.00     0.046 A 
ATOM     48  CZ2 WRP d   1     -24.459   7.353  -9.052  0.00  0.00    -0.056 A 
ATOM     49  CD2 WRP d   1     -24.697   8.662  -7.027  0.00  0.00     0.001 A 
ATOM     50  CH2 WRP d   1     -23.165   7.069  -8.670  0.00  0.00    -0.081 A 
ATOM     51  H15 WRP d   1     -24.855   6.951  -9.978  0.00  0.00     0.087 H 
ATOM     52  CZ3 WRP d   1     -22.619   7.593  -7.516  0.00  0.00    -0.082 A 
ATOM     53  H16 WRP d   1     -22.561   6.418  -9.292  0.00  0.00     0.083 H 
ATOM     54  CE3 WRP d   1     -23.367   8.373  -6.653  0.00  0.00    -0.070 A 
ATOM     55  H17 WRP d   1     -21.581   7.389  -7.281  0.00  0.00     0.083 H 
ATOM     56  H18 WRP d   1     -22.948   8.748  -5.726  0.00  0.00     0.084 H 
BRANCH  45  57
ATOM     57  C1  WRP d   1     -27.557   8.267  -9.385  0.00  0.00     0.055 C 
BRANCH  57  58
ATOM     58  C3  WRP d   1     -28.843   9.036  -9.118  0.00  0.00    -0.051 C 
ATOM     59  H4  WRP d   1     -29.584   8.791  -9.893  0.00  0.00     0.030 H 
ATOM     60  H5  WRP d   1     -28.635  10.116  -9.137  0.00  0.00     0.030 H 
ATOM     61  H6  WRP d   1     -29.239   8.756  -8.131  0.00  0.00     0.030 H 
ENDBRANCH  57  58
BRANCH  57  62
ATOM     62  C4  WRP d   1     -27.816   6.739  -9.342  0.00  0.00     0.056 C 
ATOM     63  H7  WRP d   1     -26.846   6.228  -9.431  0.00  0.00     0.086 H 
BRANCH  62  64
ATOM     64  C5  WRP d   1     -28.511   6.255  -8.084  0.00  0.00    -0.050 C 
ATOM     65  H8  WRP d   1     -28.653   5.166  -8.140  0.00  0.00     0.031 H 
ATOM     66  H9  WRP d   1     -29.490   6.748  -7.993  0.00  0.00     0.031 H 
ATOM     67  H10 WRP d   1     -27.894   6.500  -7.207  0.00  0.00     0.031 H 
ENDBRANCH  62  64
BRANCH  62  68
ATOM     68  O6  WRP d   1     -28.655   6.358 -10.412  0.00  0.00    -0.393 OA
ATOM     69  H11 WRP d   1     -29.506   6.768 -10.307  0.00  0.00     0.210 HD
ENDBRANCH  62  68
ENDBRANCH  57  62
BRANCH  57  70
ATOM     70  C2  WRP d   1     -27.002   8.680 -10.746  0.00  0.00    -0.051 C 
ATOM     71  H12 WRP d   1     -27.733   8.433 -11.530  0.00  0.00     0.030 H 
ATOM     72  H13 WRP d   1     -26.062   8.142 -10.938  0.00  0.00     0.030 H 
ATOM     73  H14 WRP d   1     -26.812   9.763 -10.751  0.00  0.00     0.030 H 
ENDBRANCH  57  70
ENDBRANCH  45  57
ENDBRANCH  41  43
BRANCH  41  74
ATOM     74  OB  WRP d   1     -24.870   9.414  -4.196  0.00  0.00    -0.388 OA
ATOM     75  H19 WRP d   1     -24.815   9.880  -3.370  0.00  0.00     0.210 HD
ENDBRANCH  41  74
ENDBRANCH   3  41
BRANCH   7  76
ATOM     76  CN  WLU d   1     -26.860  13.698  -7.909  0.00  0.00    -0.015 C 
ATOM     77  H21 WLU d   1     -27.737  13.729  -7.245  0.00  0.00     0.056 H 
ATOM     78  H22 WLU d   1     -27.124  13.178  -8.842  0.00  0.00     0.056 H 
ATOM     79  H23 WLU d   1     -26.539  14.724  -8.139  0.00  0.00     0.056 H 
ENDBRANCH   7  76
BRANCH   8  80
ATOM     80  CB  WLU d   1     -24.685  11.906  -9.160  0.00  0.00    -0.033 C 
ATOM     81  H25 WLU d   1     -25.427  12.360  -9.834  0.00  0.00     0.037 H 
ATOM     82  H26 WLU d   1     -25.066  10.943  -8.790  0.00  0.00     0.037 H 
BRANCH  80  83
ATOM     83  CG  WLU d   1     -23.415  11.639  -9.961  0.00  0.00    -0.035 C 
ATOM     84  H27 WLU d   1     -23.003  12.607 -10.283  0.00  0.00     0.042 H 
BRANCH  83  85
ATOM     85  CG1 WLU d   1     -23.758  10.817 -11.217  0.00  0.00     0.020 C 
ATOM     86  H28 WLU d   1     -24.228   9.866 -10.925  0.00  0.00     0.074 H 
ATOM     87  H29 WLU d   1     -22.843  10.612 -11.792  0.00  0.00     0.074 H 
BRANCH  85  88
ATOM     88  O4  WLU d   1     -24.663  11.582 -12.005  0.00  0.00    -0.400 OA
ATOM     89  H30 WLU d   1     -24.890  11.094 -12.788  0.00  0.00     0.209 HD
ENDBRANCH  85  88
ENDBRANCH  83  85
BRANCH  83  90
ATOM     90  CG2 WLU d   1     -22.358  10.935  -9.126  0.00  0.00    -0.071 C 
ATOM     91  H31 WLU d   1     -22.130  11.540  -8.236  0.00  0.00     0.028 H 
ATOM     92  H32 WLU d   1     -21.444  10.805  -9.725  0.00  0.00     0.028 H 
ATOM     93  H33 WLU d   1     -22.734   9.950  -8.813  0.00  0.00     0.028 H 
ENDBRANCH  83  90
ENDBRANCH  80  83
ENDBRANCH   8  80
BRANCH  36  94
ATOM     94  CB  WVL d   1     -24.560  15.176  -2.168  0.00  0.00    -0.013 C 
ATOM     95  H73 WVL d   1     -24.045  15.903  -2.813  0.00  0.00     0.049 H 
BRANCH  94  96
ATOM     96  CG2 WVL d   1     -24.382  15.633  -0.721  0.00  0.00    -0.067 C 
ATOM     97  H74 WVL d   1     -24.826  16.631  -0.595  0.00  0.00     0.028 H 
ATOM     98  H75 WVL d   1     -23.310  15.675  -0.479  0.00  0.00     0.028 H 
ATOM     99  H76 WVL d   1     -24.882  14.921  -0.048  0.00  0.00     0.028 H 
ENDBRANCH  94  96
BRANCH  94 100
ATOM    100  CG1 WVL d   1     -25.993  15.116  -2.566  0.00  0.00    -0.095 C 
ATOM    101  H77 WVL d   1     -26.614  14.504  -1.914  0.00  0.00     0.077 H 
BRANCH 100 102
ATOM    102  CD  WVL d   1     -26.648  15.679  -3.578  0.00  0.00    -0.091 C 
BRANCH 102 103
ATOM    103  CE1 WVL d   1     -28.126  15.485  -3.793  0.00  0.00    -0.055 C 
ATOM    104  H78 WVL d   1     -28.443  16.043  -4.686  0.00  0.00     0.033 H 
ATOM    105  H79 WVL d   1     -28.676  15.855  -2.915  0.00  0.00     0.033 H 
ATOM    106  H80 WVL d   1     -28.339  14.415  -3.935  0.00  0.00     0.033 H 
ENDBRANCH 102 103
BRANCH 102 107
ATOM    107  CE2 WVL d   1     -25.930  16.464  -4.628  0.00  0.00    -0.055 C 
ATOM    108  H81 WVL d   1     -24.864  16.539  -4.365  0.00  0.00     0.033 H 
ATOM    109  H82 WVL d   1     -26.364  17.473  -4.692  0.00  0.00     0.033 H 
ATOM    110  H83 WVL d   1     -26.033  15.958  -5.599  0.00  0.00     0.033 H 
ENDBRANCH 102 107
ENDBRANCH 100 102
ENDBRANCH  94 100
ENDBRANCH  36  94
BRANCH  13 111
ATOM    111  CB  ALA d   1     -24.217  17.439  -7.514  0.00  0.00    -0.049 C 
ATOM    112  H36 ALA d   1     -23.836  18.439  -7.769  0.00  0.00     0.030 H 
ATOM    113  H37 ALA d   1     -24.462  17.402  -6.442  0.00  0.00     0.030 H 
ATOM    114  H38 ALA d   1     -25.121  17.230  -8.104  0.00  0.00     0.030 H 
ENDBRANCH  13 111
BRANCH  31 115
ATOM    115  CB  MLE d   1     -19.996  11.536  -0.451  0.00  0.00    -0.035 C 
ATOM    116  H63 MLE d   1     -20.568  10.660  -0.789  0.00  0.00     0.037 H 
ATOM    117  H64 MLE d   1     -20.231  11.743   0.604  0.00  0.00     0.037 H 
BRANCH 115 118
ATOM    118  CG  MLE d   1     -18.508  11.203  -0.552  0.00  0.00    -0.059 C 
ATOM    119  H65 MLE d   1     -17.932  12.119  -0.356  0.00  0.00     0.038 H 
BRANCH 118 120
ATOM    120  CD1 MLE d   1     -18.167  10.171   0.531  0.00  0.00    -0.073 C 
ATOM    121  H66 MLE d   1     -17.098   9.919   0.473  0.00  0.00     0.028 H 
ATOM    122  H67 MLE d   1     -18.767   9.263   0.374  0.00  0.00     0.028 H 
ATOM    123  H68 MLE d   1     -18.392  10.592   1.522  0.00  0.00     0.028 H 
ENDBRANCH 118 120
BRANCH 118 124
ATOM    124  CD2 MLE d   1     -18.130  10.699  -1.945  0.00  0.00    -0.073 C 
ATOM    125  H69 MLE d   1     -18.388  11.463  -2.694  0.00  0.00     0.028 H 
ATOM    126  H70 MLE d   1     -18.681   9.772  -2.162  0.00  0.00     0.028 H 
ATOM    127  H71 MLE d   1     -17.049  10.500  -1.982  0.00  0.00     0.028 H 
ENDBRANCH 118 124
ENDBRANCH 115 118
ENDBRANCH  31 115
BRANCH  30 128
ATOM    128  CN  MLE d   1     -20.465  14.386   0.637  0.00  0.00    -0.015 C 
ATOM    129  H59 MLE d   1     -20.045  15.350   0.959  0.00  0.00     0.056 H 
ATOM    130  H60 MLE d   1     -20.171  13.601   1.349  0.00  0.00     0.056 H 
ATOM    131  H61 MLE d   1     -21.562  14.457   0.603  0.00  0.00     0.056 H 
ENDBRANCH  30 128
BRANCH  19 132
ATOM    132  CB  WPA d   1     -20.789  17.738  -4.067  0.00  0.00     0.091 C 
ATOM    133  H41 WPA d   1     -19.863  18.043  -3.559  0.00  0.00     0.095 H 
BRANCH 132 134
ATOM    134  OB  WPA d   1     -21.671  17.118  -3.105  0.00  0.00    -0.383 OA
BRANCH 134 135
ATOM    135  CB1 WPA d   1     -21.637  17.836  -1.867  0.00  0.00     0.005 C 
ATOM    136  H42 WPA d   1     -22.312  17.354  -1.145  0.00  0.00     0.066 H 
ATOM    137  H43 WPA d   1     -21.961  18.873  -2.036  0.00  0.00     0.066 H 
ATOM    138  H44 WPA d   1     -20.611  17.832  -1.469  0.00  0.00     0.066 H 
ENDBRANCH 134 135
ENDBRANCH 132 134
BRANCH 132 139
ATOM    139  CG  WPA d   1     -21.377  18.977  -4.718  0.00  0.00    -0.027 A 
ATOM    140  CD1 WPA d   1     -20.494  19.919  -5.224  0.00  0.00    -0.074 A 
ATOM    141  CE1 WPA d   1     -20.942  21.111  -5.789  0.00  0.00    -0.082 A 
ATOM    142  H45 WPA d   1     -19.429  19.723  -5.179  0.00  0.00     0.084 H 
ATOM    143  CZ  WPA d   1     -22.295  21.322  -5.967  0.00  0.00    -0.083 A 
ATOM    144  H46 WPA d   1     -20.230  21.871  -6.088  0.00  0.00     0.083 H 
ATOM    145  CE2 WPA d   1     -23.207  20.381  -5.484  0.00  0.00    -0.082 A 
ATOM    146  H47 WPA d   1     -22.647  22.211  -6.478  0.00  0.00     0.083 H 
ATOM    147  CD2 WPA d   1     -22.734  19.199  -4.862  0.00  0.00    -0.074 A 
ATOM    148  H48 WPA d   1     -24.272  20.554  -5.585  0.00  0.00     0.083 H 
ATOM    149  H49 WPA d   1     -23.441  18.463  -4.496  0.00  0.00     0.084 H 
ENDBRANCH 132 139
ENDBRANCH  19 132
BRANCH  25 150
ATOM    150  CB  VAL d   1     -16.852  14.822  -2.562  0.00  0.00    -0.033 C 
ATOM    151  H52 VAL d   1     -16.670  15.877  -2.307  0.00  0.00     0.042 H 
BRANCH 150 152
ATOM    152  CG1 VAL d   1     -16.228  13.972  -1.479  0.00  0.00    -0.071 C 
ATOM    153  H53 VAL d   1     -15.144  14.157  -1.447  0.00  0.00     0.028 H 
ATOM    154  H54 VAL d   1     -16.413  12.909  -1.695  0.00  0.00     0.028 H 
ATOM    155  H55 VAL d   1     -16.673  14.232  -0.507  0.00  0.00     0.028 H 
ENDBRANCH 150 152
BRANCH 150 156
ATOM    156  CG2 VAL d   1     -16.230  14.547  -3.907  0.00  0.00    -0.071 C 
ATOM    157  H56 VAL d   1     -16.707  15.181  -4.668  0.00  0.00     0.028 H 
ATOM    158  H57 VAL d   1     -16.375  13.488  -4.168  0.00  0.00     0.028 H 
ATOM    159  H58 VAL d   1     -15.154  14.771  -3.866  0.00  0.00     0.028 H 
ENDBRANCH 150 156
ENDBRANCH  25 150
TORSDOF 34
