REMARK WARNING: 32 MAX_TORS EXCEEDED!!!
REMARK  34 active torsions:
REMARK  status: ('A' for Active; 'I' for Inactive)
REMARK    1  A    between atoms: CA_3  and  CB_4 
REMARK    2  A    between atoms: CB_4  and  CG_5 
REMARK    3  A    between atoms: CB_4  and  OB_20 
REMARK    4  A    between atoms: NE1_7  and  C1_8 
REMARK    5  A    between atoms: C1_8  and  C3_9 
REMARK    6  A    between atoms: C1_8  and  C4_10 
REMARK    7  A    between atoms: C1_8  and  C2_13 
REMARK    8  A    between atoms: C4_10  and  C5_11 
REMARK    9  A    between atoms: C4_10  and  O6_12 
REMARK   10  A    between atoms: N_22  and  CN_23 
REMARK   11  A    between atoms: CA_24  and  CB_25 
REMARK   12  A    between atoms: CB_25  and  CG_26 
REMARK   13  A    between atoms: CG_26  and  CG1_27 
REMARK   14  A    between atoms: CG_26  and  CG2_29 
REMARK   15  A    between atoms: CG1_27  and  O4_28 
REMARK   16  A    between atoms: CA_33  and  CB_36 
REMARK   17  A    between atoms: CA_38  and  CB_40 
REMARK   18  A    between atoms: CB_40  and  OB_41 
REMARK   19  A    between atoms: CB_40  and  CG_43 
REMARK   20  A    between atoms: OB_41  and  CB1_42 
REMARK   21  A    between atoms: CA_51  and  CB_54 
REMARK   22  A    between atoms: CB_54  and  CG1_55 
REMARK   23  A    between atoms: CB_54  and  CG2_56 
REMARK   24  A    between atoms: N_57  and  CN_58 
REMARK   25  A    between atoms: CA_59  and  CB_60 
REMARK   26  A    between atoms: CB_60  and  CG_61 
REMARK   27  A    between atoms: CG_61  and  CD1_62 
REMARK   28  A    between atoms: CG_61  and  CD2_63 
REMARK   29  A    between atoms: CA_67  and  CB_69 
REMARK   30  A    between atoms: CB_69  and  CG2_70 
REMARK   31  A    between atoms: CB_69  and  CG1_71 
REMARK   32  A    between atoms: CG1_71  and  CD_72 
REMARK   33  A    between atoms: CD_72  and  CE1_73 
REMARK   34  A    between atoms: CD_72  and  CE2_74 
ROOT
ATOM      1  O   WRP d   1     -27.365  12.395  -5.521  0.00  0.00    -0.271 OA
ATOM      2  C   WRP d   1     -26.268  12.313  -6.015  0.00  0.00     0.245 C 
ATOM      3  CA  WRP d   1     -25.242  11.419  -5.312  0.00  0.00     0.118 C 
ATOM      4  N   WRP d   1     -24.937  11.963  -3.988  0.00  0.00    -0.343 N 
ATOM      5  H1  WRP d   1     -24.320  11.368  -5.910  0.00  0.00     0.092 H 
ATOM      6  H20 WRP d   1     -25.256  11.475  -3.176  0.00  0.00     0.163 HD
ATOM      7  N   WLU d   1     -25.969  12.907  -7.178  0.00  0.00    -0.341 N 
ATOM      8  CA  WLU d   1     -24.695  12.777  -7.919  0.00  0.00     0.091 C 
ATOM      9  C   WLU d   1     -24.216  14.164  -8.339  0.00  0.00     0.241 C 
ATOM     10  O   WLU d   1     -24.244  14.505  -9.513  0.00  0.00    -0.271 OA
ATOM     11  H24 WLU d   1     -23.939  12.352  -7.243  0.00  0.00     0.087 H 
ATOM     12  N   ALA d   1     -23.780  14.911  -7.395  0.00  0.00    -0.346 N 
ATOM     13  CA  ALA d   1     -23.330  16.293  -7.699  0.00  0.00     0.086 C 
ATOM     14  C   ALA d   1     -22.054  16.714  -6.982  0.00  0.00     0.240 C 
ATOM     15  O   ALA d   1     -21.285  17.491  -7.598  0.00  0.00    -0.271 OA
ATOM     16  H34 ALA d   1     -23.743  14.565  -6.457  0.00  0.00     0.163 HD
ATOM     17  H35 ALA d   1     -23.111  16.315  -8.777  0.00  0.00     0.086 H 
ATOM     18  N   WPA d   1     -21.844  16.259  -5.769  0.00  0.00    -0.343 N 
ATOM     19  CA  WPA d   1     -20.669  16.662  -5.017  0.00  0.00     0.118 C 
ATOM     20  C   WPA d   1     -20.152  15.453  -4.238  0.00  0.00     0.244 C 
ATOM     21  O   WPA d   1     -20.753  14.356  -4.230  0.00  0.00    -0.271 OA
ATOM     22  H39 WPA d   1     -22.501  15.627  -5.358  0.00  0.00     0.163 HD
ATOM     23  H40 WPA d   1     -19.897  17.032  -5.708  0.00  0.00     0.092 H 
ATOM     24  N   VAL d   1     -19.064  15.655  -3.539  0.00  0.00    -0.346 N 
ATOM     25  CA  VAL d   1     -18.476  14.665  -2.569  0.00  0.00     0.092 C 
ATOM     26  C   VAL d   1     -19.185  14.816  -1.219  0.00  0.00     0.243 C 
ATOM     27  O   VAL d   1     -18.971  15.872  -0.644  0.00  0.00    -0.271 OA
ATOM     28  H50 VAL d   1     -18.590  16.528  -3.658  0.00  0.00     0.163 HD
ATOM     29  H51 VAL d   1     -18.662  13.648  -2.943  0.00  0.00     0.088 H 
ATOM     30  N   MLE d   1     -20.016  13.879  -0.684  0.00  0.00    -0.341 N 
ATOM     31  CA  MLE d   1     -20.470  12.644  -1.334  0.00  0.00     0.091 C 
ATOM     32  C   MLE d   1     -21.995  12.656  -1.370  0.00  0.00     0.241 C 
ATOM     33  O   MLE d   1     -22.666  11.895  -0.631  0.00  0.00    -0.271 OA
ATOM     34  H62 MLE d   1     -20.081  12.634  -2.363  0.00  0.00     0.087 H 
ATOM     35  C   WVL d   1     -24.257  13.072  -3.838  0.00  0.00     0.241 C 
ATOM     36  CA  WVL d   1     -24.005  13.536  -2.424  0.00  0.00     0.095 C 
ATOM     37  O   WVL d   1     -23.793  13.714  -4.782  0.00  0.00    -0.271 OA
ATOM     38  N   WVL d   1     -22.554  13.466  -2.208  0.00  0.00    -0.345 N 
ATOM     39  H72 WVL d   1     -24.496  12.842  -1.726  0.00  0.00     0.088 H 
ATOM     40  H84 WVL d   1     -21.967  14.078  -2.738  0.00  0.00     0.163 HD
ENDROOT
BRANCH   3  41
ATOM     41  CB  WRP d   1     -25.858   9.987  -5.162  0.00  0.00     0.091 C 
ATOM     42  H2  WRP d   1     -26.874  10.089  -4.753  0.00  0.00     0.094 H 
BRANCH  41  43
ATOM     43  CG  WRP d   1     -25.946   9.232  -6.475  0.00  0.00     0.001 A 
ATOM     44  CD1 WRP d   1     -27.117   9.229  -7.227  0.00  0.00    -0.009 A 
ATOM     45  NE1 WRP d   1     -26.783   8.485  -8.333  0.00  0.00    -0.344 N 
ATOM     46  H3  WRP d   1     -28.070   9.703  -6.995  0.00  0.00     0.112 H 
ATOM     47  CE2 WRP d   1     -25.486   8.013  -8.301  0.00  0.00     0.046 A 
ATOM     48  CZ2 WRP d   1     -24.735   7.199  -9.174  0.00  0.00    -0.056 A 
ATOM     49  CD2 WRP d   1     -24.899   8.526  -7.106  0.00  0.00     0.001 A 
ATOM     50  CH2 WRP d   1     -23.393   6.895  -8.846  0.00  0.00    -0.081 A 
ATOM     51  H15 WRP d   1     -25.180   6.812 -10.084  0.00  0.00     0.087 H 
ATOM     52  CZ3 WRP d   1     -22.822   7.380  -7.657  0.00  0.00    -0.082 A 
ATOM     53  H16 WRP d   1     -22.801   6.283  -9.517  0.00  0.00     0.083 H 
ATOM     54  CE3 WRP d   1     -23.556   8.184  -6.755  0.00  0.00    -0.070 A 
ATOM     55  H17 WRP d   1     -21.793   7.131  -7.426  0.00  0.00     0.083 H 
ATOM     56  H18 WRP d   1     -23.115   8.530  -5.827  0.00  0.00     0.084 H 
BRANCH  45  57
ATOM     57  C1  WRP d   1     -27.805   8.141  -9.399  0.00  0.00     0.055 C 
BRANCH  57  58
ATOM     58  C3  WRP d   1     -29.086   8.919  -9.128  0.00  0.00    -0.051 C 
ATOM     59  H4  WRP d   1     -29.833   8.675  -9.898  0.00  0.00     0.030 H 
ATOM     60  H5  WRP d   1     -28.872   9.998  -9.154  0.00  0.00     0.030 H 
ATOM     61  H6  WRP d   1     -29.478   8.646  -8.137  0.00  0.00     0.030 H 
ENDBRANCH  57  58
BRANCH  57  62
ATOM     62  C4  WRP d   1     -28.061   6.612  -9.388  0.00  0.00     0.056 C 
ATOM     63  H7  WRP d   1     -27.094   6.090  -9.430  0.00  0.00     0.086 H 
BRANCH  62  64
ATOM     64  C5  WRP d   1     -28.846   6.178  -8.158  0.00  0.00    -0.050 C 
ATOM     65  H8  WRP d   1     -29.005   5.090  -8.190  0.00  0.00     0.031 H 
ATOM     66  H9  WRP d   1     -29.819   6.691  -8.144  0.00  0.00     0.031 H 
ATOM     67  H10 WRP d   1     -28.281   6.440  -7.251  0.00  0.00     0.031 H 
ENDBRANCH  62  64
BRANCH  62  68
ATOM     68  O6  WRP d   1     -28.882   6.214 -10.463  0.00  0.00    -0.393 OA
ATOM     69  H11 WRP d   1     -29.722   6.652 -10.398  0.00  0.00     0.210 HD
ENDBRANCH  62  68
ENDBRANCH  57  62
BRANCH  57  70
ATOM     70  C2  WRP d   1     -27.288   8.568 -10.757  0.00  0.00    -0.051 C 
ATOM     71  H12 WRP d   1     -28.032   8.317 -11.528  0.00  0.00     0.030 H 
ATOM     72  H13 WRP d   1     -26.346   8.043 -10.972  0.00  0.00     0.030 H 
ATOM     73  H14 WRP d   1     -27.112   9.654 -10.757  0.00  0.00     0.030 H 
ENDBRANCH  57  70
ENDBRANCH  45  57
ENDBRANCH  41  43
BRANCH  41  74
ATOM     74  OB  WRP d   1     -25.056   9.232  -4.247  0.00  0.00    -0.388 OA
ATOM     75  H19 WRP d   1     -24.996   9.698  -3.421  0.00  0.00     0.210 HD
ENDBRANCH  41  74
ENDBRANCH   3  41
BRANCH   7  76
ATOM     76  CN  WLU d   1     -27.058  13.620  -7.855  0.00  0.00    -0.015 C 
ATOM     77  H21 WLU d   1     -27.942  13.646  -7.201  0.00  0.00     0.056 H 
ATOM     78  H22 WLU d   1     -27.310  13.101  -8.791  0.00  0.00     0.056 H 
ATOM     79  H23 WLU d   1     -26.739  14.648  -8.081  0.00  0.00     0.056 H 
ENDBRANCH   7  76
BRANCH   8  80
ATOM     80  CB  WLU d   1     -24.871  11.801  -9.093  0.00  0.00    -0.033 C 
ATOM     81  H25 WLU d   1     -25.641  12.209  -9.764  0.00  0.00     0.037 H 
ATOM     82  H26 WLU d   1     -25.211  10.836  -8.688  0.00  0.00     0.037 H 
BRANCH  80  83
ATOM     83  CG  WLU d   1     -23.608  11.552  -9.916  0.00  0.00    -0.035 C 
ATOM     84  H27 WLU d   1     -23.223  12.529 -10.245  0.00  0.00     0.042 H 
BRANCH  83  85
ATOM     85  CG1 WLU d   1     -23.930  10.733 -11.162  0.00  0.00     0.020 C 
ATOM     86  H28 WLU d   1     -24.380   9.774 -10.865  0.00  0.00     0.074 H 
ATOM     87  H29 WLU d   1     -23.005  10.544 -11.726  0.00  0.00     0.074 H 
BRANCH  85  88
ATOM     88  O4  WLU d   1     -24.862  11.468 -11.993  0.00  0.00    -0.400 OA
ATOM     89  H30 WLU d   1     -25.063  10.958 -12.769  0.00  0.00     0.209 HD
ENDBRANCH  85  88
ENDBRANCH  83  85
BRANCH  83  90
ATOM     90  CG2 WLU d   1     -22.522  10.883  -9.083  0.00  0.00    -0.071 C 
ATOM     91  H31 WLU d   1     -22.312  11.496  -8.194  0.00  0.00     0.028 H 
ATOM     92  H32 WLU d   1     -21.607  10.785  -9.685  0.00  0.00     0.028 H 
ATOM     93  H33 WLU d   1     -22.863   9.886  -8.769  0.00  0.00     0.028 H 
ENDBRANCH  83  90
ENDBRANCH  80  83
ENDBRANCH   8  80
BRANCH  36  94
ATOM     94  CB  WVL d   1     -24.593  14.930  -2.183  0.00  0.00    -0.013 C 
ATOM     95  H73 WVL d   1     -24.130  15.653  -2.871  0.00  0.00     0.049 H 
BRANCH  94  96
ATOM     96  CG2 WVL d   1     -24.335  15.371  -0.739  0.00  0.00    -0.067 C 
ATOM     97  H74 WVL d   1     -24.762  16.372  -0.580  0.00  0.00     0.028 H 
ATOM     98  H75 WVL d   1     -23.251  15.400  -0.553  0.00  0.00     0.028 H 
ATOM     99  H76 WVL d   1     -24.807  14.657  -0.048  0.00  0.00     0.028 H 
ENDBRANCH  94  96
BRANCH  94 100
ATOM    100  CG1 WVL d   1     -26.093  14.848  -2.453  0.00  0.00    -0.095 C 
ATOM    101  H77 WVL d   1     -26.689  14.263  -1.754  0.00  0.00     0.077 H 
BRANCH 100 102
ATOM    102  CD  WVL d   1     -26.747  15.431  -3.473  0.00  0.00    -0.091 C 
BRANCH 102 103
ATOM    103  CE1 WVL d   1     -28.229  15.188  -3.614  0.00  0.00    -0.055 C 
ATOM    104  H78 WVL d   1     -28.608  15.732  -4.492  0.00  0.00     0.033 H 
ATOM    105  H79 WVL d   1     -28.746  15.543  -2.711  0.00  0.00     0.033 H 
ATOM    106  H80 WVL d   1     -28.413  14.111  -3.743  0.00  0.00     0.033 H 
ENDBRANCH 102 103
BRANCH 102 107
ATOM    107  CE2 WVL d   1     -26.082  16.261  -4.543  0.00  0.00    -0.055 C 
ATOM    108  H81 WVL d   1     -25.010  16.358  -4.318  0.00  0.00     0.033 H 
ATOM    109  H82 WVL d   1     -26.543  17.259  -4.572  0.00  0.00     0.033 H 
ATOM    110  H83 WVL d   1     -26.209  15.770  -5.519  0.00  0.00     0.033 H 
ENDBRANCH 102 107
ENDBRANCH 100 102
ENDBRANCH  94 100
ENDBRANCH  36  94
BRANCH  13 111
ATOM    111  CB  ALA d   1     -24.422  17.331  -7.437  0.00  0.00    -0.049 C 
ATOM    112  H36 ALA d   1     -24.040  18.334  -7.677  0.00  0.00     0.030 H 
ATOM    113  H37 ALA d   1     -24.716  17.294  -6.378  0.00  0.00     0.030 H 
ATOM    114  H38 ALA d   1     -25.296  17.111  -8.068  0.00  0.00     0.030 H 
ENDBRANCH  13 111
BRANCH  31 115
ATOM    115  CB  MLE d   1     -20.004  11.354  -0.632  0.00  0.00    -0.035 C 
ATOM    116  H63 MLE d   1     -20.599  10.520  -1.032  0.00  0.00     0.037 H 
ATOM    117  H64 MLE d   1     -20.206  11.466   0.444  0.00  0.00     0.037 H 
BRANCH 115 118
ATOM    118  CG  MLE d   1     -18.544  10.996  -0.792  0.00  0.00    -0.059 C 
ATOM    119  H65 MLE d   1     -17.925  11.859  -0.506  0.00  0.00     0.038 H 
BRANCH 118 120
ATOM    120  CD1 MLE d   1     -18.288   9.851   0.191  0.00  0.00    -0.073 C 
ATOM    121  H66 MLE d   1     -17.235   9.540   0.125  0.00  0.00     0.028 H 
ATOM    122  H67 MLE d   1     -18.938   9.000  -0.060  0.00  0.00     0.028 H 
ATOM    123  H68 MLE d   1     -18.507  10.190   1.214  0.00  0.00     0.028 H 
ENDBRANCH 118 120
BRANCH 118 124
ATOM    124  CD2 MLE d   1     -18.204  10.635  -2.223  0.00  0.00    -0.073 C 
ATOM    125  H69 MLE d   1     -18.409  11.495  -2.877  0.00  0.00     0.028 H 
ATOM    126  H70 MLE d   1     -18.817   9.779  -2.541  0.00  0.00     0.028 H 
ATOM    127  H71 MLE d   1     -17.139  10.369  -2.291  0.00  0.00     0.028 H 
ENDBRANCH 118 124
ENDBRANCH 115 118
ENDBRANCH  31 115
BRANCH  30 128
ATOM    128  CN  MLE d   1     -20.581  14.163   0.649  0.00  0.00    -0.015 C 
ATOM    129  H59 MLE d   1     -20.167  15.109   1.029  0.00  0.00     0.056 H 
ATOM    130  H60 MLE d   1     -20.322  13.346   1.339  0.00  0.00     0.056 H 
ATOM    131  H61 MLE d   1     -21.675  14.246   0.573  0.00  0.00     0.056 H 
ENDBRANCH  30 128
BRANCH  19 132
ATOM    132  CB  WPA d   1     -21.022  17.763  -3.981  0.00  0.00     0.091 C 
ATOM    133  H41 WPA d   1     -20.089  18.063  -3.481  0.00  0.00     0.095 H 
BRANCH 132 134
ATOM    134  OB  WPA d   1     -21.889  17.189  -2.977  0.00  0.00    -0.383 OA
BRANCH 134 135
ATOM    135  CB1 WPA d   1     -21.883  17.918  -1.720  0.00  0.00     0.005 C 
ATOM    136  H42 WPA d   1     -22.562  17.426  -1.008  0.00  0.00     0.066 H 
ATOM    137  H43 WPA d   1     -22.219  18.951  -1.893  0.00  0.00     0.066 H 
ATOM    138  H44 WPA d   1     -20.863  17.929  -1.307  0.00  0.00     0.066 H 
ENDBRANCH 134 135
ENDBRANCH 132 134
BRANCH 132 139
ATOM    139  CG  WPA d   1     -21.591  19.008  -4.623  0.00  0.00    -0.027 A 
ATOM    140  CD1 WPA d   1     -20.731  19.986  -5.172  0.00  0.00    -0.074 A 
ATOM    141  CE1 WPA d   1     -21.290  21.135  -5.753  0.00  0.00    -0.082 A 
ATOM    142  H45 WPA d   1     -19.656  19.851  -5.145  0.00  0.00     0.084 H 
ATOM    143  CZ  WPA d   1     -22.666  21.318  -5.798  0.00  0.00    -0.083 A 
ATOM    144  H46 WPA d   1     -20.637  21.892  -6.173  0.00  0.00     0.083 H 
ATOM    145  CE2 WPA d   1     -23.504  20.372  -5.272  0.00  0.00    -0.082 A 
ATOM    146  H47 WPA d   1     -23.078  22.213  -6.251  0.00  0.00     0.083 H 
ATOM    147  CD2 WPA d   1     -22.968  19.228  -4.647  0.00  0.00    -0.074 A 
ATOM    148  H48 WPA d   1     -24.578  20.503  -5.336  0.00  0.00     0.083 H 
ATOM    149  H49 WPA d   1     -23.634  18.511  -4.180  0.00  0.00     0.084 H 
ENDBRANCH 132 139
ENDBRANCH  19 132
BRANCH  25 150
ATOM    150  CB  VAL d   1     -16.936  14.868  -2.474  0.00  0.00    -0.033 C 
ATOM    151  H52 VAL d   1     -16.743  15.901  -2.148  0.00  0.00     0.042 H 
BRANCH 150 152
ATOM    152  CG1 VAL d   1     -16.332  13.938  -1.445  0.00  0.00    -0.071 C 
ATOM    153  H53 VAL d   1     -15.245  14.101  -1.397  0.00  0.00     0.028 H 
ATOM    154  H54 VAL d   1     -16.534  12.895  -1.730  0.00  0.00     0.028 H 
ATOM    155  H55 VAL d   1     -16.777  14.142  -0.460  0.00  0.00     0.028 H 
ENDBRANCH 150 152
BRANCH 150 156
ATOM    156  CG2 VAL d   1     -16.303  14.681  -3.869  0.00  0.00    -0.071 C 
ATOM    157  H56 VAL d   1     -16.773  15.376  -4.581  0.00  0.00     0.028 H 
ATOM    158  H57 VAL d   1     -16.461  13.647  -4.208  0.00  0.00     0.028 H 
ATOM    159  H58 VAL d   1     -15.224  14.887  -3.813  0.00  0.00     0.028 H 
ENDBRANCH 150 156
ENDBRANCH  25 150
TORSDOF 34
