REMARK WARNING: 32 MAX_TORS EXCEEDED!!!
REMARK  50 active torsions:
REMARK  status: ('A' for Active; 'I' for Inactive)
REMARK    1  A    between atoms: N_1  and  CA_2 
REMARK    2  A    between atoms: CA_2  and  C_3 
REMARK    3  A    between atoms: CA_2  and  CB_5 
REMARK       I    between atoms: C_3  and  N_10 
REMARK    4  A    between atoms: CB_5  and  CG_6 
REMARK    5  A    between atoms: CG_6  and  CD_7 
REMARK    6  A    between atoms: CD_7  and  CE_8 
REMARK    7  A    between atoms: CE_8  and  NZ_9 
REMARK    8  A    between atoms: N_10  and  CA_11 
REMARK    9  A    between atoms: CA_11  and  C_12 
REMARK   10  A    between atoms: CA_11  and  CB_14 
REMARK       I    between atoms: C_12  and  N_19 
REMARK   11  A    between atoms: CB_14  and  CG_15 
REMARK   12  A    between atoms: CG_15  and  CD_16 
REMARK   13  A    between atoms: N_19  and  CA_20 
REMARK   14  A    between atoms: CA_20  and  C_21 
REMARK   15  A    between atoms: CA_20  and  CB_23 
REMARK       I    between atoms: C_21  and  N_26 
REMARK   16  A    between atoms: CB_23  and  CG1_24 
REMARK   17  A    between atoms: CB_23  and  CG2_25 
REMARK   18  A    between atoms: N_26  and  CA_27 
REMARK   19  A    between atoms: CA_27  and  C_28 
REMARK   20  A    between atoms: CA_27  and  CB_30 
REMARK       I    between atoms: C_28  and  N_34 
REMARK   21  A    between atoms: CB_30  and  CG_31 
REMARK   22  A    between atoms: CA_35  and  C_36 
REMARK       I    between atoms: C_36  and  N_41 
REMARK   23  A    between atoms: N_41  and  CA_42 
REMARK   24  A    between atoms: CA_42  and  CB_43 
REMARK   25  A    between atoms: CA_42  and  C_45 
REMARK   26  A    between atoms: CB_43  and  OG_44 
REMARK   27  A    between atoms: OG_44  and  P_47 
REMARK       I    between atoms: C_45  and  N_51 
REMARK   28  A    between atoms: N_51  and  CA_52 
REMARK   29  A    between atoms: CA_52  and  C_53 
REMARK   30  A    between atoms: CA_52  and  CB_55 
REMARK       I    between atoms: C_53  and  N_58 
REMARK   31  A    between atoms: CB_55  and  OG1_56 
REMARK   32  A    between atoms: CB_55  and  CG2_57 
REMARK   33  A    between atoms: N_58  and  CA_59 
REMARK   34  A    between atoms: CA_59  and  C_60 
REMARK       I    between atoms: C_60  and  N_62 
REMARK   35  A    between atoms: N_62  and  CA_63 
REMARK   36  A    between atoms: CA_63  and  C_64 
REMARK   37  A    between atoms: CA_63  and  CB_66 
REMARK       I    between atoms: C_64  and  N_71 
REMARK   38  A    between atoms: CB_66  and  CG_67 
REMARK   39  A    between atoms: CG_67  and  CD_68 
REMARK   40  A    between atoms: N_71  and  CA_72 
REMARK   41  A    between atoms: CA_72  and  C_73 
REMARK   42  A    between atoms: CA_72  and  CB_75 
REMARK       I    between atoms: C_73  and  N_79 
REMARK   43  A    between atoms: CB_75  and  CG_76 
REMARK   44  A    between atoms: CG_76  and  CD1_77 
REMARK   45  A    between atoms: CG_76  and  CD2_78 
REMARK   46  A    between atoms: N_79  and  CA_80 
REMARK   47  A    between atoms: CA_80  and  C_81 
REMARK   48  A    between atoms: CA_80  and  CB_83 
REMARK   49  A    between atoms: CB_83  and  CG_84 
REMARK   50  A    between atoms: CG_84  and  CD_85 
REMARK       I    between atoms: CD_85  and  NE2_87 
ROOT
ATOM      1  CA  SEP d   1      -5.320   9.802  12.963  0.00  0.00     0.110 C 
ATOM      2  H43 SEP d   1      -5.431  10.289  13.943  0.00  0.00     0.090 H 
ENDROOT
BRANCH   1   3
ATOM      3  N   SEP d   1      -4.434   8.632  13.189  0.00  0.00    -0.344 N 
ATOM      4  C   PRO d   1      -4.417   7.991  14.366  0.00  0.00     0.241 C 
ATOM      5  O   PRO d   1      -5.136   8.302  15.327  0.00  0.00    -0.271 OA
ATOM      6  H42 SEP d   1      -3.839   8.317  12.450  0.00  0.00     0.163 HD
BRANCH   4   7
ATOM      7  CA  PRO d   1      -3.451   6.826  14.510  0.00  0.00     0.091 C 
ATOM      8  N   PRO d   1      -3.020   6.218  13.233  0.00  0.00    -0.337 N 
ATOM      9  C   ASP d   1      -3.915   5.622  12.420  0.00  0.00     0.243 C 
ATOM     10  CD  PRO d   1      -1.626   6.566  12.886  0.00  0.00    -0.001 C 
ATOM     11  O   ASP d   1      -5.122   5.735  12.567  0.00  0.00    -0.271 OA
ATOM     12  CG  PRO d   1      -1.183   7.452  14.026  0.00  0.00    -0.048 C 
ATOM     13  H40 PRO d   1      -1.583   7.107  11.929  0.00  0.00     0.064 H 
ATOM     14  H41 PRO d   1      -1.000   5.663  12.825  0.00  0.00     0.064 H 
ATOM     15  CB  PRO d   1      -2.133   7.299  15.152  0.00  0.00    -0.036 C 
ATOM     16  H38 PRO d   1      -0.174   7.157  14.352  0.00  0.00     0.035 H 
ATOM     17  H39 PRO d   1      -1.170   8.501  13.694  0.00  0.00     0.035 H 
ATOM     18  H36 PRO d   1      -1.763   6.551  15.869  0.00  0.00     0.036 H 
ATOM     19  H37 PRO d   1      -2.278   8.260  15.667  0.00  0.00     0.036 H 
ATOM     20  H35 PRO d   1      -3.929   6.060  15.138  0.00  0.00     0.087 H 
BRANCH   9  21
ATOM     21  CA  ASP d   1      -3.379   4.787  11.273  0.00  0.00     0.099 C 
ATOM     22  H32 ASP d   1      -2.280   4.819  11.277  0.00  0.00     0.088 H 
BRANCH  21  23
ATOM     23  N   ASP d   1      -3.824   3.407  11.496  0.00  0.00    -0.345 N 
ATOM     24  C   VAL d   1      -3.359   2.701  12.527  0.00  0.00     0.241 C 
ATOM     25  O   VAL d   1      -2.520   3.146  13.315  0.00  0.00    -0.271 OA
ATOM     26  H31 ASP d   1      -4.483   2.992  10.868  0.00  0.00     0.163 HD
BRANCH  24  27
ATOM     27  CA  VAL d   1      -3.889   1.285  12.713  0.00  0.00     0.092 C 
ATOM     28  H23 VAL d   1      -4.450   1.011  11.807  0.00  0.00     0.088 H 
BRANCH  27  29
ATOM     29  N   VAL d   1      -2.810   0.361  12.904  0.00  0.00    -0.346 N 
ATOM     30  C   GLU d   1      -2.737  -0.806  12.284  0.00  0.00     0.241 C 
ATOM     31  O   GLU d   1      -3.433  -1.132  11.313  0.00  0.00    -0.271 OA
ATOM     32  H22 VAL d   1      -2.077   0.610  13.537  0.00  0.00     0.163 HD
BRANCH  30  33
ATOM     33  CA  GLU d   1      -1.663  -1.716  12.841  0.00  0.00     0.090 C 
ATOM     34  H17 GLU d   1      -1.359  -1.319  13.821  0.00  0.00     0.087 H 
BRANCH  33  35
ATOM     35  N   GLU d   1      -2.205  -3.071  13.057  0.00  0.00    -0.346 N 
ATOM     36  C   LYS d   1      -2.752  -3.441  14.214  0.00  0.00     0.248 C 
ATOM     37  O   LYS d   1      -2.826  -2.695  15.191  0.00  0.00    -0.271 OA
ATOM     38  H16 GLU d   1      -2.160  -3.734  12.310  0.00  0.00     0.163 HD
BRANCH  36  39
ATOM     39  CA  LYS d   1      -3.274  -4.875  14.289  0.00  0.00     0.176 C 
ATOM     40  H4  LYS d   1      -2.513  -5.528  13.837  0.00  0.00     0.099 H 
BRANCH  39  41
ATOM     41  N   LYS d   1      -3.470  -5.321  15.706  0.00  0.00    -0.067 N 
ATOM     42  H1  LYS d   1      -3.814  -6.269  15.716  0.00  0.00     0.275 HD
ATOM     43  H2  LYS d   1      -4.138  -4.717  16.159  0.00  0.00     0.275 HD
ATOM     44  H3  LYS d   1      -2.591  -5.278  16.197  0.00  0.00     0.275 HD
ENDBRANCH  39  41
BRANCH  39  45
ATOM     45  CB  LYS d   1      -4.565  -5.040  13.484  0.00  0.00    -0.030 C 
ATOM     46  H5  LYS d   1      -4.404  -4.644  12.470  0.00  0.00     0.036 H 
ATOM     47  H6  LYS d   1      -5.365  -4.469  13.977  0.00  0.00     0.036 H 
BRANCH  45  48
ATOM     48  CG  LYS d   1      -4.991  -6.483  13.380  0.00  0.00    -0.061 C 
ATOM     49  H7  LYS d   1      -5.139  -6.886  14.393  0.00  0.00     0.033 H 
ATOM     50  H8  LYS d   1      -4.200  -7.053  12.871  0.00  0.00     0.033 H 
BRANCH  48  51
ATOM     51  CD  LYS d   1      -6.285  -6.629  12.598  0.00  0.00    -0.043 C 
ATOM     52  H9  LYS d   1      -6.121  -6.297  11.562  0.00  0.00     0.035 H 
ATOM     53  H10 LYS d   1      -7.062  -6.005  13.065  0.00  0.00     0.035 H 
BRANCH  51  54
ATOM     54  CE  LYS d   1      -6.747  -8.085  12.591  0.00  0.00     0.080 C 
ATOM     55  H11 LYS d   1      -7.012  -8.369  13.620  0.00  0.00     0.075 H 
ATOM     56  H12 LYS d   1      -5.913  -8.711  12.241  0.00  0.00     0.075 H 
BRANCH  54  57
ATOM     57  NZ  LYS d   1      -7.927  -8.342  11.715  0.00  0.00    -0.079 N 
ATOM     58  H13 LYS d   1      -8.173  -9.318  11.761  0.00  0.00     0.274 HD
ATOM     59  H14 LYS d   1      -7.699  -8.097  10.764  0.00  0.00     0.274 HD
ATOM     60  H15 LYS d   1      -8.706  -7.784  12.028  0.00  0.00     0.274 HD
ENDBRANCH  54  57
ENDBRANCH  51  54
ENDBRANCH  48  51
ENDBRANCH  45  48
ENDBRANCH  39  45
ENDBRANCH  36  39
ENDBRANCH  33  35
BRANCH  33  61
ATOM     61  CB  GLU d   1      -0.421  -1.717  11.942  0.00  0.00    -0.029 C 
ATOM     62  H18 GLU d   1      -0.196  -0.678  11.659  0.00  0.00     0.037 H 
ATOM     63  H19 GLU d   1      -0.646  -2.303  11.039  0.00  0.00     0.037 H 
BRANCH  61  64
ATOM     64  CG  GLU d   1       0.811  -2.312  12.607  0.00  0.00     0.018 C 
ATOM     65  H20 GLU d   1       0.497  -3.140  13.260  0.00  0.00     0.049 H 
ATOM     66  H21 GLU d   1       1.298  -1.533  13.212  0.00  0.00     0.049 H 
BRANCH  64  67
ATOM     67  CD  GLU d   1       1.812  -2.842  11.591  0.00  0.00     0.172 C 
ATOM     68  OE1 GLU d   1       1.377  -3.512  10.616  0.00  0.00    -0.648 OA
ATOM     69  OE2 GLU d   1       3.032  -2.592  11.765  0.00  0.00    -0.648 OA
ENDBRANCH  64  67
ENDBRANCH  61  64
ENDBRANCH  33  61
ENDBRANCH  30  33
ENDBRANCH  27  29
BRANCH  27  70
ATOM     70  CB  VAL d   1      -4.815   1.126  13.941  0.00  0.00    -0.033 C 
ATOM     71  H24 VAL d   1      -4.249   0.557  14.693  0.00  0.00     0.042 H 
BRANCH  70  72
ATOM     72  CG1 VAL d   1      -5.182   2.447  14.603  0.00  0.00    -0.071 C 
ATOM     73  H25 VAL d   1      -5.839   2.255  15.464  0.00  0.00     0.028 H 
ATOM     74  H26 VAL d   1      -5.705   3.088  13.878  0.00  0.00     0.028 H 
ATOM     75  H27 VAL d   1      -4.267   2.952  14.945  0.00  0.00     0.028 H 
ENDBRANCH  70  72
BRANCH  70  76
ATOM     76  CG2 VAL d   1      -6.014   0.285  13.570  0.00  0.00    -0.071 C 
ATOM     77  H28 VAL d   1      -5.675  -0.649  13.099  0.00  0.00     0.028 H 
ATOM     78  H29 VAL d   1      -6.648   0.842  12.865  0.00  0.00     0.028 H 
ATOM     79  H30 VAL d   1      -6.592   0.050  14.476  0.00  0.00     0.028 H 
ENDBRANCH  70  76
ENDBRANCH  27  70
ENDBRANCH  24  27
ENDBRANCH  21  23
BRANCH  21  80
ATOM     80  CB  ASP d   1      -3.876   5.328   9.943  0.00  0.00     0.043 C 
ATOM     81  H33 ASP d   1      -3.701   6.414   9.919  0.00  0.00     0.052 H 
ATOM     82  H34 ASP d   1      -4.955   5.129   9.865  0.00  0.00     0.052 H 
BRANCH  80  83
ATOM     83  CG  ASP d   1      -3.181   4.700   8.750  0.00  0.00     0.175 C 
ATOM     84  OD1 ASP d   1      -3.286   5.286   7.677  0.00  0.00    -0.648 OA
ATOM     85  OD2 ASP d   1      -2.533   3.641   8.850  0.00  0.00    -0.648 OA
ENDBRANCH  80  83
ENDBRANCH  21  80
ENDBRANCH   9  21
ENDBRANCH   4   7
ENDBRANCH   1   3
BRANCH   1  86
ATOM     86  CB  SEP d   1      -4.701  10.819  12.022  0.00  0.00     0.059 C 
ATOM     87  H44 SEP d   1      -3.704  11.115  12.381  0.00  0.00     0.079 H 
ATOM     88  H45 SEP d   1      -5.342  11.710  11.946  0.00  0.00     0.079 H 
BRANCH  86  89
ATOM     89  OG  SEP d   1      -4.601  10.181  10.772  0.00  0.00    -0.280 OA
BRANCH  89  90
ATOM     90  P   SEP d   1      -3.177   9.996  10.051  0.00  0.00     0.422 P 
ATOM     91  O1P SEP d   1      -2.592  11.386  10.255  0.00  0.00    -0.617 OA
ATOM     92  O2P SEP d   1      -2.506   8.877  10.812  0.00  0.00    -0.617 OA
ATOM     93  O3P SEP d   1      -3.432   9.564   8.619  0.00  0.00    -0.617 OA
ENDBRANCH  89  90
ENDBRANCH  86  89
ENDBRANCH   1  86
BRANCH   1  94
ATOM     94  C   SEP d   1      -6.720   9.485  12.478  0.00  0.00     0.243 C 
ATOM     95  O   SEP d   1      -7.586  10.364  12.528  0.00  0.00    -0.271 OA
ATOM     96  N   THR d   1      -6.968   8.255  12.017  0.00  0.00    -0.344 N 
ATOM     97  H46 THR d   1      -6.222   7.590  11.986  0.00  0.00     0.163 HD
BRANCH  96  98
ATOM     98  CA  THR d   1      -8.313   7.845  11.551  0.00  0.00     0.113 C 
ATOM     99  H47 THR d   1      -9.010   8.653  11.817  0.00  0.00     0.091 H 
BRANCH  98 100
ATOM    100  C   THR d   1      -8.836   6.530  12.152  0.00  0.00     0.243 C 
ATOM    101  O   THR d   1     -10.021   6.181  11.987  0.00  0.00    -0.271 OA
ATOM    102  N   GLY d   1      -7.939   5.784  12.792  0.00  0.00    -0.350 N 
ATOM    103  H53 GLY d   1      -7.022   6.153  12.943  0.00  0.00     0.163 HD
BRANCH 102 104
ATOM    104  CA  GLY d   1      -8.246   4.462  13.275  0.00  0.00     0.069 C 
ATOM    105  H54 GLY d   1      -9.267   4.472  13.684  0.00  0.00     0.078 H 
ATOM    106  H55 GLY d   1      -7.533   4.212  14.075  0.00  0.00     0.078 H 
BRANCH 104 107
ATOM    107  C   GLY d   1      -8.168   3.379  12.209  0.00  0.00     0.236 C 
ATOM    108  O   GLY d   1      -8.173   2.219  12.552  0.00  0.00    -0.272 OA
ATOM    109  N   GLU d   1      -8.104   3.719  10.923  0.00  0.00    -0.346 N 
ATOM    110  H56 GLU d   1      -8.039   4.685  10.672  0.00  0.00     0.163 HD
BRANCH 109 111
ATOM    111  CA  GLU d   1      -8.128   2.682   9.851  0.00  0.00     0.090 C 
ATOM    112  H57 GLU d   1      -9.028   2.078  10.039  0.00  0.00     0.087 H 
BRANCH 111 113
ATOM    113  C   GLU d   1      -6.941   1.695   9.832  0.00  0.00     0.241 C 
ATOM    114  O   GLU d   1      -5.829   2.040  10.240  0.00  0.00    -0.271 OA
ATOM    115  N   LEU d   1      -7.188   0.482   9.332  0.00  0.00    -0.346 N 
ATOM    116  H62 LEU d   1      -8.111   0.290   9.000  0.00  0.00     0.163 HD
BRANCH 115 117
ATOM    117  CA  LEU d   1      -6.179  -0.593   9.240  0.00  0.00     0.089 C 
ATOM    118  H63 LEU d   1      -5.663  -0.622  10.211  0.00  0.00     0.087 H 
BRANCH 117 119
ATOM    119  C   LEU d   1      -5.109  -0.433   8.167  0.00  0.00     0.241 C 
ATOM    120  O   LEU d   1      -5.354   0.134   7.098  0.00  0.00    -0.271 OA
ATOM    121  N   GLN d   1      -3.939  -0.999   8.480  0.00  0.00    -0.345 N 
ATOM    122  H73 GLN d   1      -3.860  -1.380   9.401  0.00  0.00     0.163 HD
BRANCH 121 123
ATOM    123  CA  GLN d   1      -2.749  -1.122   7.612  0.00  0.00     0.096 C 
ATOM    124  H74 GLN d   1      -2.071  -1.807   8.143  0.00  0.00     0.089 H 
BRANCH 123 125
ATOM    125  C   GLN d   1      -1.985   0.184   7.497  0.00  0.00     0.196 C 
ATOM    126  O   GLN d   1      -1.436   0.649   8.531  0.00  0.00    -0.646 OA
ATOM    127  O   GLN d   1      -1.901   0.788   6.394  0.00  0.00    -0.646 OA
ENDBRANCH 123 125
BRANCH 123 128
ATOM    128  CB  GLN d   1      -3.036  -1.816   6.255  0.00  0.00    -0.029 C 
ATOM    129  H75 GLN d   1      -3.913  -2.464   6.396  0.00  0.00     0.037 H 
ATOM    130  H76 GLN d   1      -2.159  -2.434   6.010  0.00  0.00     0.037 H 
BRANCH 128 131
ATOM    131  CG  GLN d   1      -3.316  -0.929   5.054  0.00  0.00     0.011 C 
ATOM    132  H77 GLN d   1      -2.638  -0.064   5.090  0.00  0.00     0.047 H 
ATOM    133  H78 GLN d   1      -4.358  -0.581   5.109  0.00  0.00     0.047 H 
BRANCH 131 134
ATOM    134  CD  GLN d   1      -3.111  -1.660   3.714  0.00  0.00     0.215 C 
ATOM    135  OE1 GLN d   1      -3.029  -1.016   2.670  0.00  0.00    -0.274 OA
ATOM    136  NE2 GLN d   1      -3.017  -3.001   3.739  0.00  0.00    -0.370 N 
ATOM    137  H79 GLN d   1      -2.884  -3.509   2.888  0.00  0.00     0.159 HD
ATOM    138  H80 GLN d   1      -3.080  -3.490   4.609  0.00  0.00     0.159 HD
ENDBRANCH 131 134
ENDBRANCH 128 131
ENDBRANCH 123 128
ENDBRANCH 121 123
ENDBRANCH 117 119
BRANCH 117 139
ATOM    139  CB  LEU d   1      -6.857  -1.961   9.008  0.00  0.00    -0.035 C 
ATOM    140  H64 LEU d   1      -6.059  -2.655   8.706  0.00  0.00     0.037 H 
ATOM    141  H65 LEU d   1      -7.558  -1.822   8.172  0.00  0.00     0.037 H 
BRANCH 139 142
ATOM    142  CG  LEU d   1      -7.653  -2.673  10.130  0.00  0.00    -0.059 C 
ATOM    143  H66 LEU d   1      -8.402  -1.959  10.503  0.00  0.00     0.038 H 
BRANCH 142 144
ATOM    144  CD1 LEU d   1      -8.410  -3.881   9.577  0.00  0.00    -0.073 C 
ATOM    145  H67 LEU d   1      -8.966  -4.369  10.391  0.00  0.00     0.028 H 
ATOM    146  H68 LEU d   1      -7.694  -4.595   9.143  0.00  0.00     0.028 H 
ATOM    147  H69 LEU d   1      -9.114  -3.548   8.800  0.00  0.00     0.028 H 
ENDBRANCH 142 144
BRANCH 142 148
ATOM    148  CD2 LEU d   1      -6.768  -3.055  11.315  0.00  0.00    -0.073 C 
ATOM    149  H70 LEU d   1      -6.242  -2.162  11.683  0.00  0.00     0.028 H 
ATOM    150  H71 LEU d   1      -6.032  -3.808  10.996  0.00  0.00     0.028 H 
ATOM    151  H72 LEU d   1      -7.392  -3.470  12.120  0.00  0.00     0.028 H 
ENDBRANCH 142 148
ENDBRANCH 139 142
ENDBRANCH 117 139
ENDBRANCH 115 117
ENDBRANCH 111 113
BRANCH 111 152
ATOM    152  CB  GLU d   1      -8.288   3.313   8.457  0.00  0.00    -0.029 C 
ATOM    153  H58 GLU d   1      -8.438   2.500   7.731  0.00  0.00     0.037 H 
ATOM    154  H59 GLU d   1      -7.359   3.851   8.218  0.00  0.00     0.037 H 
BRANCH 152 155
ATOM    155  CG  GLU d   1      -9.450   4.293   8.316  0.00  0.00     0.018 C 
ATOM    156  H60 GLU d   1      -9.121   5.282   8.666  0.00  0.00     0.049 H 
ATOM    157  H61 GLU d   1     -10.284   3.942   8.941  0.00  0.00     0.049 H 
BRANCH 155 158
ATOM    158  CD  GLU d   1      -9.935   4.421   6.887  0.00  0.00     0.172 C 
ATOM    159  OE1 GLU d   1      -9.411   3.740   5.986  0.00  0.00    -0.648 OA
ATOM    160  OE2 GLU d   1     -10.846   5.204   6.640  0.00  0.00    -0.648 OA
ENDBRANCH 155 158
ENDBRANCH 152 155
ENDBRANCH 111 152
ENDBRANCH 109 111
ENDBRANCH 104 107
ENDBRANCH 102 104
ENDBRANCH  98 100
BRANCH  98 161
ATOM    161  CB  THR d   1      -8.351   7.625  10.027  0.00  0.00     0.060 C 
ATOM    162  H48 THR d   1      -9.395   7.455   9.725  0.00  0.00     0.086 H 
BRANCH 161 163
ATOM    163  OG1 THR d   1      -7.584   6.460   9.708  0.00  0.00    -0.393 OA
ATOM    164  H49 THR d   1      -7.603   6.317   8.769  0.00  0.00     0.210 HD
ENDBRANCH 161 163
BRANCH 161 165
ATOM    165  CG2 THR d   1      -7.824   8.846   9.260  0.00  0.00    -0.050 C 
ATOM    166  H50 THR d   1      -7.869   8.647   8.179  0.00  0.00     0.031 H 
ATOM    167  H51 THR d   1      -6.782   9.042   9.554  0.00  0.00     0.031 H 
ATOM    168  H52 THR d   1      -8.444   9.723   9.497  0.00  0.00     0.031 H 
ENDBRANCH 161 165
ENDBRANCH  98 161
ENDBRANCH  96  98
ENDBRANCH   1  94
TORSDOF 50
