REMARK  6 active torsions:
REMARK  status: ('A' for Active; 'I' for Inactive)
REMARK    1  A    between atoms: NBA_25  and  C4_1 
REMARK    2  A    between atoms: C5_2  and  CAJ_26 
REMARK    3  A    between atoms: CAU_10  and  CBB_7 
REMARK    4  A    between atoms: CAO_19  and  CAV_18 
REMARK    5  A    between atoms: NAZ_20  and  CAO_19 
REMARK    6  A    between atoms: CAJ_26  and  CAA_27 
ROOT
ATOM      1  NAZ 5FI d   1     -14.545  14.152 -12.889  0.00  0.00    -0.061 N 
ATOM      2  CAL 5FI d   1     -14.420  13.009 -11.958  0.00  0.00     0.099 C 
ATOM      3  CAN 5FI d   1     -14.963  11.749 -12.622  0.00  0.00     0.019 C 
ATOM      4  CAK 5FI d   1     -13.700  13.851 -14.063  0.00  0.00     0.099 C 
ATOM      5  CAM 5FI d   1     -14.199  12.533 -14.718  0.00  0.00     0.019 C 
ATOM      6  NBA 5FI d   1     -14.259  11.387 -13.857  0.00  0.00    -0.362 N 
ATOM      7  H   5FI d   1     -15.495  14.233 -13.217  0.00  0.00     0.280 HD
ATOM      8  H   5FI d   1     -14.994  13.217 -11.043  0.00  0.00     0.078 H 
ATOM      9  H   5FI d   1     -13.361  12.860 -11.701  0.00  0.00     0.078 H 
ATOM     10  H   5FI d   1     -16.024  11.912 -12.861  0.00  0.00     0.066 H 
ATOM     11  H   5FI d   1     -14.871  10.914 -11.912  0.00  0.00     0.066 H 
ATOM     12  H   5FI d   1     -12.654  13.732 -13.744  0.00  0.00     0.078 H 
ATOM     13  H   5FI d   1     -13.771  14.674 -14.789  0.00  0.00     0.078 H 
ATOM     14  H   5FI d   1     -13.521  12.293 -15.551  0.00  0.00     0.066 H 
ATOM     15  H   5FI d   1     -15.211  12.714 -15.109  0.00  0.00     0.066 H 
ENDROOT
BRANCH   1  16
ATOM     16  CAO 5FI d   1     -14.255  15.328 -12.072  0.00  0.00     0.137 C 
ATOM     17  H   5FI d   1     -14.603  16.198 -12.648  0.00  0.00     0.088 H 
ATOM     18  H   5FI d   1     -14.860  15.227 -11.159  0.00  0.00     0.088 H 
BRANCH  16  19
ATOM     19  CAV 5FI d   1     -12.876  15.649 -11.625  0.00  0.00     0.131 A 
ATOM     20  NAS 5FI d   1     -12.050  16.446 -12.449  0.00  0.00    -0.232 NA
ATOM     21  CAY 5FI d   1     -10.851  16.570 -11.796  0.00  0.00     0.085 A 
ATOM     22  CAF 5FI d   1      -9.674  17.231 -12.119  0.00  0.00    -0.052 A 
ATOM     23  CAX 5FI d   1     -10.986  15.826 -10.599  0.00  0.00     0.063 A 
ATOM     24  CAE 5FI d   1      -8.652  17.136 -11.212  0.00  0.00    -0.066 A 
ATOM     25  H   5FI d   1      -9.569  17.793 -13.040  0.00  0.00     0.087 H 
ATOM     26  CAU 5FI d   1      -8.779  16.398 -10.028  0.00  0.00     0.050 A 
ATOM     27  H   5FI d   1      -7.718  17.647 -11.416  0.00  0.00     0.084 H 
ATOM     28  CAI 5FI d   1      -9.932  15.737  -9.676  0.00  0.00    -0.040 A 
ATOM     29  H   5FI d   1     -10.021  15.184  -8.748  0.00  0.00     0.088 H 
ATOM     30  NAR 5FI d   1     -12.253  15.263 -10.531  0.00  0.00    -0.341 N 
ATOM     31  H   5FI d   1     -12.628  14.666  -9.780  0.00  0.00     0.167 HD
BRANCH  26  32
ATOM     32  CBB 5FI d   1      -7.575  16.412  -9.103  0.00  0.00     0.417 C 
ATOM     33  FAB 5FI d   1      -6.554  15.755  -9.575  0.00  0.00    -0.166 F 
ATOM     34  FAC 5FI d   1      -7.132  17.653  -8.870  0.00  0.00    -0.166 F 
ATOM     35  FAD 5FI d   1      -7.772  15.927  -7.874  0.00  0.00    -0.166 F 
ENDBRANCH  26  32
ENDBRANCH  16  19
ENDBRANCH   1  16
BRANCH   6  36
ATOM     36  C4  5FI d   1     -14.428  10.103 -14.414  0.00  0.00     0.134 A 
ATOM     37  C5  5FI d   1     -14.171   8.899 -13.694  0.00  0.00     0.005 A 
ATOM     38  C6  5FI d   1     -14.400   7.726 -14.385  0.00  0.00     0.013 A 
ATOM     39  N1  5FI d   1     -14.811   7.693 -15.647  0.00  0.00    -0.253 NA
ATOM     40  H   5FI d   1     -14.236   6.785 -13.872  0.00  0.00     0.115 H 
ATOM     41  C2  5FI d   1     -15.026   8.877 -16.235  0.00  0.00     0.088 A 
ATOM     42  N3  5FI d   1     -14.855  10.073 -15.691  0.00  0.00    -0.224 NA
ATOM     43  H   5FI d   1     -15.376   8.854 -17.261  0.00  0.00     0.146 H 
BRANCH  37  44
ATOM     44  CAJ 5FI d   1     -13.696   8.805 -12.283  0.00  0.00    -0.039 C 
ATOM     45  H   5FI d   1     -13.710   7.746 -11.985  0.00  0.00     0.039 H 
ATOM     46  H   5FI d   1     -14.390   9.374 -11.647  0.00  0.00     0.039 H 
BRANCH  44  47
ATOM     47  CAA 5FI d   1     -12.293   9.345 -12.057  0.00  0.00    -0.072 C 
ATOM     48  H   5FI d   1     -12.025   9.237 -10.996  0.00  0.00     0.028 H 
ATOM     49  H   5FI d   1     -12.260  10.408 -12.337  0.00  0.00     0.028 H 
ATOM     50  H   5FI d   1     -11.579   8.781 -12.675  0.00  0.00     0.028 H 
ENDBRANCH  44  47
ENDBRANCH  37  44
ENDBRANCH   6  36
TORSDOF 6
