REMARK  2 active torsions:
REMARK  status: ('A' for Active; 'I' for Inactive)
REMARK    1  A    between atoms: C04_4  and  N05_5 
REMARK    2  A    between atoms: C08_8  and  C09_9 
ROOT
ATOM      1  N05 FZ8 d   1     -13.217  10.945 -12.928  0.00  0.00    -0.365 N 
ATOM      2  C06 FZ8 d   1     -13.056  12.191 -13.748  0.00  0.00    -0.003 C 
ATOM      3  C07 FZ8 d   1     -12.049  13.125 -13.070  0.00  0.00    -0.040 C 
ATOM      4  C08 FZ8 d   1     -12.157  13.360 -11.543  0.00  0.00     0.007 C 
ATOM      5  C18 FZ8 d   1     -12.506  12.039 -10.884  0.00  0.00    -0.040 C 
ATOM      6  C19 FZ8 d   1     -13.536  11.114 -11.498  0.00  0.00    -0.003 C 
ATOM      7  H   FZ8 d   1     -14.027  12.700 -13.835  0.00  0.00     0.064 H 
ATOM      8  H   FZ8 d   1     -12.691  11.925 -14.751  0.00  0.00     0.064 H 
ATOM      9  H   FZ8 d   1     -12.143  14.108 -13.555  0.00  0.00     0.036 H 
ATOM     10  H   FZ8 d   1     -11.047  12.714 -13.263  0.00  0.00     0.036 H 
ATOM     11  H   FZ8 d   1     -13.040  13.998 -11.390  0.00  0.00     0.052 H 
ATOM     12  H   FZ8 d   1     -12.863  12.278  -9.872  0.00  0.00     0.036 H 
ATOM     13  H   FZ8 d   1     -11.570  11.465 -10.816  0.00  0.00     0.036 H 
ATOM     14  H   FZ8 d   1     -13.506  10.137 -10.993  0.00  0.00     0.064 H 
ATOM     15  H   FZ8 d   1     -14.539  11.552 -11.390  0.00  0.00     0.064 H 
ENDROOT
BRANCH   4  16
ATOM     16  C09 FZ8 d   1     -11.044  14.154 -11.011  0.00  0.00     0.109 A 
ATOM     17  N10 FZ8 d   1     -10.819  15.434 -11.581  0.00  0.00    -0.342 N 
ATOM     18  C11 FZ8 d   1      -9.688  15.964 -10.921  0.00  0.00     0.062 A 
ATOM     19  H   FZ8 d   1     -11.369  15.885 -12.326  0.00  0.00     0.167 HD
ATOM     20  C12 FZ8 d   1      -9.021  17.196 -11.057  0.00  0.00    -0.055 A 
ATOM     21  C16 FZ8 d   1      -9.284  14.978  -9.994  0.00  0.00     0.085 A 
ATOM     22  C13 FZ8 d   1      -7.926  17.381 -10.238  0.00  0.00    -0.081 A 
ATOM     23  H   FZ8 d   1      -9.347  17.953 -11.761  0.00  0.00     0.087 H 
ATOM     24  C14 FZ8 d   1      -7.501  16.407  -9.318  0.00  0.00    -0.081 A 
ATOM     25  H   FZ8 d   1      -7.374  18.311 -10.307  0.00  0.00     0.083 H 
ATOM     26  C15 FZ8 d   1      -8.163  15.213  -9.179  0.00  0.00    -0.053 A 
ATOM     27  H   FZ8 d   1      -6.630  16.604  -8.704  0.00  0.00     0.083 H 
ATOM     28  H   FZ8 d   1      -7.831  14.472  -8.461  0.00  0.00     0.087 H 
ATOM     29  N17 FZ8 d   1     -10.144  13.865 -10.077  0.00  0.00    -0.233 NA
ENDBRANCH   4  16
BRANCH   1  30
ATOM     30  C04 FZ8 d   1     -13.164   9.677 -13.550  0.00  0.00     0.142 A 
ATOM     31  N03 FZ8 d   1     -13.441   9.579 -14.861  0.00  0.00    -0.224 NA
ATOM     32  C02 FZ8 d   1     -13.417   8.349 -15.421  0.00  0.00     0.091 A 
ATOM     33  N01 FZ8 d   1     -13.151   7.180 -14.858  0.00  0.00    -0.220 NA
ATOM     34  H   FZ8 d   1     -13.648   8.315 -16.480  0.00  0.00     0.146 H 
ATOM     35  C24 FZ8 d   1     -12.882   7.291 -13.518  0.00  0.00     0.185 A 
ATOM     36  C20 FZ8 d   1     -12.873   8.518 -12.812  0.00  0.00     0.076 A 
ATOM     37  N23 FZ8 d   1     -12.557   6.293 -12.613  0.00  0.00    -0.154 NA
ATOM     38  C21 FZ8 d   1     -12.520   8.155 -11.462  0.00  0.00     0.013 A 
ATOM     39  N22 FZ8 d   1     -12.343   6.816 -11.373  0.00  0.00    -0.286 N 
ATOM     40  H   FZ8 d   1     -12.412   8.855 -10.635  0.00  0.00     0.115 H 
ATOM     41  H   FZ8 d   1     -12.093   6.289 -10.524  0.00  0.00     0.188 HD
ENDBRANCH   1  30
TORSDOF 2
