REMARK  2 active torsions:
REMARK  status: ('A' for Active; 'I' for Inactive)
REMARK    1  A    between atoms: C04_4  and  N05_5 
REMARK    2  A    between atoms: C08_8  and  C09_9 
ROOT
ATOM      1  N05 FZ9 d   1      10.970 -12.778  13.223  0.00  0.00    -0.361 N 
ATOM      2  C06 FZ9 d   1      11.155 -12.382  11.772  0.00  0.00     0.012 C 
ATOM      3  C07 FZ9 d   1      12.356 -11.596  11.469  0.00  0.00    -0.079 C 
ATOM      4  C08 FZ9 d   1      13.476 -11.707  12.181  0.00  0.00    -0.046 C 
ATOM      5  C18 FZ9 d   1      13.523 -12.677  13.310  0.00  0.00    -0.025 C 
ATOM      6  C19 FZ9 d   1      12.198 -12.887  14.033  0.00  0.00     0.001 C 
ATOM      7  H   FZ9 d   1      10.279 -11.789  11.471  0.00  0.00     0.070 H 
ATOM      8  H   FZ9 d   1      11.196 -13.304  11.174  0.00  0.00     0.070 H 
ATOM      9  H   FZ9 d   1      12.331 -10.898  10.633  0.00  0.00     0.080 H 
ATOM     10  H   FZ9 d   1      14.258 -12.312  14.043  0.00  0.00     0.042 H 
ATOM     11  H   FZ9 d   1      13.852 -13.648  12.912  0.00  0.00     0.042 H 
ATOM     12  H   FZ9 d   1      12.216 -13.895  14.474  0.00  0.00     0.064 H 
ATOM     13  H   FZ9 d   1      12.135 -12.137  14.835  0.00  0.00     0.064 H 
ENDROOT
BRANCH   4  14
ATOM     14  C09 FZ9 d   1      14.663 -10.926  11.897  0.00  0.00    -0.002 A 
ATOM     15  C10 FZ9 d   1      14.849  -9.806  11.008  0.00  0.00     0.003 A 
ATOM     16  C11 FZ9 d   1      14.030  -9.096  10.116  0.00  0.00    -0.070 A 
ATOM     17  C15 FZ9 d   1      16.206  -9.407  11.101  0.00  0.00     0.043 A 
ATOM     18  C12 FZ9 d   1      14.550  -8.045   9.392  0.00  0.00    -0.082 A 
ATOM     19  H   FZ9 d   1      12.989  -9.374   9.997  0.00  0.00     0.084 H 
ATOM     20  C13 FZ9 d   1      15.897  -7.662   9.517  0.00  0.00    -0.081 A 
ATOM     21  H   FZ9 d   1      13.906  -7.501   8.711  0.00  0.00     0.083 H 
ATOM     22  C14 FZ9 d   1      16.743  -8.338  10.361  0.00  0.00    -0.056 A 
ATOM     23  H   FZ9 d   1      16.272  -6.824   8.941  0.00  0.00     0.083 H 
ATOM     24  H   FZ9 d   1      17.786  -8.058  10.454  0.00  0.00     0.086 H 
ATOM     25  N16 FZ9 d   1      16.829 -10.240  12.034  0.00  0.00    -0.364 N 
ATOM     26  C17 FZ9 d   1      15.881 -11.155  12.505  0.00  0.00    -0.011 A 
ATOM     27  H   FZ9 d   1      17.816 -10.189  12.325  0.00  0.00     0.165 HD
ATOM     28  H   FZ9 d   1      16.075 -11.933  13.242  0.00  0.00     0.112 H 
ENDBRANCH   4  14
BRANCH   1  29
ATOM     29  C04 FZ9 d   1       9.702 -12.948  13.806  0.00  0.00     0.142 A 
ATOM     30  N03 FZ9 d   1       9.641 -13.262  15.104  0.00  0.00    -0.224 NA
ATOM     31  C02 FZ9 d   1       8.428 -13.424  15.652  0.00  0.00     0.091 A 
ATOM     32  N01 FZ9 d   1       7.224 -13.308  15.094  0.00  0.00    -0.220 NA
ATOM     33  H   FZ9 d   1       8.427 -13.688  16.703  0.00  0.00     0.146 H 
ATOM     34  C24 FZ9 d   1       7.284 -12.995  13.774  0.00  0.00     0.185 A 
ATOM     35  C20 FZ9 d   1       8.499 -12.793  13.059  0.00  0.00     0.076 A 
ATOM     36  N23 FZ9 d   1       6.254 -12.807  12.884  0.00  0.00    -0.154 NA
ATOM     37  C21 FZ9 d   1       8.073 -12.500  11.728  0.00  0.00     0.013 A 
ATOM     38  N22 FZ9 d   1       6.731 -12.507  11.645  0.00  0.00    -0.286 N 
ATOM     39  H   FZ9 d   1       8.743 -12.298  10.894  0.00  0.00     0.115 H 
ATOM     40  H   FZ9 d   1       6.169 -12.320  10.802  0.00  0.00     0.188 HD
ENDBRANCH   1  29
TORSDOF 2
