REMARK  4 active torsions:
REMARK  status: ('A' for Active; 'I' for Inactive)
REMARK    1  A    between atoms: C04_4  and  N05_5 
REMARK    2  A    between atoms: C08_8  and  C09_9 
REMARK       I    between atoms: C09_9  and  N11_11 
REMARK    3  A    between atoms: N11_11  and  C12_12 
REMARK    4  A    between atoms: C14_14  and  C15_15 
ROOT
ATOM      1  N05 FS9 d   1      10.912 -13.282  13.109  0.00  0.00    -0.364 N 
ATOM      2  C06 FS9 d   1      11.126 -13.699  11.761  0.00  0.00    -0.003 C 
ATOM      3  C07 FS9 d   1      11.551 -12.540  10.897  0.00  0.00    -0.039 C 
ATOM      4  C08 FS9 d   1      12.839 -11.877  11.350  0.00  0.00     0.027 C 
ATOM      5  C22 FS9 d   1      12.854 -11.663  12.907  0.00  0.00    -0.039 C 
ATOM      6  C23 FS9 d   1      12.083 -12.698  13.759  0.00  0.00    -0.003 C 
ATOM      7  H   FS9 d   1      10.191 -14.121  11.363  0.00  0.00     0.064 H 
ATOM      8  H   FS9 d   1      11.912 -14.468  11.743  0.00  0.00     0.064 H 
ATOM      9  H   FS9 d   1      10.750 -11.786  10.910  0.00  0.00     0.036 H 
ATOM     10  H   FS9 d   1      11.693 -12.907   9.870  0.00  0.00     0.036 H 
ATOM     11  H   FS9 d   1      13.659 -12.567  11.102  0.00  0.00     0.054 H 
ATOM     12  H   FS9 d   1      12.419 -10.673  13.111  0.00  0.00     0.036 H 
ATOM     13  H   FS9 d   1      13.904 -11.677  13.235  0.00  0.00     0.036 H 
ATOM     14  H   FS9 d   1      12.775 -13.514  14.013  0.00  0.00     0.064 H 
ATOM     15  H   FS9 d   1      11.749 -12.200  14.681  0.00  0.00     0.064 H 
ENDROOT
BRANCH   4  16
ATOM     16  C09 FS9 d   1      13.123 -10.572  10.640  0.00  0.00     0.226 C 
ATOM     17  O10 FS9 d   1      12.259 -10.067   9.928  0.00  0.00    -0.273 OA
ATOM     18  N11 FS9 d   1      14.397  -9.986  10.819  0.00  0.00    -0.327 N 
ATOM     19  H   FS9 d   1      15.037 -10.481  11.407  0.00  0.00     0.169 HD
BRANCH  18  20
ATOM     20  C12 FS9 d   1      14.872  -8.758  10.249  0.00  0.00     0.035 A 
ATOM     21  C13 FS9 d   1      14.027  -7.882   9.570  0.00  0.00    -0.043 A 
ATOM     22  C14 FS9 d   1      14.529  -6.704   9.055  0.00  0.00     0.050 A 
ATOM     23  H   FS9 d   1      12.978  -8.125   9.447  0.00  0.00     0.088 H 
ATOM     24  C19 FS9 d   1      15.856  -6.353   9.176  0.00  0.00    -0.068 A 
ATOM     25  C20 FS9 d   1      16.698  -7.222   9.849  0.00  0.00    -0.080 A 
ATOM     26  H   FS9 d   1      16.229  -5.425   8.757  0.00  0.00     0.084 H 
ATOM     27  C21 FS9 d   1      16.222  -8.399  10.381  0.00  0.00    -0.057 A 
ATOM     28  H   FS9 d   1      17.747  -6.972   9.959  0.00  0.00     0.083 H 
ATOM     29  H   FS9 d   1      16.900  -9.059  10.910  0.00  0.00     0.086 H 
BRANCH  22  30
ATOM     30  C15 FS9 d   1      13.590  -5.789   8.335  0.00  0.00     0.417 C 
ATOM     31  F16 FS9 d   1      12.698  -5.226   9.157  0.00  0.00    -0.166 F 
ATOM     32  F17 FS9 d   1      14.158  -4.755   7.696  0.00  0.00    -0.166 F 
ATOM     33  F18 FS9 d   1      12.844  -6.407   7.407  0.00  0.00    -0.166 F 
ENDBRANCH  22  30
ENDBRANCH  18  20
ENDBRANCH   4  16
BRANCH   1  34
ATOM     34  C04 FS9 d   1       9.716 -13.361  13.808  0.00  0.00     0.158 A 
ATOM     35  N03 FS9 d   1       9.785 -13.440  15.166  0.00  0.00    -0.222 NA
ATOM     36  C02 FS9 d   1       8.617 -13.524  15.854  0.00  0.00     0.091 A 
ATOM     37  N01 FS9 d   1       7.358 -13.518  15.377  0.00  0.00    -0.220 NA
ATOM     38  H   FS9 d   1       8.711 -13.607  16.931  0.00  0.00     0.146 H 
ATOM     39  C28 FS9 d   1       7.326 -13.440  14.025  0.00  0.00     0.182 A 
ATOM     40  C24 FS9 d   1       8.446 -13.358  13.174  0.00  0.00     0.128 A 
ATOM     41  N27 FS9 d   1       6.202 -13.412  13.220  0.00  0.00    -0.222 NA
ATOM     42  N25 FS9 d   1       8.015 -13.280  11.830  0.00  0.00    -0.345 N 
ATOM     43  C26 FS9 d   1       6.673 -13.324  11.902  0.00  0.00     0.067 A 
ATOM     44  H   FS9 d   1       8.598 -13.206  10.985  0.00  0.00     0.167 HD
ATOM     45  H   FS9 d   1       6.021 -13.294  11.030  0.00  0.00     0.143 H 
ENDBRANCH   1  34
TORSDOF 4
