REMARK  7 active torsions:
REMARK  status: ('A' for Active; 'I' for Inactive)
REMARK    1  A    between atoms: C08_8  and  C09_9 
REMARK    2  A    between atoms: C09_9  and  O11_11 
REMARK    3  A    between atoms: O11_11  and  C12_12 
REMARK    4  A    between atoms: C12_12  and  C13_13 
REMARK       I    between atoms: C13_13  and  N15_15 
REMARK    5  A    between atoms: N15_15  and  C16_16 
REMARK    6  A    between atoms: C19_19  and  S20_20 
REMARK    7  A    between atoms: S20_20  and  N23_23 
ROOT
ATOM      1  N01 F76 d   1      -3.923  14.628 -30.632  0.00  0.00    -0.252 NA
ATOM      2  C02 F76 d   1      -3.693  15.920 -30.115  0.00  0.00     0.068 A 
ATOM      3  C03 F76 d   1      -4.698  16.564 -29.335  0.00  0.00    -0.054 A 
ATOM      4  C04 F76 d   1      -4.458  17.846 -28.838  0.00  0.00    -0.081 A 
ATOM      5  C05 F76 d   1      -3.244  18.500 -29.105  0.00  0.00    -0.082 A 
ATOM      6  C06 F76 d   1      -2.261  17.878 -29.871  0.00  0.00    -0.070 A 
ATOM      7  C07 F76 d   1      -2.504  16.562 -30.371  0.00  0.00     0.009 A 
ATOM      8  C08 F76 d   1      -1.523  15.921 -31.143  0.00  0.00     0.060 A 
ATOM      9  C26 F76 d   1      -1.733  14.627 -31.662  0.00  0.00    -0.016 A 
ATOM     10  C27 F76 d   1      -0.649  13.980 -32.505  0.00  0.00    -0.038 C 
ATOM     11  C28 F76 d   1      -0.131  12.662 -32.015  0.00  0.00    -0.061 C 
ATOM     12  C29 F76 d   1      -1.020  11.492 -32.272  0.00  0.00    -0.064 C 
ATOM     13  C30 F76 d   1      -2.315  11.519 -31.525  0.00  0.00    -0.060 C 
ATOM     14  C31 F76 d   1      -3.277  12.593 -31.900  0.00  0.00    -0.024 C 
ATOM     15  C32 F76 d   1      -2.945  13.982 -31.397  0.00  0.00     0.042 A 
ATOM     16  H   F76 d   1      -5.638  16.064 -29.130  0.00  0.00     0.087 H 
ATOM     17  H   F76 d   1      -5.215  18.341 -28.241  0.00  0.00     0.083 H 
ATOM     18  H   F76 d   1      -3.071  19.495 -28.712  0.00  0.00     0.083 H 
ATOM     19  H   F76 d   1      -1.327  18.384 -30.084  0.00  0.00     0.084 H 
ATOM     20  H   F76 d   1       0.200  14.678 -32.554  0.00  0.00     0.040 H 
ATOM     21  H   F76 d   1      -1.056  13.826 -33.515  0.00  0.00     0.040 H 
ATOM     22  H   F76 d   1       0.022  12.740 -30.929  0.00  0.00     0.033 H 
ATOM     23  H   F76 d   1       0.833  12.471 -32.509  0.00  0.00     0.033 H 
ATOM     24  H   F76 d   1      -0.477  10.579 -31.985  0.00  0.00     0.033 H 
ATOM     25  H   F76 d   1      -1.245  11.462 -33.348  0.00  0.00     0.033 H 
ATOM     26  H   F76 d   1      -2.082  11.637 -30.456  0.00  0.00     0.033 H 
ATOM     27  H   F76 d   1      -2.814  10.552 -31.686  0.00  0.00     0.033 H 
ATOM     28  H   F76 d   1      -4.264  12.316 -31.500  0.00  0.00     0.042 H 
ATOM     29  H   F76 d   1      -3.325  12.635 -32.998  0.00  0.00     0.042 H 
ENDROOT
BRANCH   8  30
ATOM     30  C09 F76 d   1      -0.265  16.672 -31.422  0.00  0.00     0.295 C 
ATOM     31  O10 F76 d   1      -0.223  17.337 -32.446  0.00  0.00    -0.259 OA
BRANCH  30  32
ATOM     32  O11 F76 d   1       0.834  16.653 -30.592  0.00  0.00    -0.308 OA
BRANCH  32  33
ATOM     33  C12 F76 d   1       1.896  17.441 -31.009  0.00  0.00     0.103 C 
ATOM     34  H   F76 d   1       2.630  17.473 -30.190  0.00  0.00     0.090 H 
ATOM     35  H   F76 d   1       1.508  18.454 -31.194  0.00  0.00     0.090 H 
BRANCH  33  36
ATOM     36  C13 F76 d   1       2.616  16.995 -32.250  0.00  0.00     0.246 C 
ATOM     37  O14 F76 d   1       2.261  15.950 -32.784  0.00  0.00    -0.271 OA
ATOM     38  N15 F76 d   1       3.678  17.809 -32.785  0.00  0.00    -0.325 N 
ATOM     39  H   F76 d   1       3.902  18.658 -32.307  0.00  0.00     0.169 HD
BRANCH  38  40
ATOM     40  C16 F76 d   1       4.440  17.479 -33.966  0.00  0.00     0.034 A 
ATOM     41  C17 F76 d   1       5.615  18.174 -34.179  0.00  0.00    -0.056 A 
ATOM     42  C18 F76 d   1       6.387  17.909 -35.300  0.00  0.00    -0.058 A 
ATOM     43  H   F76 d   1       5.934  18.928 -33.468  0.00  0.00     0.087 H 
ATOM     44  C19 F76 d   1       5.991  16.955 -36.224  0.00  0.00     0.079 A 
ATOM     45  H   F76 d   1       7.311  18.454 -35.455  0.00  0.00     0.086 H 
ATOM     46  C24 F76 d   1       4.810  16.254 -36.029  0.00  0.00    -0.058 A 
ATOM     47  C25 F76 d   1       4.036  16.525 -34.900  0.00  0.00    -0.056 A 
ATOM     48  H   F76 d   1       4.492  15.505 -36.745  0.00  0.00     0.086 H 
ATOM     49  H   F76 d   1       3.108  15.987 -34.747  0.00  0.00     0.087 H 
BRANCH  44  50
ATOM     50  S20 F76 d   1       7.014  16.632 -37.630  0.00  0.00     0.256 S 
ATOM     51  O21 F76 d   1       7.795  17.783 -37.986  0.00  0.00    -0.201 OA
ATOM     52  O22 F76 d   1       6.211  16.351 -38.774  0.00  0.00    -0.201 OA
BRANCH  50  53
ATOM     53  N23 F76 d   1       7.957  15.346 -37.306  0.00  0.00    -0.324 N 
ATOM     54  H   F76 d   1       8.605  15.016 -37.992  0.00  0.00     0.169 HD
ATOM     55  H   F76 d   1       7.888  14.886 -36.421  0.00  0.00     0.169 HD
ENDBRANCH  50  53
ENDBRANCH  44  50
ENDBRANCH  38  40
ENDBRANCH  33  36
ENDBRANCH  32  33
ENDBRANCH  30  32
ENDBRANCH   8  30
TORSDOF 7
