REMARK  9 active torsions:
REMARK  status: ('A' for Active; 'I' for Inactive)
REMARK    1  A    between atoms: C08_8  and  C09_9 
REMARK    2  A    between atoms: C09_9  and  O11_11 
REMARK    3  A    between atoms: O11_11  and  C12_12 
REMARK    4  A    between atoms: C12_12  and  C13_13 
REMARK    5  A    between atoms: C12_12  and  C14_14 
REMARK       I    between atoms: C14_14  and  N16_16 
REMARK    6  A    between atoms: N16_16  and  C17_17 
REMARK    7  A    between atoms: C20_20  and  S21_21 
REMARK    8  A    between atoms: S21_21  and  N24_24 
REMARK    9  A    between atoms: C29_29  and  C30_30 
ROOT
ATOM      1  N01 FS7 d   1     -28.342 -17.533   0.921  0.00  0.00    -0.252 NA
ATOM      2  C02 FS7 d   1     -28.150 -16.217   1.397  0.00  0.00     0.068 A 
ATOM      3  C03 FS7 d   1     -29.193 -15.574   2.135  0.00  0.00    -0.054 A 
ATOM      4  C04 FS7 d   1     -28.983 -14.271   2.599  0.00  0.00    -0.081 A 
ATOM      5  C05 FS7 d   1     -27.767 -13.608   2.349  0.00  0.00    -0.082 A 
ATOM      6  C06 FS7 d   1     -26.744 -14.238   1.627  0.00  0.00    -0.070 A 
ATOM      7  C07 FS7 d   1     -26.960 -15.569   1.153  0.00  0.00     0.009 A 
ATOM      8  C08 FS7 d   1     -25.963 -16.233   0.418  0.00  0.00     0.060 A 
ATOM      9  C27 FS7 d   1     -26.156 -17.557  -0.066  0.00  0.00    -0.016 A 
ATOM     10  C28 FS7 d   1     -25.064 -18.207  -0.823  0.00  0.00    -0.035 C 
ATOM     11  C29 FS7 d   1     -25.421 -19.441  -1.556  0.00  0.00    -0.053 C 
ATOM     12  C31 FS7 d   1     -26.444 -20.327  -0.926  0.00  0.00    -0.057 C 
ATOM     13  C32 FS7 d   1     -27.641 -19.620  -0.287  0.00  0.00    -0.024 C 
ATOM     14  C33 FS7 d   1     -27.344 -18.191   0.194  0.00  0.00     0.042 A 
ATOM     15  H   FS7 d   1     -30.128 -16.086   2.331  0.00  0.00     0.087 H 
ATOM     16  H   FS7 d   1     -29.764 -13.767   3.156  0.00  0.00     0.083 H 
ATOM     17  H   FS7 d   1     -27.620 -12.600   2.719  0.00  0.00     0.083 H 
ATOM     18  H   FS7 d   1     -25.808 -13.726   1.432  0.00  0.00     0.084 H 
ATOM     19  H   FS7 d   1     -24.266 -18.460  -0.110  0.00  0.00     0.040 H 
ATOM     20  H   FS7 d   1     -24.684 -17.480  -1.556  0.00  0.00     0.040 H 
ATOM     21  H   FS7 d   1     -25.841 -19.119  -2.520  0.00  0.00     0.040 H 
ATOM     22  H   FS7 d   1     -25.943 -20.916  -0.143  0.00  0.00     0.034 H 
ATOM     23  H   FS7 d   1     -26.828 -21.003  -1.704  0.00  0.00     0.034 H 
ATOM     24  H   FS7 d   1     -27.971 -20.214   0.578  0.00  0.00     0.042 H 
ATOM     25  H   FS7 d   1     -28.451 -19.573  -1.030  0.00  0.00     0.042 H 
ENDROOT
BRANCH   8  26
ATOM     26  C09 FS7 d   1     -24.673 -15.518   0.142  0.00  0.00     0.295 C 
ATOM     27  O10 FS7 d   1     -24.556 -14.884  -0.895  0.00  0.00    -0.259 OA
BRANCH  26  28
ATOM     28  O11 FS7 d   1     -23.529 -15.910   0.826  0.00  0.00    -0.303 OA
BRANCH  28  29
ATOM     29  C12 FS7 d   1     -22.423 -15.093   0.641  0.00  0.00     0.121 C 
ATOM     30  H   FS7 d   1     -22.823 -14.077   0.508  0.00  0.00     0.098 H 
BRANCH  29  31
ATOM     31  C13 FS7 d   1     -21.513 -14.993   1.832  0.00  0.00    -0.043 C 
ATOM     32  H   FS7 d   1     -20.669 -14.329   1.594  0.00  0.00     0.031 H 
ATOM     33  H   FS7 d   1     -21.132 -15.993   2.087  0.00  0.00     0.031 H 
ATOM     34  H   FS7 d   1     -22.072 -14.585   2.687  0.00  0.00     0.031 H 
ENDBRANCH  29  31
BRANCH  29  35
ATOM     35  C14 FS7 d   1     -21.731 -15.435  -0.668  0.00  0.00     0.251 C 
ATOM     36  O15 FS7 d   1     -22.084 -16.447  -1.254  0.00  0.00    -0.270 OA
ATOM     37  N16 FS7 d   1     -20.686 -14.559  -1.173  0.00  0.00    -0.325 N 
ATOM     38  H   FS7 d   1     -20.460 -13.731  -0.661  0.00  0.00     0.169 HD
BRANCH  37  39
ATOM     39  C17 FS7 d   1     -19.958 -14.849  -2.401  0.00  0.00     0.034 A 
ATOM     40  C18 FS7 d   1     -20.380 -15.825  -3.307  0.00  0.00    -0.056 A 
ATOM     41  C19 FS7 d   1     -19.645 -16.091  -4.459  0.00  0.00    -0.058 A 
ATOM     42  H   FS7 d   1     -21.290 -16.381  -3.111  0.00  0.00     0.087 H 
ATOM     43  C20 FS7 d   1     -18.485 -15.368  -4.677  0.00  0.00     0.079 A 
ATOM     44  H   FS7 d   1     -19.972 -16.844  -5.166  0.00  0.00     0.086 H 
ATOM     45  C25 FS7 d   1     -18.058 -14.411  -3.776  0.00  0.00    -0.058 A 
ATOM     46  C26 FS7 d   1     -18.796 -14.143  -2.623  0.00  0.00    -0.056 A 
ATOM     47  H   FS7 d   1     -17.142 -13.864  -3.967  0.00  0.00     0.086 H 
ATOM     48  H   FS7 d   1     -18.462 -13.393  -1.915  0.00  0.00     0.087 H 
BRANCH  43  49
ATOM     49  S21 FS7 d   1     -17.518 -15.677  -6.111  0.00  0.00     0.256 S 
ATOM     50  O22 FS7 d   1     -16.727 -14.535  -6.428  0.00  0.00    -0.201 OA
ATOM     51  O23 FS7 d   1     -18.372 -15.872  -7.254  0.00  0.00    -0.201 OA
BRANCH  49  52
ATOM     52  N24 FS7 d   1     -16.575 -16.984  -5.845  0.00  0.00    -0.324 N 
ATOM     53  H   FS7 d   1     -15.954 -17.307  -6.560  0.00  0.00     0.169 HD
ATOM     54  H   FS7 d   1     -16.618 -17.462  -4.968  0.00  0.00     0.169 HD
ENDBRANCH  49  52
ENDBRANCH  43  49
ENDBRANCH  37  39
ENDBRANCH  29  35
ENDBRANCH  28  29
ENDBRANCH  26  28
ENDBRANCH   8  26
BRANCH  11  55
ATOM     55  C30 FS7 d   1     -24.178 -20.236  -1.837  0.00  0.00    -0.073 C 
ATOM     56  H   FS7 d   1     -24.445 -21.153  -2.382  0.00  0.00     0.028 H 
ATOM     57  H   FS7 d   1     -23.691 -20.502  -0.887  0.00  0.00     0.028 H 
ATOM     58  H   FS7 d   1     -23.488 -19.634  -2.447  0.00  0.00     0.028 H 
ENDBRANCH  11  55
TORSDOF 9
