REMARK  2 active torsions:
REMARK  status: ('A' for Active; 'I' for Inactive)
REMARK    1  A    between atoms: C7_7  and  C14_14 
REMARK    2  A    between atoms: C13_13  and  C8_8 
ROOT
ATOM      1  C13 WFF d   1       2.695   7.481  57.084  0.00  0.00     0.062 A 
ATOM      2  C14 WFF d   1       3.273   6.278  57.139  0.00  0.00    -0.006 A 
ATOM      3  C15 WFF d   1       2.525   7.790  55.658  0.00  0.00     0.295 A 
ATOM      4  C17 WFF d   1       3.512   5.748  55.766  0.00  0.00     0.055 A 
ATOM      5  O20 WFF d   1       2.028   8.812  55.228  0.00  0.00    -0.259 OA
ATOM      6  O23 WFF d   1       3.024   6.774  54.911  0.00  0.00    -0.313 OA
ATOM      7  H7  WFF d   1       2.959   4.811  55.607  0.00  0.00     0.082 H 
ATOM      8  H8  WFF d   1       4.585   5.574  55.595  0.00  0.00     0.082 H 
ENDROOT
BRANCH   2   9
ATOM      9  C7  WFF d   1       3.698   5.451  58.273  0.00  0.00    -0.024 A 
ATOM     10  C1  WFF d   1       4.133   6.011  59.466  0.00  0.00    -0.070 A 
ATOM     11  C3  WFF d   1       4.528   5.199  60.509  0.00  0.00    -0.048 A 
ATOM     12  H1  WFF d   1       4.162   7.089  59.578  0.00  0.00     0.085 H 
ATOM     13  C10 WFF d   1       4.481   3.828  60.374  0.00  0.00     0.096 A 
ATOM     14  H3  WFF d   1       4.876   5.640  61.436  0.00  0.00     0.087 H 
ATOM     15  C9  WFF d   1       4.065   3.267  59.196  0.00  0.00     0.069 A 
ATOM     16  O22 WFF d   1       4.908   3.012  61.393  0.00  0.00    -0.340 OA
ATOM     17  C5  WFF d   1       3.673   4.073  58.149  0.00  0.00    -0.044 A 
ATOM     18  N19 WFF d   1       4.059   1.883  59.058  0.00  0.00    -0.323 N 
ATOM     19  H5  WFF d   1       3.342   3.623  57.220  0.00  0.00     0.088 H 
ATOM     20  C16 WFF d   1       4.183   1.040  60.127  0.00  0.00     0.246 C 
ATOM     21  H11 WFF d   1       3.960   1.490  58.144  0.00  0.00     0.169 HD
ATOM     22  C18 WFF d   1       4.152   1.777  61.446  0.00  0.00     0.100 C 
ATOM     23  O21 WFF d   1       4.307  -0.180  60.049  0.00  0.00    -0.271 OA
ATOM     24  H9  WFF d   1       4.582   1.130  62.225  0.00  0.00     0.089 H 
ATOM     25  H10 WFF d   1       3.107   2.010  61.699  0.00  0.00     0.089 H 
ENDBRANCH   2   9
BRANCH   1  26
ATOM     26  C8  WFF d   1       2.249   8.407  58.105  0.00  0.00     0.019 A 
ATOM     27  C2  WFF d   1       2.702   9.715  58.139  0.00  0.00    -0.066 A 
ATOM     28  C4  WFF d   1       2.218  10.550  59.130  0.00  0.00    -0.045 A 
ATOM     29  H2  WFF d   1       3.417  10.075  57.408  0.00  0.00     0.085 H 
ATOM     30  C11 WFF d   1       1.322  10.092  60.069  0.00  0.00     0.119 A 
ATOM     31  H4  WFF d   1       2.550  11.581  59.168  0.00  0.00     0.088 H 
ATOM     32  C6  WFF d   1       0.874   8.798  60.043  0.00  0.00    -0.008 A 
ATOM     33  F24 WFF d   1       0.831  10.863  61.053  0.00  0.00    -0.206 F 
ATOM     34  C12 WFF d   1       1.344   7.980  59.043  0.00  0.00     0.130 A 
ATOM     35  H6  WFF d   1       0.173   8.432  60.785  0.00  0.00     0.093 H 
ATOM     36  F25 WFF d   1       0.902   6.721  58.997  0.00  0.00    -0.205 F 
ENDBRANCH   1  26
TORSDOF 2
