REMARK  3 active torsions:
REMARK  status: ('A' for Active; 'I' for Inactive)
REMARK    1  A    between atoms: C13_13  and  C8_8 
REMARK    2  A    between atoms: C9_9  and  C14_14 
REMARK    3  A    between atoms: C18_18  and  C19_19 
ROOT
ATOM      1  C13 WFG d   1       0.043  31.553  39.598  0.00  0.00     0.059 A 
ATOM      2  C14 WFG d   1      -0.242  30.654  40.548  0.00  0.00    -0.002 A 
ATOM      3  C15 WFG d   1      -0.751  31.155  38.401  0.00  0.00     0.295 A 
ATOM      4  C18 WFG d   1      -1.168  29.606  40.037  0.00  0.00     0.072 A 
ATOM      5  O21 WFG d   1      -0.817  31.719  37.313  0.00  0.00    -0.259 OA
ATOM      6  O24 WFG d   1      -1.414  30.007  38.689  0.00  0.00    -0.307 OA
ATOM      7  H10 WFG d   1      -2.100  29.616  40.620  0.00  0.00     0.091 H 
ENDROOT
BRANCH   2   8
ATOM      8  C9  WFG d   1       0.277  30.504  41.912  0.00  0.00    -0.024 A 
ATOM      9  C1  WFG d   1       1.581  30.842  42.248  0.00  0.00    -0.070 A 
ATOM     10  C4  WFG d   1       2.064  30.648  43.524  0.00  0.00    -0.048 A 
ATOM     11  H1  WFG d   1       2.232  31.267  41.492  0.00  0.00     0.085 H 
ATOM     12  C11 WFG d   1       1.242  30.107  44.498  0.00  0.00     0.096 A 
ATOM     13  H4  WFG d   1       3.086  30.919  43.765  0.00  0.00     0.087 H 
ATOM     14  C10 WFG d   1      -0.038  29.750  44.175  0.00  0.00     0.069 A 
ATOM     15  O23 WFG d   1       1.744  29.889  45.779  0.00  0.00    -0.340 OA
ATOM     16  C7  WFG d   1      -0.529  29.943  42.898  0.00  0.00    -0.044 A 
ATOM     17  N20 WFG d   1      -0.857  29.179  45.177  0.00  0.00    -0.323 N 
ATOM     18  H7  WFG d   1      -1.548  29.656  42.663  0.00  0.00     0.088 H 
ATOM     19  C16 WFG d   1      -0.520  29.193  46.487  0.00  0.00     0.246 C 
ATOM     20  H14 WFG d   1      -1.718  28.748  44.907  0.00  0.00     0.169 HD
ATOM     21  C17 WFG d   1       0.734  29.961  46.797  0.00  0.00     0.100 C 
ATOM     22  O22 WFG d   1      -1.199  28.688  47.384  0.00  0.00    -0.271 OA
ATOM     23  H8  WFG d   1       1.158  29.563  47.731  0.00  0.00     0.089 H 
ATOM     24  H9  WFG d   1       0.464  31.018  46.938  0.00  0.00     0.089 H 
ENDBRANCH   2   8
BRANCH   1  25
ATOM     25  C8  WFG d   1       0.841  32.790  39.631  0.00  0.00    -0.019 A 
ATOM     26  C2  WFG d   1       0.728  33.672  40.685  0.00  0.00    -0.069 A 
ATOM     27  C5  WFG d   1       1.463  34.834  40.716  0.00  0.00    -0.045 A 
ATOM     28  H2  WFG d   1       0.050  33.446  41.501  0.00  0.00     0.085 H 
ATOM     29  C12 WFG d   1       2.292  35.137  39.685  0.00  0.00     0.116 A 
ATOM     30  H5  WFG d   1       1.380  35.507  41.562  0.00  0.00     0.088 H 
ATOM     31  C6  WFG d   1       2.432  34.287  38.626  0.00  0.00    -0.045 A 
ATOM     32  F25 WFG d   1       3.017  36.296  39.742  0.00  0.00    -0.206 F 
ATOM     33  C3  WFG d   1       1.703  33.114  38.587  0.00  0.00    -0.069 A 
ATOM     34  H6  WFG d   1       3.113  34.532  37.819  0.00  0.00     0.088 H 
ATOM     35  H3  WFG d   1       1.803  32.444  37.741  0.00  0.00     0.085 H 
ENDBRANCH   1  25
BRANCH   4  36
ATOM     36  C19 WFG d   1      -0.599  28.215  40.069  0.00  0.00    -0.048 C 
ATOM     37  H11 WFG d   1      -1.343  27.506  39.677  0.00  0.00     0.031 H 
ATOM     38  H12 WFG d   1      -0.346  27.946  41.105  0.00  0.00     0.031 H 
ATOM     39  H13 WFG d   1       0.308  28.175  39.448  0.00  0.00     0.031 H 
ENDBRANCH   4  36
TORSDOF 3
