REMARK  8 active torsions:
REMARK  status: ('A' for Active; 'I' for Inactive)
REMARK    1  A    between atoms: O4_1  and  C17_2 
REMARK    2  A    between atoms: C17_2  and  C15_3 
REMARK    3  A    between atoms: C15_3  and  N1_4 
REMARK    4  A    between atoms: C15_3  and  C13_5 
REMARK    5  A    between atoms: C13_5  and  C1_6 
REMARK    6  A    between atoms: C7_10  and  O2_14 
REMARK    7  A    between atoms: O2_14  and  C2_15 
REMARK    8  A    between atoms: C8_18  and  O1_19 
ROOT
ATOM      1  C1  T2B d   1     -45.926  -3.009  42.004  0.00  0.00    -0.053 A 
ATOM      2  C11 T2B d   1     -44.541  -2.694  42.136  0.00  0.00    -0.058 A 
ATOM      3  C9  T2B d   1     -43.759  -3.400  42.983  0.00  0.00     0.042 A 
ATOM      4  I3  T2B d   1     -41.743  -2.978  43.081  0.00  0.00    -0.042 I 
ATOM      5  C7  T2B d   1     -44.322  -4.534  43.744  0.00  0.00     0.109 A 
ATOM      6  C5  T2B d   1     -45.761  -4.919  43.619  0.00  0.00     0.042 A 
ATOM      7  I1  T2B d   1     -46.725  -6.528  44.748  0.00  0.00    -0.042 I 
ATOM      8  C3  T2B d   1     -46.488  -4.074  42.739  0.00  0.00    -0.058 A 
ATOM      9  H   T2B d   1     -44.114  -1.885  41.555  0.00  0.00     0.086 H 
ATOM     10  H   T2B d   1     -47.550  -4.261  42.624  0.00  0.00     0.086 H 
ENDROOT
BRANCH   1  11
ATOM     11  C13 T2B d   1     -46.885  -2.147  41.169  0.00  0.00    -0.013 C 
ATOM     12  H   T2B d   1     -47.902  -2.513  41.371  0.00  0.00     0.043 H 
ATOM     13  H   T2B d   1     -46.788  -1.114  41.535  0.00  0.00     0.043 H 
BRANCH  11  14
ATOM     14  C15 T2B d   1     -46.723  -2.098  39.646  0.00  0.00     0.123 C 
ATOM     15  H   T2B d   1     -45.654  -2.067  39.388  0.00  0.00     0.087 H 
BRANCH  14  16
ATOM     16  C17 T2B d   1     -47.346  -3.398  39.031  0.00  0.00     0.043 C 
ATOM     17  H   T2B d   1     -46.549  -4.157  39.026  0.00  0.00     0.077 H 
ATOM     18  H   T2B d   1     -48.150  -3.714  39.712  0.00  0.00     0.077 H 
BRANCH  16  19
ATOM     19  O4  T2B d   1     -47.915  -3.386  37.696  0.00  0.00    -0.399 OA
ATOM     20  H   T2B d   1     -47.245  -3.140  37.069  0.00  0.00     0.209 HD
ENDBRANCH  16  19
ENDBRANCH  14  16
BRANCH  14  21
ATOM     21  N1  T2B d   1     -47.358  -0.864  39.170  0.00  0.00    -0.073 N 
ATOM     22  H   T2B d   1     -46.913  -0.069  39.601  0.00  0.00     0.274 HD
ATOM     23  H   T2B d   1     -48.336  -0.874  39.413  0.00  0.00     0.274 HD
ATOM     24  H   T2B d   1     -47.261  -0.801  38.169  0.00  0.00     0.274 HD
ENDBRANCH  14  21
ENDBRANCH  11  14
ENDBRANCH   1  11
BRANCH   5  25
ATOM     25  O2  T2B d   1     -43.508  -5.293  44.510  0.00  0.00    -0.308 OA
BRANCH  25  26
ATOM     26  C2  T2B d   1     -43.240  -5.019  45.822  0.00  0.00     0.076 A 
ATOM     27  C12 T2B d   1     -42.459  -5.893  46.611  0.00  0.00    -0.048 A 
ATOM     28  C10 T2B d   1     -42.187  -5.609  47.958  0.00  0.00    -0.048 A 
ATOM     29  H   T2B d   1     -42.063  -6.799  46.168  0.00  0.00     0.087 H 
ATOM     30  C8  T2B d   1     -42.719  -4.447  48.492  0.00  0.00     0.065 A 
ATOM     31  H   T2B d   1     -41.581  -6.276  48.560  0.00  0.00     0.087 H 
ATOM     32  C6  T2B d   1     -43.487  -3.600  47.696  0.00  0.00    -0.048 A 
ATOM     33  C4  T2B d   1     -43.737  -3.860  46.362  0.00  0.00    -0.048 A 
ATOM     34  H   T2B d   1     -43.904  -2.703  48.140  0.00  0.00     0.087 H 
ATOM     35  H   T2B d   1     -44.311  -3.166  45.758  0.00  0.00     0.087 H 
BRANCH  30  36
ATOM     36  O1  T2B d   1     -42.513  -4.088  49.782  0.00  0.00    -0.361 OA
ATOM     37  H   T2B d   1     -42.857  -4.762  50.356  0.00  0.00     0.217 HD
ENDBRANCH  30  36
ENDBRANCH  25  26
ENDBRANCH   5  25
TORSDOF 8
