REMARK  11 active torsions:
REMARK  status: ('A' for Active; 'I' for Inactive)
REMARK    1  A    between atoms: C3_2  and  N2_1 
REMARK    2  A    between atoms: C_11  and  C14_20 
REMARK    3  A    between atoms: RU_39  and  C13_19 
REMARK    4  A    between atoms: C16_23  and  C15_22 
REMARK    5  A    between atoms: C15_22  and  O1_28 
REMARK    6  A    between atoms: C20_27  and  C19_26 
REMARK    7  A    between atoms: O1_28  and  C21_29 
REMARK    8  A    between atoms: C22_30  and  O2_31 
REMARK    9  A    between atoms: O2_31  and  C23_32 
REMARK   10  A    between atoms: C27_36  and  O3_37 
REMARK   11  A    between atoms: O3_37  and  C28_38 
ROOT
ATOM      1  C3  RUX d   1       3.143 -22.945  14.118  0.00  0.00     0.136 A 
ATOM      2  N   RUX d   1       3.604 -21.869  13.493  0.00  0.00    -0.216 NA
ATOM      3  C2  RUX d   1       1.851 -22.965  14.525  0.00  0.00     0.038 A 
ATOM      4  C7  RUX d   1       1.366 -24.066  15.162  0.00  0.00    -0.058 C 
ATOM      5  C6  RUX d   1       0.062 -24.044  15.548  0.00  0.00    -0.011 A 
ATOM      6  C5  RUX d   1      -0.748 -23.000  15.309  0.00  0.00     0.003 A 
ATOM      7  C4  RUX d   1      -0.319 -21.986  14.594  0.00  0.00    -0.065 C 
ATOM      8  C1  RUX d   1       1.032 -21.919  14.238  0.00  0.00     0.070 A 
ATOM      9  N1  RUX d   1       1.523 -20.799  13.665  0.00  0.00    -0.233 NA
ATOM     10  C   RUX d   1       2.807 -20.821  13.282  0.00  0.00     0.125 A 
ATOM     11  C8  RUX d   1      -0.511 -25.203  16.233  0.00  0.00     0.178 A 
ATOM     12  C12 RUX d   1       0.230 -26.320  16.503  0.00  0.00    -0.046 A 
ATOM     13  C11 RUX d   1      -0.404 -27.364  17.157  0.00  0.00    -0.079 A 
ATOM     14  C10 RUX d   1      -1.742 -27.234  17.507  0.00  0.00    -0.058 A 
ATOM     15  C9  RUX d   1      -2.425 -26.074  17.208  0.00  0.00     0.114 A 
ATOM     16  N3  RUX d   1      -1.766 -25.131  16.581  0.00  0.00     0.144 N 
ATOM     17  C16 RUX d   1      -4.777 -23.213  16.109  0.00  0.00     0.006 C 
ATOM     18  C17 RUX d   1      -4.332 -24.173  15.124  0.00  0.00    -0.018 A 
ATOM     19  C18 RUX d   1      -4.352 -21.855  15.864  0.00  0.00    -0.014 A 
ATOM     20  C19 RUX d   1      -3.574 -21.940  14.626  0.00  0.00    -0.041 A 
ATOM     21  C20 RUX d   1      -3.551 -23.341  14.161  0.00  0.00    -0.053 A 
ATOM     22 RU   RUX d   1      -2.717 -23.200  16.067  0.00  0.00     0.000 Ru
ATOM     23  H3  RUX d   1       1.995 -24.927  15.354  0.00  0.00     0.086 H 
ATOM     24  H4  RUX d   1      -1.756 -22.994  15.707  0.00  0.00     0.055 H 
ATOM     25  H5  RUX d   1      -1.006 -21.207  14.282  0.00  0.00     0.081 H 
ATOM     26  H6  RUX d   1       1.273 -26.386  16.216  0.00  0.00     0.087 H 
ATOM     27  H7  RUX d   1       0.138 -28.273  17.393  0.00  0.00     0.083 H 
ATOM     28  H8  RUX d   1      -2.250 -28.045  18.016  0.00  0.00     0.085 H 
ATOM     29  H9  RUX d   1      -3.466 -25.947  17.481  0.00  0.00     0.127 H 
ATOM     30  H10 RUX d   1      -2.277 -24.268  16.345  0.00  0.00     0.330 HD
ATOM     31  H16 RUX d   1      -4.521 -25.245  15.092  0.00  0.00     0.048 H 
ATOM     32  H17 RUX d   1      -4.562 -20.970  16.463  0.00  0.00     0.049 H 
ATOM     33  H18 RUX d   1      -3.089 -21.102  14.127  0.00  0.00     0.041 H 
ATOM     34  H19 RUX d   1      -4.004 -23.407  13.161  0.00  0.00     0.034 H 
ATOM     35  H20 RUX d   1      -2.512 -23.700  14.118  0.00  0.00     0.034 H 
ENDROOT
BRANCH  22  36
ATOM     36  C13 RUX d   1      -2.092 -22.415  17.623  0.00  0.00     0.055 C 
ATOM     37  O11 RUX d   1      -1.690 -21.910  18.624  0.00  0.00    -0.315 OA
ATOM     38  H11 RUX d   1      -3.158 -22.410  17.401  0.00  0.00     0.130 H 
ATOM     39  H12 RUX d   1      -1.393 -22.881  16.930  0.00  0.00     0.130 H 
ENDBRANCH  22  36
BRANCH  17  40
ATOM     40  C15 RUX d   1      -5.580 -23.581  17.303  0.00  0.00     0.291 C 
ATOM     41  O   RUX d   1      -5.782 -22.770  18.183  0.00  0.00    -0.260 OA
BRANCH  40  42
ATOM     42  O1  RUX d   1      -6.157 -24.900  17.398  0.00  0.00    -0.270 OA
BRANCH  42  43
ATOM     43  C21 RUX d   1      -6.854 -25.230  18.525  0.00  0.00     0.145 A 
ATOM     44  C22 RUX d   1      -8.210 -25.003  18.644  0.00  0.00     0.104 A 
ATOM     45  C24 RUX d   1      -8.880 -25.385  19.789  0.00  0.00    -0.048 A 
ATOM     46  C25 RUX d   1      -8.191 -25.981  20.830  0.00  0.00    -0.077 A 
ATOM     47  H24 RUX d   1      -9.948 -25.218  19.872  0.00  0.00     0.087 H 
ATOM     48  C26 RUX d   1      -6.829 -26.211  20.718  0.00  0.00    -0.048 A 
ATOM     49  H25 RUX d   1      -8.717 -26.268  21.733  0.00  0.00     0.083 H 
ATOM     50  C27 RUX d   1      -6.182 -25.827  19.557  0.00  0.00     0.104 A 
ATOM     51  H26 RUX d   1      -6.281 -26.683  21.525  0.00  0.00     0.087 H 
BRANCH  44  52
ATOM     52  O2  RUX d   1      -8.950 -24.442  17.643  0.00  0.00    -0.353 OA
BRANCH  52  53
ATOM     53  C23 RUX d   1      -9.005 -23.035  17.413  0.00  0.00     0.010 C 
ATOM     54  H21 RUX d   1      -9.663 -22.829  16.556  0.00  0.00     0.066 H 
ATOM     55  H22 RUX d   1      -7.994 -22.659  17.198  0.00  0.00     0.066 H 
ATOM     56  H23 RUX d   1      -9.400 -22.532  18.308  0.00  0.00     0.066 H 
ENDBRANCH  52  53
ENDBRANCH  44  52
BRANCH  50  57
ATOM     57  O3  RUX d   1      -4.844 -26.025  19.424  0.00  0.00    -0.353 OA
BRANCH  57  58
ATOM     58  C28 RUX d   1      -4.282 -27.229  19.932  0.00  0.00     0.010 C 
ATOM     59  H27 RUX d   1      -3.198 -27.235  19.746  0.00  0.00     0.066 H 
ATOM     60  H28 RUX d   1      -4.745 -28.091  19.428  0.00  0.00     0.066 H 
ATOM     61  H29 RUX d   1      -4.469 -27.293  21.014  0.00  0.00     0.066 H 
ENDBRANCH  57  58
ENDBRANCH  50  57
ENDBRANCH  42  43
ENDBRANCH  40  42
ENDBRANCH  17  40
BRANCH   1  62
ATOM     62  N2  RUX d   1       3.944 -24.003  14.344  0.00  0.00    -0.383 N 
ATOM     63  H1  RUX d   1       3.576 -24.833  14.830  0.00  0.00     0.157 HD
ATOM     64  H2  RUX d   1       4.925 -23.982  14.031  0.00  0.00     0.157 HD
ENDBRANCH   1  62
BRANCH  10  65
ATOM     65  C14 RUX d   1       3.372 -19.638  12.584  0.00  0.00    -0.019 C 
ATOM     66  H13 RUX d   1       4.429 -19.825  12.343  0.00  0.00     0.037 H 
ATOM     67  H14 RUX d   1       3.295 -18.756  13.236  0.00  0.00     0.037 H 
ATOM     68  H15 RUX d   1       2.811 -19.458  11.655  0.00  0.00     0.037 H 
ENDBRANCH  10  65
TORSDOF 11
