REMARK  7 active torsions:
REMARK  status: ('A' for Active; 'I' for Inactive)
REMARK    1  A    between atoms: N19_29  and  C22_19 
REMARK    2  A    between atoms: O5_30  and  C2_20 
REMARK    3  A    between atoms: C6_25  and  C7_21 
REMARK    4  A    between atoms: C20_22  and  C28_26 
REMARK    5  A    between atoms: C28_26  and  C29_23 
REMARK    6  A    between atoms: C28_26  and  C30_24 
REMARK    7  A    between atoms: C6_25  and  O5_30 
ROOT
ATOM      1  C4  P98 d   1      16.728   3.537  56.193  0.00  0.00    -0.050 A 
ATOM      2  C1  P98 d   1      17.765   4.366  55.824  0.00  0.00    -0.048 A 
ATOM      3  C3  P98 d   1      18.916   4.184  57.952  0.00  0.00    -0.022 A 
ATOM      4  C17 P98 d   1      16.795   3.038  57.483  0.00  0.00     0.086 A 
ATOM      5  C18 P98 d   1      17.864   3.365  58.299  0.00  0.00     0.072 A 
ATOM      6  C2  P98 d   1      18.828   4.678  56.665  0.00  0.00     0.071 A 
ATOM      7  C20 P98 d   1      16.442   2.026  59.327  0.00  0.00     0.115 A 
ATOM      8  N21 P98 d   1      15.921   2.196  58.131  0.00  0.00    -0.232 NA
ATOM      9  N19 P98 d   1      17.623   2.714  59.462  0.00  0.00    -0.297 N 
ATOM     10  H9  P98 d   1      15.915   3.292  55.519  0.00  0.00     0.087 H 
ATOM     11  H12 P98 d   1      17.752   4.796  54.829  0.00  0.00     0.087 H 
ATOM     12  H14 P98 d   1      19.734   4.418  58.624  0.00  0.00     0.091 H 
ENDROOT
BRANCH   6  13
ATOM     13  O5  P98 d   1      19.794   5.531  56.150  0.00  0.00    -0.345 OA
BRANCH  13  14
ATOM     14  C6  P98 d   1      20.968   5.508  56.944  0.00  0.00     0.066 C 
ATOM     15  H21 P98 d   1      20.986   6.362  57.638  0.00  0.00     0.084 H 
ATOM     16  H22 P98 d   1      21.034   4.570  57.515  0.00  0.00     0.084 H 
BRANCH  14  17
ATOM     17  C7  P98 d   1      22.076   5.605  55.961  0.00  0.00     0.059 A 
ATOM     18  C10 P98 d   1      21.838   6.221  54.755  0.00  0.00    -0.056 A 
ATOM     19  C9  P98 d   1      22.846   6.323  53.819  0.00  0.00    -0.069 A 
ATOM     20  H13 P98 d   1      20.856   6.627  54.539  0.00  0.00     0.086 H 
ATOM     21  C11 P98 d   1      24.069   5.788  54.140  0.00  0.00    -0.007 A 
ATOM     22  H7  P98 d   1      22.679   6.808  52.864  0.00  0.00     0.085 H 
ATOM     23  C16 P98 d   1      25.081   5.887  53.212  0.00  0.00    -0.071 A 
ATOM     24  C12 P98 d   1      24.242   5.174  55.373  0.00  0.00     0.067 A 
ATOM     25  C15 P98 d   1      26.306   5.340  53.537  0.00  0.00    -0.082 A 
ATOM     26  H6  P98 d   1      24.921   6.378  52.259  0.00  0.00     0.084 H 
ATOM     27  C14 P98 d   1      26.519   4.715  54.749  0.00  0.00    -0.081 A 
ATOM     28  H2  P98 d   1      27.120   5.403  52.824  0.00  0.00     0.083 H 
ATOM     29  C13 P98 d   1      25.485   4.643  55.654  0.00  0.00    -0.054 A 
ATOM     30  H3  P98 d   1      27.487   4.287  54.984  0.00  0.00     0.083 H 
ATOM     31  H8  P98 d   1      25.650   4.158  56.609  0.00  0.00     0.087 H 
ATOM     32  N8  P98 d   1      23.258   5.083  56.290  0.00  0.00    -0.251 NA
ENDBRANCH  14  17
ENDBRANCH  13  14
ENDBRANCH   6  13
BRANCH   9  33
ATOM     33  C22 P98 d   1      18.272   3.029  60.660  0.00  0.00     0.041 A 
ATOM     34  C23 P98 d   1      19.543   2.559  60.897  0.00  0.00    -0.057 A 
ATOM     35  C24 P98 d   1      20.145   2.820  62.116  0.00  0.00    -0.081 A 
ATOM     36  H10 P98 d   1      20.067   1.990  60.138  0.00  0.00     0.086 H 
ATOM     37  C25 P98 d   1      19.489   3.555  63.076  0.00  0.00    -0.083 A 
ATOM     38  H4  P98 d   1      21.141   2.442  62.316  0.00  0.00     0.083 H 
ATOM     39  C26 P98 d   1      18.231   4.039  62.812  0.00  0.00    -0.081 A 
ATOM     40  H1  P98 d   1      19.961   3.751  64.032  0.00  0.00     0.083 H 
ATOM     41  C27 P98 d   1      17.612   3.773  61.614  0.00  0.00    -0.057 A 
ATOM     42  H5  P98 d   1      17.720   4.638  63.557  0.00  0.00     0.083 H 
ATOM     43  H11 P98 d   1      16.613   4.146  61.421  0.00  0.00     0.086 H 
ENDBRANCH   9  33
BRANCH   7  44
ATOM     44  C28 P98 d   1      15.881   1.165  60.389  0.00  0.00    -0.003 C 
ATOM     45  H23 P98 d   1      16.581   1.156  61.237  0.00  0.00     0.050 H 
BRANCH  44  46
ATOM     46  C29 P98 d   1      15.797  -0.227  59.775  0.00  0.00    -0.067 C 
ATOM     47  H15 P98 d   1      15.384  -0.929  60.514  0.00  0.00     0.028 H 
ATOM     48  H16 P98 d   1      16.803  -0.558  59.477  0.00  0.00     0.028 H 
ATOM     49  H17 P98 d   1      15.143  -0.199  58.891  0.00  0.00     0.028 H 
ENDBRANCH  44  46
BRANCH  44  50
ATOM     50  C30 P98 d   1      14.526   1.569  60.918  0.00  0.00    -0.067 C 
ATOM     51  H18 P98 d   1      14.590   2.574  61.361  0.00  0.00     0.028 H 
ATOM     52  H19 P98 d   1      14.203   0.850  61.685  0.00  0.00     0.028 H 
ATOM     53  H20 P98 d   1      13.798   1.577  60.093  0.00  0.00     0.028 H 
ENDBRANCH  44  50
ENDBRANCH   7  44
TORSDOF 7
