REMARK  2 active torsions:
REMARK  status: ('A' for Active; 'I' for Inactive)
REMARK    1  A    between atoms: N19_1  and  C6_2 
REMARK    2  A    between atoms: N19_1  and  C17_8 
ROOT
ATOM      1  N19 YRZ d   1     -36.151 -16.872 -15.371  0.00  0.00    -0.368 N 
ATOM      2  H1  YRZ d   1     -36.781 -16.271 -15.921  0.00  0.00     0.161 HD
ENDROOT
BRANCH   1   3
ATOM      3  C6  YRZ d   1     -34.854 -17.216 -15.908  0.00  0.00     0.034 C 
ATOM      4  C11 YRZ d   1     -34.875 -17.470 -17.397  0.00  0.00    -0.043 C 
ATOM      5  C10 YRZ d   1     -33.510 -17.950 -17.817  0.00  0.00    -0.041 C 
ATOM      6  H3  YRZ d   1     -35.121 -16.539 -17.929  0.00  0.00     0.036 H 
ATOM      7  H4  YRZ d   1     -35.627 -18.237 -17.632  0.00  0.00     0.036 H 
ATOM      8  C9  YRZ d   1     -32.432 -16.966 -17.381  0.00  0.00     0.082 C 
ATOM      9  H5  YRZ d   1     -33.484 -18.051 -18.912  0.00  0.00     0.035 H 
ATOM     10  H6  YRZ d   1     -33.314 -18.928 -17.354  0.00  0.00     0.035 H 
ATOM     11  N8  YRZ d   1     -32.569 -16.498 -16.029  0.00  0.00    -0.073 N 
ATOM     12  H7  YRZ d   1     -32.469 -16.095 -18.052  0.00  0.00     0.075 H 
ATOM     13  H8  YRZ d   1     -31.455 -17.462 -17.476  0.00  0.00     0.075 H 
ATOM     14  C7  YRZ d   1     -33.885 -16.071 -15.639  0.00  0.00     0.100 C 
ATOM     15  H9  YRZ d   1     -31.943 -15.717 -15.908  0.00  0.00     0.277 HD
ATOM     16  H10 YRZ d   1     -32.293 -17.248 -15.414  0.00  0.00     0.277 HD
ATOM     17  H11 YRZ d   1     -33.893 -15.819 -14.568  0.00  0.00     0.078 H 
ATOM     18  H12 YRZ d   1     -34.179 -15.188 -16.225  0.00  0.00     0.078 H 
ATOM     19  H2  YRZ d   1     -34.498 -18.125 -15.401  0.00  0.00     0.075 H 
ENDBRANCH   1   3
BRANCH   1  20
ATOM     20  C17 YRZ d   1     -36.552 -17.318 -14.172  0.00  0.00     0.140 A 
ATOM     21  C1  YRZ d   1     -37.712 -16.702 -13.520  0.00  0.00     0.057 A 
ATOM     22  C5  YRZ d   1     -38.563 -15.551 -13.960  0.00  0.00    -0.051 A 
ATOM     23  C2  YRZ d   1     -38.141 -17.207 -12.237  0.00  0.00     0.145 A 
ATOM     24  C4  YRZ d   1     -39.483 -15.389 -12.744  0.00  0.00    -0.020 A 
ATOM     25  H13 YRZ d   1     -38.536 -14.984 -14.889  0.00  0.00     0.087 H 
ATOM     26  N3  YRZ d   1     -39.168 -16.463 -11.814  0.00  0.00    -0.350 N 
ATOM     27  H14 YRZ d   1     -40.234 -14.613 -12.602  0.00  0.00     0.111 H 
ATOM     28  H15 YRZ d   1     -39.676 -16.630 -10.934  0.00  0.00     0.166 HD
ATOM     29  N12 YRZ d   1     -37.493 -18.230 -11.666  0.00  0.00    -0.199 N 
ATOM     30  C13 YRZ d   1     -36.474 -18.756 -12.319  0.00  0.00     0.156 A 
ATOM     31  N16 YRZ d   1     -37.769 -18.829 -10.409  0.00  0.00    -0.176 NA
ATOM     32  N18 YRZ d   1     -35.975 -18.360 -13.528  0.00  0.00    -0.211 NA
ATOM     33  C14 YRZ d   1     -36.043 -19.786 -11.440  0.00  0.00    -0.018 A 
ATOM     34  C15 YRZ d   1     -36.844 -19.812 -10.309  0.00  0.00     0.026 A 
ATOM     35  H16 YRZ d   1     -35.206 -20.457 -11.627  0.00  0.00     0.091 H 
ATOM     36  H17 YRZ d   1     -36.745 -20.508  -9.477  0.00  0.00     0.117 H 
ENDBRANCH   1  20
TORSDOF 2
