REMARK  9 active torsions:
REMARK  status: ('A' for Active; 'I' for Inactive)
REMARK    1  A    between atoms: C7_4  and  C12_16 
REMARK    2  A    between atoms: C8_5  and  C13_6 
REMARK    3  A    between atoms: C13_6  and  C14_17 
REMARK    4  A    between atoms: O15_18  and  C1_10 
REMARK    5  A    between atoms: C16_19  and  O15_18 
REMARK    6  A    between atoms: C23_24  and  N27_27 
REMARK    7  A    between atoms: N27_27  and  S28_28 
REMARK    8  A    between atoms: S28_28  and  N29_29 
REMARK    9  A    between atoms: N29_29  and  C30_30 
ROOT
ATOM      1  C4  CHU d   1      66.581 -12.274  12.047  0.00  0.00    -0.017 A 
ATOM      2  C5  CHU d   1      65.656 -11.277  12.406  0.00  0.00     0.093 A 
ATOM      3  C6  CHU d   1      64.364 -11.167  11.802  0.00  0.00     0.005 A 
ATOM      4  C7  CHU d   1      63.453 -10.065  12.255  0.00  0.00    -0.036 A 
ATOM      5  C8  CHU d   1      63.881  -9.203  13.237  0.00  0.00     0.029 A 
ATOM      6  C1  CHU d   1      66.217 -13.207  11.045  0.00  0.00     0.082 A 
ATOM      7  C2  CHU d   1      64.954 -13.140  10.420  0.00  0.00    -0.049 A 
ATOM      8  C3  CHU d   1      64.035 -12.127  10.795  0.00  0.00    -0.067 A 
ATOM      9  C9  CHU d   1      65.249  -9.345  13.861  0.00  0.00     0.295 A 
ATOM     10  O10 CHU d   1      66.068 -10.384  13.406  0.00  0.00    -0.274 OA
ATOM     11  O11 CHU d   1      65.647  -8.589  14.740  0.00  0.00    -0.259 OA
ATOM     12  H   CHU d   1      67.552 -12.327  12.527  0.00  0.00     0.092 H 
ATOM     13  H   CHU d   1      64.687 -13.861   9.655  0.00  0.00     0.087 H 
ATOM     14  H   CHU d   1      63.067 -12.080  10.310  0.00  0.00     0.085 H 
ENDROOT
BRANCH   5  15
ATOM     15  C13 CHU d   1      63.085  -8.039  13.812  0.00  0.00    -0.008 C 
ATOM     16  H   CHU d   1      62.588  -7.528  12.974  0.00  0.00     0.047 H 
ATOM     17  H   CHU d   1      63.797  -7.351  14.290  0.00  0.00     0.047 H 
BRANCH  15  18
ATOM     18  C14 CHU d   1      62.017  -8.388  14.841  0.00  0.00    -0.010 A 
ATOM     19  C22 CHU d   1      60.948  -7.481  15.054  0.00  0.00     0.169 A 
ATOM     20  C23 CHU d   1      59.969  -7.781  15.994  0.00  0.00     0.177 A 
ATOM     21  F33 CHU d   1      60.864  -6.342  14.370  0.00  0.00    -0.201 F 
ATOM     22  N24 CHU d   1      59.974  -8.933  16.742  0.00  0.00    -0.240 NA
ATOM     23  C25 CHU d   1      61.010  -9.819  16.538  0.00  0.00     0.005 A 
ATOM     24  C26 CHU d   1      62.042  -9.595  15.609  0.00  0.00    -0.057 A 
ATOM     25  H   CHU d   1      61.030 -10.732  17.122  0.00  0.00     0.114 H 
ATOM     26  H   CHU d   1      62.837 -10.320  15.478  0.00  0.00     0.086 H 
BRANCH  20  27
ATOM     27  N27 CHU d   1      58.893  -6.856  16.199  0.00  0.00    -0.249 N 
ATOM     28  H   CHU d   1      58.566  -6.249  15.475  0.00  0.00     0.182 HD
BRANCH  27  29
ATOM     29  S28 CHU d   1      58.215  -6.861  17.746  0.00  0.00     0.320 S 
ATOM     30  O31 CHU d   1      57.136  -5.909  17.745  0.00  0.00    -0.182 OA
ATOM     31  O32 CHU d   1      59.214  -6.886  18.785  0.00  0.00    -0.182 OA
BRANCH  29  32
ATOM     32  N29 CHU d   1      57.540  -8.417  17.686  0.00  0.00    -0.307 N 
ATOM     33  H   CHU d   1      57.912  -9.180  18.215  0.00  0.00     0.173 HD
BRANCH  32  34
ATOM     34  C30 CHU d   1      56.368  -8.569  16.802  0.00  0.00    -0.010 C 
ATOM     35  H   CHU d   1      56.014  -9.610  16.839  0.00  0.00     0.057 H 
ATOM     36  H   CHU d   1      56.652  -8.315  15.770  0.00  0.00     0.057 H 
ATOM     37  H   CHU d   1      55.565  -7.896  17.138  0.00  0.00     0.057 H 
ENDBRANCH  32  34
ENDBRANCH  29  32
ENDBRANCH  27  29
ENDBRANCH  20  27
ENDBRANCH  15  18
ENDBRANCH   5  15
BRANCH   4  38
ATOM     38  C12 CHU d   1      62.088  -9.976  11.585  0.00  0.00    -0.050 C 
ATOM     39  H   CHU d   1      61.993 -10.778  10.838  0.00  0.00     0.033 H 
ATOM     40  H   CHU d   1      61.986  -8.999  11.090  0.00  0.00     0.033 H 
ATOM     41  H   CHU d   1      61.299 -10.087  12.344  0.00  0.00     0.033 H 
ENDBRANCH   4  38
BRANCH   6  42
ATOM     42  O15 CHU d   1      67.102 -14.193  10.678  0.00  0.00    -0.277 OA
BRANCH  42  43
ATOM     43  C16 CHU d   1      67.146 -15.345  11.480  0.00  0.00     0.273 A 
ATOM     44  N17 CHU d   1      66.397 -15.430  12.631  0.00  0.00    -0.219 NA
ATOM     45  C18 CHU d   1      66.511 -16.578  13.339  0.00  0.00     0.008 A 
ATOM     46  C19 CHU d   1      67.324 -17.638  12.970  0.00  0.00    -0.049 A 
ATOM     47  H   CHU d   1      65.931 -16.674  14.250  0.00  0.00     0.115 H 
ATOM     48  C20 CHU d   1      68.037 -17.446  11.788  0.00  0.00     0.008 A 
ATOM     49  H   CHU d   1      67.400 -18.547  13.556  0.00  0.00     0.087 H 
ATOM     50  N21 CHU d   1      67.969 -16.318  11.026  0.00  0.00    -0.219 NA
ATOM     51  H   CHU d   1      68.688 -18.246  11.453  0.00  0.00     0.115 H 
ENDBRANCH  42  43
ENDBRANCH   6  42
TORSDOF 9
