REMARK  8 active torsions:
REMARK  status: ('A' for Active; 'I' for Inactive)
REMARK    1  A    between atoms: C1_1  and  C4_4 
REMARK    2  A    between atoms: C12_12  and  C9_9 
REMARK    3  A    between atoms: C17_17  and  C19_19 
REMARK    4  A    between atoms: C18_18  and  C20_20 
REMARK    5  A    between atoms: C20_20  and  C21_21 
REMARK    6  A    between atoms: C21_21  and  C22_22 
REMARK    7  A    between atoms: C22_22  and  O23_23 
REMARK    8  A    between atoms: O23_23  and  C26_26 
ROOT
ATOM      1  C10 LC3 d   1      -8.689   8.125 -56.317  0.00  0.00    -0.079 A 
ATOM      2  C11 LC3 d   1      -8.402   8.549 -57.664  0.00  0.00    -0.054 A 
ATOM      3  C12 LC3 d   1      -9.044   7.971 -58.689  0.00  0.00     0.069 A 
ATOM      4  N13 LC3 d   1      -9.957   6.974 -58.426  0.00  0.00    -0.232 N 
ATOM      5  C14 LC3 d   1     -10.256   6.537 -57.156  0.00  0.00     0.068 A 
ATOM      6  C15 LC3 d   1      -9.580   7.153 -56.070  0.00  0.00    -0.054 A 
ATOM      7  N16 LC3 d   1     -10.673   6.306 -59.350  0.00  0.00    -0.159 NA
ATOM      8  C17 LC3 d   1     -11.433   5.447 -58.661  0.00  0.00     0.162 A 
ATOM      9  C18 LC3 d   1     -11.215   5.547 -57.256  0.00  0.00     0.008 A 
ATOM     10  H5  LC3 d   1      -8.174   8.602 -55.485  0.00  0.00     0.083 H 
ATOM     11  H6  LC3 d   1      -7.669   9.333 -57.848  0.00  0.00     0.087 H 
ATOM     12  H7  LC3 d   1      -9.783   6.840 -55.047  0.00  0.00     0.087 H 
ENDROOT
BRANCH   9  13
ATOM     13  C20 LC3 d   1     -11.833   4.789 -56.145  0.00  0.00    -0.034 C 
ATOM     14  H8  LC3 d   1     -11.205   4.900 -55.249  0.00  0.00     0.040 H 
ATOM     15  H9  LC3 d   1     -11.884   3.727 -56.427  0.00  0.00     0.040 H 
BRANCH  13  16
ATOM     16  C21 LC3 d   1     -13.234   5.276 -55.822  0.00  0.00    -0.041 C 
ATOM     17  H10 LC3 d   1     -13.800   4.430 -55.403  0.00  0.00     0.036 H 
ATOM     18  H11 LC3 d   1     -13.705   5.603 -56.761  0.00  0.00     0.036 H 
BRANCH  16  19
ATOM     19  C22 LC3 d   1     -13.310   6.420 -54.839  0.00  0.00     0.026 C 
ATOM     20  H12 LC3 d   1     -14.233   6.339 -54.246  0.00  0.00     0.075 H 
ATOM     21  H13 LC3 d   1     -13.306   7.377 -55.382  0.00  0.00     0.075 H 
BRANCH  19  22
ATOM     22  O23 LC3 d   1     -12.174   6.352 -53.975  0.00  0.00    -0.350 OA
BRANCH  22  23
ATOM     23  C26 LC3 d   1     -12.097   7.438 -53.117  0.00  0.00     0.079 A 
ATOM     24  C27 LC3 d   1     -12.525   8.692 -53.466  0.00  0.00    -0.050 A 
ATOM     25  C28 LC3 d   1     -12.422   9.744 -52.579  0.00  0.00    -0.080 A 
ATOM     26  H14 LC3 d   1     -12.949   8.859 -54.450  0.00  0.00     0.087 H 
ATOM     27  C29 LC3 d   1     -11.860   9.515 -51.337  0.00  0.00    -0.072 A 
ATOM     28  H15 LC3 d   1     -12.775  10.732 -52.851  0.00  0.00     0.083 H 
ATOM     29  C30 LC3 d   1     -11.416   8.249 -50.993  0.00  0.00    -0.023 A 
ATOM     30  H16 LC3 d   1     -11.766  10.330 -50.629  0.00  0.00     0.084 H 
ATOM     31  C31 LC3 d   1     -11.523   7.200 -51.883  0.00  0.00     0.007 A 
ATOM     32  C32 LC3 d   1     -10.848   8.026 -49.759  0.00  0.00    -0.072 A 
ATOM     33  C35 LC3 d   1     -11.076   5.931 -51.562  0.00  0.00    -0.070 A 
ATOM     34  C34 LC3 d   1     -10.512   5.705 -50.322  0.00  0.00    -0.082 A 
ATOM     35  H20 LC3 d   1     -11.168   5.122 -52.277  0.00  0.00     0.085 H 
ATOM     36  C33 LC3 d   1     -10.398   6.759 -49.438  0.00  0.00    -0.082 A 
ATOM     37  H19 LC3 d   1     -10.164   4.716 -50.047  0.00  0.00     0.083 H 
ATOM     38  H18 LC3 d   1      -9.944   6.589 -48.468  0.00  0.00     0.083 H 
ATOM     39  H17 LC3 d   1     -10.755   8.837 -49.045  0.00  0.00     0.084 H 
ENDBRANCH  22  23
ENDBRANCH  19  22
ENDBRANCH  16  19
ENDBRANCH  13  16
ENDBRANCH   9  13
BRANCH   8  40
ATOM     40  C19 LC3 d   1     -12.400   4.525 -59.421  0.00  0.00     0.231 C 
ATOM     41  O24 LC3 d   1     -12.028   4.149 -60.554  0.00  0.00    -0.643 OA
ATOM     42  O25 LC3 d   1     -13.514   4.275 -58.889  0.00  0.00    -0.643 OA
ENDBRANCH   8  40
BRANCH   3  43
ATOM     43  C9  LC3 d   1      -8.718   8.390 -60.052  0.00  0.00    -0.007 A 
ATOM     44  C5  LC3 d   1      -8.944   9.672 -60.523  0.00  0.00    -0.070 A 
ATOM     45  C2  LC3 d   1      -8.561  10.016 -61.811  0.00  0.00    -0.066 A 
ATOM     46  H3  LC3 d   1      -9.421  10.407 -59.885  0.00  0.00     0.084 H 
ATOM     47  C1  LC3 d   1      -7.948   9.082 -62.629  0.00  0.00     0.040 A 
ATOM     48  H1  LC3 d   1      -8.742  11.020 -62.178  0.00  0.00     0.085 H 
ATOM     49  C3  LC3 d   1      -7.745   7.805 -62.151  0.00  0.00    -0.066 A 
ATOM     50  C6  LC3 d   1      -8.129   7.461 -60.876  0.00  0.00    -0.070 A 
ATOM     51  H2  LC3 d   1      -7.277   7.063 -62.788  0.00  0.00     0.085 H 
ATOM     52  H4  LC3 d   1      -7.966   6.451 -60.519  0.00  0.00     0.084 H 
BRANCH  47  53
ATOM     53  C4  LC3 d   1      -7.496   9.387 -64.011  0.00  0.00     0.209 C 
ATOM     54  O7  LC3 d   1      -7.913  10.442 -64.558  0.00  0.00    -0.644 OA
ATOM     55  O8  LC3 d   1      -6.686   8.568 -64.535  0.00  0.00    -0.644 OA
ENDBRANCH  47  53
ENDBRANCH   3  43
TORSDOF 8
