REMARK  22 active torsions:
REMARK  status: ('A' for Active; 'I' for Inactive)
REMARK    1  A    between atoms: C21_21  and  C35_35 
REMARK    2  A    between atoms: C36_36  and  C22_22 
REMARK    3  A    between atoms: C23_23  and  C38_38 
REMARK    4  A    between atoms: C24_24  and  C41_41 
REMARK    5  A    between atoms: C25_25  and  N50_50 
REMARK    6  A    between atoms: C26_26  and  N53_53 
REMARK    7  A    between atoms: O61_61  and  C27_27 
REMARK    8  A    between atoms: S62_62  and  C28_28 
REMARK    9  A    between atoms: S63_63  and  C29_29 
REMARK   10  A    between atoms: C31_31  and  C37_37 
REMARK       I    between atoms: N51_51  and  C36_36 
REMARK   11  A    between atoms: N52_52  and  C39_39 
REMARK   12  A    between atoms: N52_52  and  C40_40 
REMARK   13  A    between atoms: C41_41  and  C42_42 
REMARK   14  A    between atoms: C42_42  and  C45_45 
REMARK   15  A    between atoms: C43_43  and  C44_44 
REMARK   16  A    between atoms: C47_47  and  C43_43 
REMARK   17  A    between atoms: C44_44  and  N52_52 
REMARK   18  A    between atoms: C45_45  and  O61_61 
REMARK   19  A    between atoms: C47_47  and  C46_46 
REMARK   20  A    between atoms: C46_46  and  S62_62 
REMARK   21  A    between atoms: N50_50  and  C47_47 
REMARK   22  A    between atoms: N51_51  and  S63_63 
ROOT
ATOM      1  C10 LC6 d   1     -17.972   6.274  20.582  0.00  0.00    -0.069 A 
ATOM      2  C11 LC6 d   1     -18.453   7.467  20.114  0.00  0.00    -0.067 A 
ATOM      3  C17 LC6 d   1     -18.958   8.169  22.379  0.00  0.00    -0.061 A 
ATOM      4  C21 LC6 d   1     -17.979   6.014  21.941  0.00  0.00    -0.001 A 
ATOM      5  C22 LC6 d   1     -18.933   8.399  21.009  0.00  0.00     0.033 A 
ATOM      6  C23 LC6 d   1     -18.470   6.951  22.841  0.00  0.00    -0.049 A 
ATOM      7  H10 LC6 d   1     -17.586   5.535  19.890  0.00  0.00     0.085 H 
ATOM      8  H11 LC6 d   1     -18.456   7.677  19.050  0.00  0.00     0.085 H 
ATOM      9  H17 LC6 d   1     -19.345   8.914  23.065  0.00  0.00     0.085 H 
ENDROOT
BRANCH   5  10
ATOM     10  C36 LC6 d   1     -19.421   9.636  20.379  0.00  0.00     0.265 C 
ATOM     11  N51 LC6 d   1     -20.665  10.110  20.858  0.00  0.00    -0.246 N 
ATOM     12  H45 LC6 d   1     -21.174   9.561  21.520  0.00  0.00     0.182 HD
ATOM     13  O55 LC6 d   1     -18.791  10.164  19.477  0.00  0.00    -0.267 OA
BRANCH  11  14
ATOM     14  S63 LC6 d   1     -21.317  11.598  20.332  0.00  0.00     0.265 S 
ATOM     15  O58 LC6 d   1     -20.313  12.414  19.684  0.00  0.00    -0.200 OA
ATOM     16  O59 LC6 d   1     -22.113  12.097  21.436  0.00  0.00    -0.200 OA
BRANCH  14  17
ATOM     17  C29 LC6 d   1     -22.425  11.093  19.018  0.00  0.00     0.082 A 
ATOM     18  C16 LC6 d   1     -21.915  10.780  17.775  0.00  0.00    -0.058 A 
ATOM     19  C12 LC6 d   1     -22.761  10.382  16.756  0.00  0.00    -0.054 A 
ATOM     20  H16 LC6 d   1     -20.848  10.846  17.596  0.00  0.00     0.086 H 
ATOM     21  C25 LC6 d   1     -24.126  10.289  16.960  0.00  0.00     0.061 A 
ATOM     22  H12 LC6 d   1     -22.349  10.139  15.783  0.00  0.00     0.087 H 
ATOM     23  C26 LC6 d   1     -24.595  10.631  18.216  0.00  0.00     0.130 A 
ATOM     24  C18 LC6 d   1     -23.780  11.030  19.256  0.00  0.00    -0.026 A 
ATOM     25  H18 LC6 d   1     -24.192  11.285  20.226  0.00  0.00     0.089 H 
BRANCH  21  26
ATOM     26  N50 LC6 d   1     -25.076   9.878  15.996  0.00  0.00    -0.383 N 
ATOM     27  H44 LC6 d   1     -26.084   9.877  16.208  0.00  0.00     0.160 HD
BRANCH  26  28
ATOM     28  C47 LC6 d   1     -24.583   9.459  14.700  0.00  0.00     0.019 C 
ATOM     29  H43 LC6 d   1     -23.483   9.440  14.697  0.00  0.00     0.073 H 
BRANCH  28  30
ATOM     30  C43 LC6 d   1     -25.096  10.410  13.646  0.00  0.00    -0.023 C 
ATOM     31  H35 LC6 d   1     -25.585   9.836  12.846  0.00  0.00     0.038 H 
ATOM     32  H36 LC6 d   1     -25.823  11.098  14.101  0.00  0.00     0.038 H 
BRANCH  30  33
ATOM     33  C44 LC6 d   1     -23.953  11.207  13.061  0.00  0.00     0.085 C 
ATOM     34  H37 LC6 d   1     -23.227  10.518  12.605  0.00  0.00     0.076 H 
ATOM     35  H38 LC6 d   1     -23.462  11.779  13.863  0.00  0.00     0.076 H 
BRANCH  33  36
ATOM     36  N52 LC6 d   1     -24.443  12.129  12.045  0.00  0.00    -0.079 N 
ATOM     37  H46 LC6 d   1     -25.450  12.125  12.006  0.00  0.00     0.278 HD
BRANCH  36  38
ATOM     38  C39 LC6 d   1     -23.858  11.757  10.765  0.00  0.00     0.066 C 
ATOM     39  H25 LC6 d   1     -24.217  12.444   9.984  0.00  0.00     0.068 H 
ATOM     40  H26 LC6 d   1     -24.153  10.728  10.512  0.00  0.00     0.068 H 
ATOM     41  H27 LC6 d   1     -22.762  11.819  10.831  0.00  0.00     0.068 H 
ENDBRANCH  36  38
BRANCH  36  42
ATOM     42  C40 LC6 d   1     -23.921  13.459  12.356  0.00  0.00     0.066 C 
ATOM     43  H28 LC6 d   1     -24.330  13.797  13.319  0.00  0.00     0.068 H 
ATOM     44  H29 LC6 d   1     -24.217  14.163  11.565  0.00  0.00     0.068 H 
ATOM     45  H30 LC6 d   1     -22.824  13.417  12.418  0.00  0.00     0.068 H 
ENDBRANCH  36  42
ENDBRANCH  33  36
ENDBRANCH  30  33
ENDBRANCH  28  30
BRANCH  28  46
ATOM     46  C46 LC6 d   1     -25.142   8.074  14.399  0.00  0.00     0.000 C 
ATOM     47  H41 LC6 d   1     -24.463   7.576  13.691  0.00  0.00     0.052 H 
ATOM     48  H42 LC6 d   1     -26.131   8.196  13.934  0.00  0.00     0.052 H 
BRANCH  46  49
ATOM     49  S62 LC6 d   1     -25.329   7.001  15.861  0.00  0.00    -0.128 SA
BRANCH  49  50
ATOM     50  C28 LC6 d   1     -23.607   6.774  16.219  0.00  0.00     0.000 A 
ATOM     51  C14 LC6 d   1     -23.093   7.142  17.446  0.00  0.00    -0.067 A 
ATOM     52  C4  LC6 d   1     -21.752   6.969  17.723  0.00  0.00    -0.082 A 
ATOM     53  H14 LC6 d   1     -23.747   7.570  18.197  0.00  0.00     0.085 H 
ATOM     54  C1  LC6 d   1     -20.912   6.420  16.779  0.00  0.00    -0.083 A 
ATOM     55  H4  LC6 d   1     -21.358   7.266  18.688  0.00  0.00     0.083 H 
ATOM     56  C5  LC6 d   1     -21.424   6.055  15.552  0.00  0.00    -0.082 A 
ATOM     57  H1  LC6 d   1     -19.860   6.277  16.998  0.00  0.00     0.083 H 
ATOM     58  C15 LC6 d   1     -22.762   6.228  15.272  0.00  0.00    -0.067 A 
ATOM     59  H5  LC6 d   1     -20.768   5.628  14.801  0.00  0.00     0.083 H 
ATOM     60  H15 LC6 d   1     -23.153   5.934  14.305  0.00  0.00     0.085 H 
ENDBRANCH  49  50
ENDBRANCH  46  49
ENDBRANCH  28  46
ENDBRANCH  26  28
ENDBRANCH  21  26
BRANCH  23  61
ATOM     61  N53 LC6 d   1     -26.019  10.533  18.453  0.00  0.00    -0.113 N 
ATOM     62  O54 LC6 d   1     -26.756  10.445  17.467  0.00  0.00    -0.532 OA
ATOM     63  O57 LC6 d   1     -26.409  10.531  19.620  0.00  0.00    -0.532 OA
ENDBRANCH  23  61
ENDBRANCH  14  17
ENDBRANCH  11  14
ENDBRANCH   5  10
BRANCH   6  64
ATOM     64  C38 LC6 d   1     -18.498   6.671  24.305  0.00  0.00    -0.050 C 
ATOM     65  H22 LC6 d   1     -18.921   7.537  24.836  0.00  0.00     0.033 H 
ATOM     66  H23 LC6 d   1     -17.474   6.486  24.663  0.00  0.00     0.033 H 
ATOM     67  H24 LC6 d   1     -19.119   5.784  24.497  0.00  0.00     0.033 H 
ENDBRANCH   6  64
BRANCH   4  68
ATOM     68  C35 LC6 d   1     -17.433   4.721  22.311  0.00  0.00     0.069 A 
ATOM     69  C34 LC6 d   1     -18.067   3.608  21.922  0.00  0.00    -0.054 A 
ATOM     70  C33 LC6 d   1     -17.513   2.329  22.285  0.00  0.00    -0.079 A 
ATOM     71  H21 LC6 d   1     -18.986   3.669  21.341  0.00  0.00     0.087 H 
ATOM     72  C32 LC6 d   1     -16.373   2.239  22.985  0.00  0.00    -0.054 A 
ATOM     73  H20 LC6 d   1     -18.030   1.418  21.985  0.00  0.00     0.083 H 
ATOM     74  C30 LC6 d   1     -15.698   3.424  23.369  0.00  0.00     0.068 A 
ATOM     75  H19 LC6 d   1     -15.970   1.264  23.256  0.00  0.00     0.087 H 
ATOM     76  C24 LC6 d   1     -14.536   3.696  24.068  0.00  0.00     0.008 A 
ATOM     77  N49 LC6 d   1     -16.258   4.622  23.013  0.00  0.00    -0.232 N 
ATOM     78  C31 LC6 d   1     -14.461   5.109  24.097  0.00  0.00     0.162 A 
ATOM     79  N48 LC6 d   1     -15.510   5.647  23.459  0.00  0.00    -0.159 NA
BRANCH  76  80
ATOM     80  C41 LC6 d   1     -13.595   2.725  24.665  0.00  0.00    -0.034 C 
ATOM     81  H31 LC6 d   1     -14.143   1.797  24.886  0.00  0.00     0.040 H 
ATOM     82  H32 LC6 d   1     -13.201   3.150  25.600  0.00  0.00     0.040 H 
BRANCH  80  83
ATOM     83  C42 LC6 d   1     -12.432   2.391  23.764  0.00  0.00    -0.041 C 
ATOM     84  H33 LC6 d   1     -11.705   1.799  24.339  0.00  0.00     0.036 H 
ATOM     85  H34 LC6 d   1     -11.963   3.331  23.438  0.00  0.00     0.036 H 
BRANCH  83  86
ATOM     86  C45 LC6 d   1     -12.825   1.603  22.537  0.00  0.00     0.026 C 
ATOM     87  H39 LC6 d   1     -11.965   1.508  21.858  0.00  0.00     0.075 H 
ATOM     88  H40 LC6 d   1     -13.652   2.106  22.014  0.00  0.00     0.075 H 
BRANCH  86  89
ATOM     89  O61 LC6 d   1     -13.239   0.320  22.983  0.00  0.00    -0.350 OA
BRANCH  89  90
ATOM     90  C27 LC6 d   1     -13.490  -0.529  21.925  0.00  0.00     0.079 A 
ATOM     91  C13 LC6 d   1     -13.367  -0.150  20.603  0.00  0.00    -0.050 A 
ATOM     92  C6  LC6 d   1     -13.637  -1.063  19.603  0.00  0.00    -0.080 A 
ATOM     93  H13 LC6 d   1     -13.060   0.859  20.352  0.00  0.00     0.087 H 
ATOM     94  C9  LC6 d   1     -14.038  -2.335  19.933  0.00  0.00    -0.072 A 
ATOM     95  H6  LC6 d   1     -13.533  -0.777  18.562  0.00  0.00     0.083 H 
ATOM     96  C19 LC6 d   1     -14.154  -2.707  21.256  0.00  0.00    -0.023 A 
ATOM     97  H9  LC6 d   1     -14.264  -3.050  19.150  0.00  0.00     0.084 H 
ATOM     98  C7  LC6 d   1     -14.560  -3.984  21.574  0.00  0.00    -0.072 A 
ATOM     99  C20 LC6 d   1     -13.882  -1.801  22.260  0.00  0.00     0.007 A 
ATOM    100  C2  LC6 d   1     -14.683  -4.342  22.896  0.00  0.00    -0.082 A 
ATOM    101  H7  LC6 d   1     -14.780  -4.700  20.790  0.00  0.00     0.084 H 
ATOM    102  C3  LC6 d   1     -14.410  -3.435  23.893  0.00  0.00    -0.082 A 
ATOM    103  H2  LC6 d   1     -14.998  -5.347  23.154  0.00  0.00     0.083 H 
ATOM    104  C8  LC6 d   1     -14.010  -2.155  23.588  0.00  0.00    -0.070 A 
ATOM    105  H3  LC6 d   1     -14.511  -3.732  24.931  0.00  0.00     0.083 H 
ATOM    106  H8  LC6 d   1     -13.800  -1.439  24.374  0.00  0.00     0.085 H 
ENDBRANCH  89  90
ENDBRANCH  86  89
ENDBRANCH  83  86
ENDBRANCH  80  83
ENDBRANCH  76  80
BRANCH  78 107
ATOM    107  C37 LC6 d   1     -13.451   5.956  24.708  0.00  0.00     0.231 C 
ATOM    108  O56 LC6 d   1     -12.631   5.543  25.507  0.00  0.00    -0.643 OA
ATOM    109  O60 LC6 d   1     -13.494   7.266  24.341  0.00  0.00    -0.643 OA
ENDBRANCH  78 107
ENDBRANCH   4  68
TORSDOF 22
