REMARK  22 active torsions:
REMARK  status: ('A' for Active; 'I' for Inactive)
REMARK    1  A    between atoms: C21_21  and  C35_35 
REMARK    2  A    between atoms: C36_36  and  C22_22 
REMARK    3  A    between atoms: C23_23  and  C38_38 
REMARK    4  A    between atoms: C24_24  and  C41_41 
REMARK    5  A    between atoms: C25_25  and  N50_50 
REMARK    6  A    between atoms: C26_26  and  N53_53 
REMARK    7  A    between atoms: O61_61  and  C27_27 
REMARK    8  A    between atoms: S62_62  and  C28_28 
REMARK    9  A    between atoms: S63_63  and  C29_29 
REMARK   10  A    between atoms: C31_31  and  C37_37 
REMARK       I    between atoms: N51_51  and  C36_36 
REMARK   11  A    between atoms: N52_52  and  C39_39 
REMARK   12  A    between atoms: N52_52  and  C40_40 
REMARK   13  A    between atoms: C41_41  and  C42_42 
REMARK   14  A    between atoms: C42_42  and  C45_45 
REMARK   15  A    between atoms: C43_43  and  C44_44 
REMARK   16  A    between atoms: C47_47  and  C43_43 
REMARK   17  A    between atoms: C44_44  and  N52_52 
REMARK   18  A    between atoms: C45_45  and  O61_61 
REMARK   19  A    between atoms: C47_47  and  C46_46 
REMARK   20  A    between atoms: C46_46  and  S62_62 
REMARK   21  A    between atoms: N50_50  and  C47_47 
REMARK   22  A    between atoms: N51_51  and  S63_63 
ROOT
ATOM      1  C10 LC6 d   1      37.822  10.567 -49.075  0.00  0.00    -0.069 A 
ATOM      2  C11 LC6 d   1      36.507  10.769 -49.436  0.00  0.00    -0.067 A 
ATOM      3  C17 LC6 d   1      36.345  12.583 -47.860  0.00  0.00    -0.061 A 
ATOM      4  C21 LC6 d   1      38.399  11.367 -48.108  0.00  0.00    -0.001 A 
ATOM      5  C22 LC6 d   1      35.784  11.773 -48.827  0.00  0.00     0.033 A 
ATOM      6  C23 LC6 d   1      37.665  12.371 -47.505  0.00  0.00    -0.049 A 
ATOM      7  H10 LC6 d   1      38.401   9.783 -49.548  0.00  0.00     0.085 H 
ATOM      8  H11 LC6 d   1      36.045  10.144 -50.192  0.00  0.00     0.085 H 
ATOM      9  H17 LC6 d   1      35.764  13.368 -47.389  0.00  0.00     0.085 H 
ENDROOT
BRANCH   5  10
ATOM     10  C36 LC6 d   1      34.388  11.940 -49.237  0.00  0.00     0.265 C 
ATOM     11  N51 LC6 d   1      33.787  13.172 -48.879  0.00  0.00    -0.246 N 
ATOM     12  H45 LC6 d   1      34.331  13.889 -48.443  0.00  0.00     0.182 HD
ATOM     13  O55 LC6 d   1      33.805  11.043 -49.821  0.00  0.00    -0.267 OA
BRANCH  11  14
ATOM     14  S63 LC6 d   1      32.124  13.425 -49.198  0.00  0.00     0.265 S 
ATOM     15  O58 LC6 d   1      31.742  14.701 -48.623  0.00  0.00    -0.200 OA
ATOM     16  O59 LC6 d   1      31.856  13.063 -50.577  0.00  0.00    -0.200 OA
BRANCH  14  17
ATOM     17  C29 LC6 d   1      31.306  12.195 -48.214  0.00  0.00     0.082 A 
ATOM     18  C16 LC6 d   1      30.998  10.967 -48.752  0.00  0.00    -0.058 A 
ATOM     19  C12 LC6 d   1      30.364  10.030 -47.959  0.00  0.00    -0.054 A 
ATOM     20  H16 LC6 d   1      31.249  10.738 -49.782  0.00  0.00     0.086 H 
ATOM     21  C25 LC6 d   1      30.035  10.299 -46.642  0.00  0.00     0.061 A 
ATOM     22  H12 LC6 d   1      30.118   9.061 -48.378  0.00  0.00     0.087 H 
ATOM     23  C26 LC6 d   1      30.357  11.553 -46.143  0.00  0.00     0.130 A 
ATOM     24  C18 LC6 d   1      30.987  12.504 -46.913  0.00  0.00    -0.026 A 
ATOM     25  H18 LC6 d   1      31.227  13.478 -46.502  0.00  0.00     0.089 H 
BRANCH  21  26
ATOM     26  N50 LC6 d   1      29.395   9.349 -45.818  0.00  0.00    -0.383 N 
ATOM     27  H44 LC6 d   1      29.134   9.568 -44.846  0.00  0.00     0.160 HD
BRANCH  26  28
ATOM     28  C47 LC6 d   1      29.119   8.042 -46.406  0.00  0.00     0.019 C 
ATOM     29  H43 LC6 d   1      28.598   8.160 -47.368  0.00  0.00     0.073 H 
BRANCH  28  30
ATOM     30  C43 LC6 d   1      28.233   7.345 -45.399  0.00  0.00    -0.023 C 
ATOM     31  H35 LC6 d   1      28.819   6.547 -44.920  0.00  0.00     0.038 H 
ATOM     32  H36 LC6 d   1      27.928   8.082 -44.641  0.00  0.00     0.038 H 
BRANCH  30  33
ATOM     33  C44 LC6 d   1      26.985   6.727 -45.986  0.00  0.00     0.085 C 
ATOM     34  H37 LC6 d   1      27.245   6.102 -46.853  0.00  0.00     0.076 H 
ATOM     35  H38 LC6 d   1      26.285   7.516 -46.299  0.00  0.00     0.076 H 
BRANCH  33  36
ATOM     36  N52 LC6 d   1      26.380   5.907 -44.943  0.00  0.00    -0.079 N 
ATOM     37  H46 LC6 d   1      27.023   5.777 -44.177  0.00  0.00     0.278 HD
BRANCH  36  38
ATOM     38  C39 LC6 d   1      26.010   4.627 -45.526  0.00  0.00     0.066 C 
ATOM     39  H25 LC6 d   1      25.551   3.992 -44.754  0.00  0.00     0.068 H 
ATOM     40  H26 LC6 d   1      26.908   4.131 -45.922  0.00  0.00     0.068 H 
ATOM     41  H27 LC6 d   1      25.291   4.790 -46.342  0.00  0.00     0.068 H 
ENDBRANCH  36  38
BRANCH  36  42
ATOM     42  C40 LC6 d   1      25.165   6.561 -44.486  0.00  0.00     0.066 C 
ATOM     43  H28 LC6 d   1      25.418   7.534 -44.040  0.00  0.00     0.068 H 
ATOM     44  H29 LC6 d   1      24.670   5.930 -43.733  0.00  0.00     0.068 H 
ATOM     45  H30 LC6 d   1      24.488   6.714 -45.339  0.00  0.00     0.068 H 
ENDBRANCH  36  42
ENDBRANCH  33  36
ENDBRANCH  30  33
ENDBRANCH  28  30
BRANCH  28  46
ATOM     46  C46 LC6 d   1      30.396   7.222 -46.619  0.00  0.00     0.000 C 
ATOM     47  H41 LC6 d   1      30.983   7.695 -47.420  0.00  0.00     0.052 H 
ATOM     48  H42 LC6 d   1      30.108   6.206 -46.926  0.00  0.00     0.052 H 
BRANCH  46  49
ATOM     49  S62 LC6 d   1      31.452   7.097 -45.126  0.00  0.00    -0.128 SA
BRANCH  49  50
ATOM     50  C28 LC6 d   1      32.540   8.479 -45.294  0.00  0.00     0.000 A 
ATOM     51  C14 LC6 d   1      33.365   8.596 -46.395  0.00  0.00    -0.067 A 
ATOM     52  C4  LC6 d   1      34.208   9.683 -46.521  0.00  0.00    -0.082 A 
ATOM     53  H14 LC6 d   1      33.351   7.832 -47.164  0.00  0.00     0.085 H 
ATOM     54  C1  LC6 d   1      34.232  10.656 -45.537  0.00  0.00    -0.083 A 
ATOM     55  H4  LC6 d   1      34.850   9.774 -47.390  0.00  0.00     0.083 H 
ATOM     56  C5  LC6 d   1      33.414  10.540 -44.430  0.00  0.00    -0.082 A 
ATOM     57  H1  LC6 d   1      34.893  11.509 -45.635  0.00  0.00     0.083 H 
ATOM     58  C15 LC6 d   1      32.565   9.455 -44.313  0.00  0.00    -0.067 A 
ATOM     59  H5  LC6 d   1      33.438  11.298 -43.655  0.00  0.00     0.083 H 
ATOM     60  H15 LC6 d   1      31.916   9.368 -43.449  0.00  0.00     0.085 H 
ENDBRANCH  49  50
ENDBRANCH  46  49
ENDBRANCH  28  46
ENDBRANCH  26  28
ENDBRANCH  21  26
BRANCH  23  61
ATOM     61  N53 LC6 d   1      30.070  11.952 -44.781  0.00  0.00    -0.113 N 
ATOM     62  O54 LC6 d   1      29.410  11.212 -44.050  0.00  0.00    -0.532 OA
ATOM     63  O57 LC6 d   1      30.531  13.039 -44.425  0.00  0.00    -0.532 OA
ENDBRANCH  23  61
ENDBRANCH  14  17
ENDBRANCH  11  14
ENDBRANCH   5  10
BRANCH   6  64
ATOM     64  C38 LC6 d   1      38.311  13.224 -46.467  0.00  0.00    -0.050 C 
ATOM     65  H22 LC6 d   1      37.586  13.965 -46.098  0.00  0.00     0.033 H 
ATOM     66  H23 LC6 d   1      39.175  13.744 -46.906  0.00  0.00     0.033 H 
ATOM     67  H24 LC6 d   1      38.648  12.593 -45.631  0.00  0.00     0.033 H 
ENDBRANCH   6  64
BRANCH   4  68
ATOM     68  C35 LC6 d   1      39.786  11.173 -47.704  0.00  0.00     0.069 A 
ATOM     69  C34 LC6 d   1      40.134  10.057 -47.047  0.00  0.00    -0.054 A 
ATOM     70  C33 LC6 d   1      41.502   9.873 -46.630  0.00  0.00    -0.079 A 
ATOM     71  H21 LC6 d   1      39.388   9.294 -46.830  0.00  0.00     0.087 H 
ATOM     72  C32 LC6 d   1      42.422  10.814 -46.884  0.00  0.00    -0.054 A 
ATOM     73  H20 LC6 d   1      41.790   8.963 -46.105  0.00  0.00     0.083 H 
ATOM     74  C30 LC6 d   1      42.043  11.996 -47.576  0.00  0.00     0.068 A 
ATOM     75  H19 LC6 d   1      43.453  10.674 -46.562  0.00  0.00     0.087 H 
ATOM     76  C24 LC6 d   1      42.716  13.122 -47.986  0.00  0.00     0.008 A 
ATOM     77  N49 LC6 d   1      40.735  12.132 -47.968  0.00  0.00    -0.232 N 
ATOM     78  C31 LC6 d   1      41.725  13.906 -48.630  0.00  0.00     0.162 A 
ATOM     79  N48 LC6 d   1      40.539  13.294 -48.610  0.00  0.00    -0.159 NA
BRANCH  76  80
ATOM     80  C41 LC6 d   1      44.147  13.406 -47.787  0.00  0.00    -0.034 C 
ATOM     81  H31 LC6 d   1      44.617  13.547 -48.771  0.00  0.00     0.040 H 
ATOM     82  H32 LC6 d   1      44.609  12.546 -47.280  0.00  0.00     0.040 H 
BRANCH  80  83
ATOM     83  C42 LC6 d   1      44.388  14.641 -46.957  0.00  0.00    -0.041 C 
ATOM     84  H33 LC6 d   1      44.460  14.368 -45.894  0.00  0.00     0.036 H 
ATOM     85  H34 LC6 d   1      43.561  15.352 -47.097  0.00  0.00     0.036 H 
BRANCH  83  86
ATOM     86  C45 LC6 d   1      45.682  15.266 -47.413  0.00  0.00     0.026 C 
ATOM     87  H39 LC6 d   1      45.580  15.608 -48.454  0.00  0.00     0.075 H 
ATOM     88  H40 LC6 d   1      46.492  14.525 -47.348  0.00  0.00     0.075 H 
BRANCH  86  89
ATOM     89  O61 LC6 d   1      45.983  16.376 -46.574  0.00  0.00    -0.350 OA
BRANCH  89  90
ATOM     90  C27 LC6 d   1      47.038  15.977 -45.769  0.00  0.00     0.079 A 
ATOM     91  C13 LC6 d   1      48.305  15.896 -46.312  0.00  0.00    -0.050 A 
ATOM     92  C6  LC6 d   1      49.361  15.503 -45.521  0.00  0.00    -0.080 A 
ATOM     93  H13 LC6 d   1      48.467  16.141 -47.355  0.00  0.00     0.087 H 
ATOM     94  C9  LC6 d   1      49.144  15.199 -44.194  0.00  0.00    -0.072 A 
ATOM     95  H6  LC6 d   1      50.358  15.433 -45.940  0.00  0.00     0.083 H 
ATOM     96  C19 LC6 d   1      47.878  15.285 -43.652  0.00  0.00    -0.023 A 
ATOM     97  H9  LC6 d   1      49.975  14.890 -43.571  0.00  0.00     0.084 H 
ATOM     98  C7  LC6 d   1      47.669  14.980 -42.324  0.00  0.00    -0.072 A 
ATOM     99  C20 LC6 d   1      46.813  15.676 -44.439  0.00  0.00     0.007 A 
ATOM    100  C2  LC6 d   1      46.407  15.063 -41.773  0.00  0.00    -0.082 A 
ATOM    101  H7  LC6 d   1      48.505  14.672 -41.706  0.00  0.00     0.084 H 
ATOM    102  C3  LC6 d   1      45.343  15.454 -42.553  0.00  0.00    -0.082 A 
ATOM    103  H2  LC6 d   1      46.254  14.821 -40.728  0.00  0.00     0.083 H 
ATOM    104  C8  LC6 d   1      45.551  15.758 -43.881  0.00  0.00    -0.070 A 
ATOM    105  H3  LC6 d   1      44.349  15.522 -42.126  0.00  0.00     0.083 H 
ATOM    106  H8  LC6 d   1      44.713  16.066 -44.496  0.00  0.00     0.085 H 
ENDBRANCH  89  90
ENDBRANCH  86  89
ENDBRANCH  83  86
ENDBRANCH  80  83
ENDBRANCH  76  80
BRANCH  78 107
ATOM    107  C37 LC6 d   1      41.843  15.197 -49.254  0.00  0.00     0.231 C 
ATOM    108  O56 LC6 d   1      42.845  15.597 -49.825  0.00  0.00    -0.643 OA
ATOM    109  O60 LC6 d   1      40.708  15.933 -49.126  0.00  0.00    -0.643 OA
ENDBRANCH  78 107
ENDBRANCH   4  68
TORSDOF 22
