REMARK  4 active torsions:
REMARK  status: ('A' for Active; 'I' for Inactive)
REMARK    1  A    between atoms: N6_13  and  C9_6 
REMARK       I    between atoms: C1_7  and  N6_13 
REMARK       I    between atoms: N3_14  and  C1_7 
REMARK    2  A    between atoms: C7_12  and  C2_10 
REMARK    3  A    between atoms: C7_12  and  C10_11 
REMARK    4  A    between atoms: C7_12  and  N3_14 
ROOT
ATOM      1  C1  S0A d   1     -17.720  -8.866  65.273  0.00  0.00     0.321 C 
ATOM      2  N6  S0A d   1     -18.309  -8.881  66.493  0.00  0.00    -0.309 N 
ATOM      3  N3  S0A d   1     -18.031  -7.716  64.602  0.00  0.00    -0.338 N 
ATOM      4  O8  S0A d   1     -17.028  -9.800  64.865  0.00  0.00    -0.247 OA
ATOM      5  H   S0A d   1     -18.809  -8.081  66.825  0.00  0.00     0.170 HD
ATOM      6  H   S0A d   1     -18.528  -6.974  65.053  0.00  0.00     0.164 HD
ENDROOT
BRANCH   3   7
ATOM      7  C7  S0A d   1     -17.617  -7.605  63.215  0.00  0.00     0.014 C 
ATOM      8  H   S0A d   1     -17.588  -8.618  62.787  0.00  0.00     0.072 H 
BRANCH   7   9
ATOM      9  C2  S0A d   1     -18.609  -6.820  62.442  0.00  0.00    -0.035 A 
ATOM     10  C4  S0A d   1     -18.083  -5.891  61.360  0.00  0.00    -0.059 A 
ATOM     11  C5  S0A d   1     -18.751  -5.337  62.612  0.00  0.00    -0.059 A 
ATOM     12  H   S0A d   1     -16.999  -5.772  61.213  0.00  0.00     0.033 H 
ATOM     13  H   S0A d   1     -18.594  -5.830  60.388  0.00  0.00     0.033 H 
ATOM     14  H   S0A d   1     -19.744  -4.869  62.543  0.00  0.00     0.033 H 
ATOM     15  H   S0A d   1     -18.150  -4.811  63.368  0.00  0.00     0.033 H 
ATOM     16  H   S0A d   1     -19.507  -7.431  62.269  0.00  0.00     0.043 H 
ENDBRANCH   7   9
BRANCH   7  17
ATOM     17  C10 S0A d   1     -16.182  -7.015  63.120  0.00  0.00    -0.057 C 
ATOM     18  H   S0A d   1     -15.491  -7.635  63.710  0.00  0.00     0.030 H 
ATOM     19  H   S0A d   1     -16.181  -5.988  63.514  0.00  0.00     0.030 H 
ATOM     20  H   S0A d   1     -15.859  -7.005  62.069  0.00  0.00     0.030 H 
ENDBRANCH   7  17
ENDBRANCH   3   7
BRANCH   2  21
ATOM     21  C9  S0A d   1     -18.207 -10.043  67.290  0.00  0.00     0.036 A 
ATOM     22  C11 S0A d   1     -19.314 -10.478  67.991  0.00  0.00    -0.057 A 
ATOM     23  C14 S0A d   1     -19.277 -11.600  68.781  0.00  0.00    -0.081 A 
ATOM     24  H   S0A d   1     -20.239  -9.918  67.915  0.00  0.00     0.086 H 
ATOM     25  C15 S0A d   1     -18.107 -12.308  68.877  0.00  0.00    -0.083 A 
ATOM     26  H   S0A d   1     -20.160 -11.921  69.321  0.00  0.00     0.083 H 
ATOM     27  C13 S0A d   1     -16.993 -11.876  68.184  0.00  0.00    -0.081 A 
ATOM     28  H   S0A d   1     -18.056 -13.200  69.492  0.00  0.00     0.083 H 
ATOM     29  C12 S0A d   1     -17.025 -10.749  67.385  0.00  0.00    -0.057 A 
ATOM     30  H   S0A d   1     -16.069 -12.436  68.269  0.00  0.00     0.083 H 
ATOM     31  H   S0A d   1     -16.142 -10.427  66.845  0.00  0.00     0.086 H 
ENDBRANCH   2  21
TORSDOF 4
