REMARK  3 active torsions:
REMARK  status: ('A' for Active; 'I' for Inactive)
REMARK    1  A    between atoms: N3_12  and  C4_3 
REMARK    2  A    between atoms: C9_10  and  C1_4 
REMARK       I    between atoms: C1_4  and  N3_12 
REMARK    3  A    between atoms: C10_9  and  C9_10 
ROOT
ATOM      1  C14 S0C d   1     -17.349 -10.493  69.875  0.00  0.00    -0.065 C 
ATOM      2  C13 S0C d   1     -17.908 -11.596  69.015  0.00  0.00    -0.065 C 
ATOM      3  C11 S0C d   1     -16.832  -9.415  68.952  0.00  0.00    -0.061 C 
ATOM      4  C12 S0C d   1     -18.145 -11.015  67.651  0.00  0.00    -0.061 C 
ATOM      5  C10 S0C d   1     -17.227  -9.821  67.549  0.00  0.00    -0.046 C 
ATOM      6  H   S0C d   1     -16.528 -10.881  70.496  0.00  0.00     0.033 H 
ATOM      7  H   S0C d   1     -18.139 -10.085  70.523  0.00  0.00     0.033 H 
ATOM      8  H   S0C d   1     -18.855 -11.962  69.439  0.00  0.00     0.033 H 
ATOM      9  H   S0C d   1     -17.189 -12.426  68.952  0.00  0.00     0.033 H 
ATOM     10  H   S0C d   1     -15.737  -9.340  69.031  0.00  0.00     0.033 H 
ATOM     11  H   S0C d   1     -17.285  -8.446  69.209  0.00  0.00     0.033 H 
ATOM     12  H   S0C d   1     -19.194 -10.702  67.545  0.00  0.00     0.033 H 
ATOM     13  H   S0C d   1     -17.902 -11.753  66.872  0.00  0.00     0.033 H 
ATOM     14  H   S0C d   1     -16.324 -10.110  66.992  0.00  0.00     0.040 H 
ENDROOT
BRANCH   5  15
ATOM     15  C9  S0C d   1     -17.899  -8.675  66.812  0.00  0.00     0.013 C 
ATOM     16  H   S0C d   1     -18.985  -8.851  66.798  0.00  0.00     0.047 H 
ATOM     17  H   S0C d   1     -17.686  -7.737  67.346  0.00  0.00     0.047 H 
BRANCH  15  18
ATOM     18  C1  S0C d   1     -17.411  -8.546  65.393  0.00  0.00     0.224 C 
ATOM     19  N3  S0C d   1     -17.401  -7.246  64.918  0.00  0.00    -0.306 N 
ATOM     20  H   S0C d   1     -17.483  -6.480  65.555  0.00  0.00     0.171 HD
ATOM     21  O2  S0C d   1     -17.070  -9.526  64.753  0.00  0.00    -0.273 OA
BRANCH  19  22
ATOM     22  C4  S0C d   1     -17.276  -7.004  63.544  0.00  0.00     0.172 A 
ATOM     23  N8  S0C d   1     -16.549  -7.656  62.657  0.00  0.00    -0.236 NA
ATOM     24  C7  S0C d   1     -16.689  -7.106  61.408  0.00  0.00     0.011 A 
ATOM     25  C6  S0C d   1     -17.529  -6.021  61.337  0.00  0.00    -0.025 A 
ATOM     26  H   S0C d   1     -16.171  -7.501  60.535  0.00  0.00     0.115 H 
ATOM     27  S5  S0C d   1     -18.165  -5.681  62.893  0.00  0.00    -0.062 SA
ATOM     28  H   S0C d   1     -17.756  -5.462  60.431  0.00  0.00     0.097 H 
ENDBRANCH  19  22
ENDBRANCH  15  18
ENDBRANCH   5  15
TORSDOF 3
