REMARK  5 active torsions:
REMARK  status: ('A' for Active; 'I' for Inactive)
REMARK    1  A    between atoms: C9_11  and  C10_6 
REMARK    2  A    between atoms: N3_14  and  C1_7 
REMARK    3  A    between atoms: C5_9  and  C8_10 
REMARK    4  A    between atoms: C6_12  and  C9_11 
REMARK    5  A    between atoms: C6_12  and  N3_14 
ROOT
ATOM      1  C6  S0B d   1     -18.253  -9.598  65.886  0.00  0.00    -0.002 C 
ATOM      2  H   S0B d   1     -19.290  -9.822  65.594  0.00  0.00     0.064 H 
ATOM      3  H   S0B d   1     -17.575 -10.330  65.423  0.00  0.00     0.064 H 
ENDROOT
BRANCH   1   4
ATOM      4  C9  S0B d   1     -18.115  -9.639  67.389  0.00  0.00    -0.026 C 
ATOM      5  H   S0B d   1     -17.212  -9.081  67.676  0.00  0.00     0.042 H 
ATOM      6  H   S0B d   1     -18.999  -9.162  67.838  0.00  0.00     0.042 H 
BRANCH   4   7
ATOM      7  C10 S0B d   1     -18.004 -11.039  67.915  0.00  0.00    -0.057 A 
ATOM      8  C11 S0B d   1     -19.039 -11.581  68.615  0.00  0.00    -0.077 A 
ATOM      9  C13 S0B d   1     -18.912 -12.866  69.094  0.00  0.00    -0.082 A 
ATOM     10  H   S0B d   1     -19.945 -11.012  68.792  0.00  0.00     0.084 H 
ATOM     11  C15 S0B d   1     -17.776 -13.640  68.916  0.00  0.00    -0.083 A 
ATOM     12  H   S0B d   1     -19.745 -13.295  69.639  0.00  0.00     0.083 H 
ATOM     13  C14 S0B d   1     -16.737 -13.099  68.220  0.00  0.00    -0.082 A 
ATOM     14  H   S0B d   1     -17.716 -14.645  69.318  0.00  0.00     0.083 H 
ATOM     15  C12 S0B d   1     -16.872 -11.805  67.736  0.00  0.00    -0.077 A 
ATOM     16  H   S0B d   1     -15.828 -13.665  68.049  0.00  0.00     0.083 H 
ATOM     17  H   S0B d   1     -16.042 -11.373  67.188  0.00  0.00     0.084 H 
ENDBRANCH   4   7
ENDBRANCH   1   4
BRANCH   1  18
ATOM     18  N3  S0B d   1     -17.899  -8.265  65.476  0.00  0.00    -0.369 N 
ATOM     19  H   S0B d   1     -17.701  -7.536  66.176  0.00  0.00     0.161 HD
BRANCH  18  20
ATOM     20  C1  S0B d   1     -17.830  -7.985  64.145  0.00  0.00     0.157 C 
ATOM     21  N4  S0B d   1     -17.234  -8.655  63.230  0.00  0.00    -0.266 NA
ATOM     22  C7  S0B d   1     -17.419  -7.976  61.909  0.00  0.00     0.029 C 
ATOM     23  C5  S0B d   1     -17.424  -6.512  62.162  0.00  0.00     0.012 C 
ATOM     24  H   S0B d   1     -16.593  -8.238  61.232  0.00  0.00     0.069 H 
ATOM     25  H   S0B d   1     -18.374  -8.284  61.458  0.00  0.00     0.069 H 
ATOM     26  S2  S0B d   1     -18.612  -6.555  63.530  0.00  0.00    -0.086 SA
ATOM     27  H   S0B d   1     -16.448  -6.089  62.441  0.00  0.00     0.059 H 
BRANCH  23  28
ATOM     28  C8  S0B d   1     -17.972  -5.855  60.944  0.00  0.00    -0.062 C 
ATOM     29  H   S0B d   1     -17.992  -4.765  61.093  0.00  0.00     0.029 H 
ATOM     30  H   S0B d   1     -18.994  -6.219  60.759  0.00  0.00     0.029 H 
ATOM     31  H   S0B d   1     -17.335  -6.096  60.080  0.00  0.00     0.029 H 
ENDBRANCH  23  28
ENDBRANCH  18  20
ENDBRANCH   1  18
TORSDOF 5
