REMARK  2 active torsions:
REMARK  status: ('A' for Active; 'I' for Inactive)
REMARK    1  A    between atoms: C1_10  and  C2_7 
REMARK    2  A    between atoms: N7_15  and  C11_11 
ROOT
ATOM      1  C15 S0D d   1     -18.653 -11.644  69.225  0.00  0.00    -0.081 A 
ATOM      2  C14 S0D d   1     -17.435 -12.224  68.959  0.00  0.00    -0.081 A 
ATOM      3  C12 S0D d   1     -19.118 -10.587  68.474  0.00  0.00    -0.055 A 
ATOM      4  C13 S0D d   1     -16.619 -11.792  67.924  0.00  0.00    -0.053 A 
ATOM      5  C9  S0D d   1     -18.318 -10.149  67.426  0.00  0.00     0.062 A 
ATOM      6  C10 S0D d   1     -17.095 -10.750  67.157  0.00  0.00     0.086 A 
ATOM      7  C1  S0D d   1     -17.487  -9.103  65.704  0.00  0.00     0.142 A 
ATOM      8  N3  S0D d   1     -18.540  -9.123  66.509  0.00  0.00    -0.338 N 
ATOM      9  N4  S0D d   1     -16.578 -10.078  66.056  0.00  0.00    -0.228 NA
ATOM     10  H   S0D d   1     -19.258 -12.025  70.040  0.00  0.00     0.083 H 
ATOM     11  H   S0D d   1     -17.101 -13.047  69.580  0.00  0.00     0.083 H 
ATOM     12  H   S0D d   1     -20.070 -10.116  68.692  0.00  0.00     0.087 H 
ATOM     13  H   S0D d   1     -15.656 -12.250  67.728  0.00  0.00     0.087 H 
ATOM     14  H   S0D d   1     -19.361  -8.502  66.465  0.00  0.00     0.167 HD
ENDROOT
BRANCH   7  15
ATOM     15  C2  S0D d   1     -17.330  -8.167  64.591  0.00  0.00     0.046 A 
ATOM     16  C8  S0D d   1     -16.108  -7.767  63.985  0.00  0.00     0.037 A 
ATOM     17  N5  S0D d   1     -16.331  -6.955  62.943  0.00  0.00    -0.185 NA
ATOM     18  H   S0D d   1     -15.121  -8.079  64.323  0.00  0.00     0.118 H 
ATOM     19  N7  S0D d   1     -17.683  -6.814  62.892  0.00  0.00    -0.285 N 
ATOM     20  C6  S0D d   1     -18.327  -7.540  63.867  0.00  0.00     0.013 A 
ATOM     21  H   S0D d   1     -19.401  -7.607  64.034  0.00  0.00     0.115 H 
BRANCH  19  22
ATOM     22  C11 S0D d   1     -18.261  -5.982  61.857  0.00  0.00     0.002 C 
ATOM     23  H   S0D d   1     -17.457  -5.546  61.245  0.00  0.00     0.059 H 
ATOM     24  H   S0D d   1     -18.848  -5.175  62.320  0.00  0.00     0.059 H 
ATOM     25  H   S0D d   1     -18.917  -6.593  61.219  0.00  0.00     0.059 H 
ENDBRANCH  19  22
ENDBRANCH   7  15
TORSDOF 2
