REMARK  2 active torsions:
REMARK  status: ('A' for Active; 'I' for Inactive)
REMARK    1  A    between atoms: C7_4  and  C4_8 
REMARK    2  A    between atoms: C1_7  and  N11_10 
ROOT
ATOM      1  C10 S0E d   1     -17.338 -12.371  70.845  0.00  0.00    -0.066 A 
ATOM      2  C9  S0E d   1     -16.862 -11.477  71.769  0.00  0.00    -0.053 A 
ATOM      3  C8  S0E d   1     -17.227 -10.755  69.034  0.00  0.00    -0.049 A 
ATOM      4  C7  S0E d   1     -17.522 -12.015  69.533  0.00  0.00     0.049 A 
ATOM      5  C6  S0E d   1     -16.557 -10.206  71.295  0.00  0.00     0.076 A 
ATOM      6  C5  S0E d   1     -16.734  -9.856  69.959  0.00  0.00     0.038 A 
ATOM      7  C1  S0E d   1     -15.835  -8.069  71.402  0.00  0.00     0.165 A 
ATOM      8  N2  S0E d   1     -16.053  -9.194  72.064  0.00  0.00    -0.224 NA
ATOM      9  S3  S0E d   1     -16.244  -8.205  69.742  0.00  0.00    -0.050 SA
ATOM     10  H   S0E d   1     -17.574 -13.382  71.158  0.00  0.00     0.084 H 
ATOM     11  H   S0E d   1     -16.731 -11.746  72.811  0.00  0.00     0.087 H 
ATOM     12  H   S0E d   1     -17.373 -10.495  67.992  0.00  0.00     0.086 H 
ENDROOT
BRANCH   4  13
ATOM     13  C4  S0E d   1     -18.077 -13.043  68.620  0.00  0.00     0.417 C 
ATOM     14  F12 S0E d   1     -17.491 -14.241  68.731  0.00  0.00    -0.166 F 
ATOM     15  F13 S0E d   1     -19.396 -13.251  68.875  0.00  0.00    -0.166 F 
ATOM     16  F14 S0E d   1     -18.050 -12.656  67.317  0.00  0.00    -0.166 F 
ENDBRANCH   4  13
BRANCH   7  17
ATOM     17  N11 S0E d   1     -15.349  -6.917  71.894  0.00  0.00    -0.378 N 
ATOM     18  H   S0E d   1     -15.106  -6.845  72.892  0.00  0.00     0.158 HD
ATOM     19  H   S0E d   1     -15.219  -6.106  71.273  0.00  0.00     0.158 HD
ENDBRANCH   7  17
TORSDOF 2
