REMARK  3 active torsions:
REMARK  status: ('A' for Active; 'I' for Inactive)
REMARK    1  A    between atoms: C7_10  and  C8_6 
REMARK    2  A    between atoms: C4_8  and  C7_10 
REMARK    3  A    between atoms: C1_9  and  N6_12 
ROOT
ATOM      1  C7  S0F d   1     -17.529  -9.889  68.331  0.00  0.00    -0.009 C 
ATOM      2  H   S0F d   1     -18.565  -9.529  68.249  0.00  0.00     0.048 H 
ATOM      3  H   S0F d   1     -17.008  -9.728  67.376  0.00  0.00     0.048 H 
ENDROOT
BRANCH   1   4
ATOM      4  C8  S0F d   1     -17.595 -11.310  68.537  0.00  0.00    -0.053 A 
ATOM      5  C13 S0F d   1     -16.468 -12.091  68.497  0.00  0.00    -0.075 A 
ATOM      6  C11 S0F d   1     -16.578 -13.453  68.663  0.00  0.00    -0.066 A 
ATOM      7  H   S0F d   1     -15.496 -11.638  68.336  0.00  0.00     0.084 H 
ATOM      8  C9  S0F d   1     -17.828 -14.009  68.857  0.00  0.00     0.011 A 
ATOM      9  H   S0F d   1     -15.695 -14.082  68.642  0.00  0.00     0.085 H 
ATOM     10  C12 S0F d   1     -18.931 -13.171  68.902  0.00  0.00    -0.066 A 
ATOM     11 BR1  S0F d   1     -18.078 -15.946  69.070  0.00  0.00    -0.051 Br
ATOM     12  C14 S0F d   1     -18.840 -11.821  68.741  0.00  0.00    -0.075 A 
ATOM     13  H   S0F d   1     -19.908 -13.608  69.073  0.00  0.00     0.085 H 
ATOM     14  H   S0F d   1     -19.717 -11.185  68.774  0.00  0.00     0.084 H 
ENDBRANCH   1   4
BRANCH   1  15
ATOM     15  C4  S0F d   1     -16.873  -9.060  69.313  0.00  0.00     0.008 A 
ATOM     16  C5  S0F d   1     -16.368  -7.850  68.939  0.00  0.00     0.018 A 
ATOM     17  N2  S0F d   1     -15.808  -7.153  69.943  0.00  0.00    -0.236 NA
ATOM     18  H   S0F d   1     -16.414  -7.480  67.916  0.00  0.00     0.116 H 
ATOM     19  C1  S0F d   1     -15.886  -7.817  71.065  0.00  0.00     0.164 A 
ATOM     20  S3  S0F d   1     -16.648  -9.384  70.995  0.00  0.00    -0.056 SA
BRANCH  19  21
ATOM     21  N6  S0F d   1     -15.366  -7.220  72.156  0.00  0.00    -0.378 N 
ATOM     22  H   S0F d   1     -14.938  -6.286  72.078  0.00  0.00     0.158 HD
ATOM     23  H   S0F d   1     -15.397  -7.697  73.068  0.00  0.00     0.158 HD
ENDBRANCH  19  21
ENDBRANCH   1  15
TORSDOF 3
