REMARK  3 active torsions:
REMARK  status: ('A' for Active; 'I' for Inactive)
REMARK    1  A    between atoms: N7_12  and  C3_1 
REMARK    2  A    between atoms: C1_2  and  N10_14 
REMARK    3  A    between atoms: N2_13  and  C11_10 
ROOT
ATOM      1  C3  S0G d   1     -16.454  -9.494  70.678  0.00  0.00     0.143 A 
ATOM      2  C1  S0G d   1     -16.255  -9.859  71.953  0.00  0.00     0.137 A 
ATOM      3  C6  S0G d   1     -16.109  -8.094  70.277  0.00  0.00     0.279 A 
ATOM      4  C4  S0G d   1     -15.390  -7.663  72.563  0.00  0.00     0.330 A 
ATOM      5  N5  S0G d   1     -15.614  -7.281  71.264  0.00  0.00    -0.273 N 
ATOM      6  N2  S0G d   1     -15.727  -8.985  72.902  0.00  0.00    -0.288 N 
ATOM      7  O9  S0G d   1     -16.261  -7.649  69.147  0.00  0.00    -0.265 OA
ATOM      8  O8  S0G d   1     -14.920  -6.842  73.333  0.00  0.00    -0.246 OA
ATOM      9  H   S0G d   1     -15.399  -6.336  71.018  0.00  0.00     0.173 HD
ENDROOT
BRANCH   1  10
ATOM     10  N7  S0G d   1     -16.960 -10.371  69.721  0.00  0.00    -0.373 N 
ATOM     11  C12 S0G d   1     -15.966 -11.083  68.886  0.00  0.00    -0.005 C 
ATOM     12  C15 S0G d   1     -16.545 -12.355  68.254  0.00  0.00    -0.050 C 
ATOM     13  H   S0G d   1     -15.630 -10.410  68.083  0.00  0.00     0.064 H 
ATOM     14  H   S0G d   1     -15.107 -11.360  69.516  0.00  0.00     0.064 H 
ATOM     15  C16 S0G d   1     -17.905 -12.156  67.597  0.00  0.00    -0.062 C 
ATOM     16  H   S0G d   1     -15.840 -12.713  67.489  0.00  0.00     0.035 H 
ATOM     17  H   S0G d   1     -16.649 -13.116  69.041  0.00  0.00     0.035 H 
ATOM     18  C14 S0G d   1     -18.861 -11.394  68.485  0.00  0.00    -0.050 C 
ATOM     19  H   S0G d   1     -18.338 -13.142  67.374  0.00  0.00     0.033 H 
ATOM     20  H   S0G d   1     -17.768 -11.595  66.661  0.00  0.00     0.033 H 
ATOM     21  C13 S0G d   1     -18.253 -10.123  69.068  0.00  0.00    -0.005 C 
ATOM     22  H   S0G d   1     -19.165 -12.049  69.315  0.00  0.00     0.035 H 
ATOM     23  H   S0G d   1     -19.745 -11.119  67.892  0.00  0.00     0.035 H 
ATOM     24  H   S0G d   1     -18.950  -9.706  69.810  0.00  0.00     0.064 H 
ATOM     25  H   S0G d   1     -18.105  -9.397  68.255  0.00  0.00     0.064 H 
ENDBRANCH   1  10
BRANCH   2  26
ATOM     26  N10 S0G d   1     -16.584 -11.142  72.295  0.00  0.00    -0.383 N 
ATOM     27  H   S0G d   1     -16.974 -11.780  71.587  0.00  0.00     0.157 HD
ATOM     28  H   S0G d   1     -16.442 -11.470  73.261  0.00  0.00     0.157 HD
ENDBRANCH   2  26
BRANCH   6  29
ATOM     29  C11 S0G d   1     -15.522  -9.452  74.280  0.00  0.00    -0.008 C 
ATOM     30  H   S0G d   1     -15.838 -10.502  74.362  0.00  0.00     0.057 H 
ATOM     31  H   S0G d   1     -16.118  -8.835  74.969  0.00  0.00     0.057 H 
ATOM     32  H   S0G d   1     -14.457  -9.368  74.541  0.00  0.00     0.057 H 
ENDBRANCH   6  29
TORSDOF 3
