REMARK  2 active torsions:
REMARK  status: ('A' for Active; 'I' for Inactive)
REMARK    1  A    between atoms: C3_15  and  C7_10 
REMARK    2  A    between atoms: C3_15  and  N1_17 
ROOT
ATOM      1  C15 S0I d   1     -13.345  -5.324  59.127  0.00  0.00    -0.081 A 
ATOM      2  C11 S0I d   1     -13.378  -4.594  57.948  0.00  0.00    -0.081 A 
ATOM      3  C10 S0I d   1     -13.830  -6.623  59.092  0.00  0.00    -0.055 A 
ATOM      4  C6  S0I d   1     -13.880  -5.140  56.765  0.00  0.00    -0.055 A 
ATOM      5  C5  S0I d   1     -14.328  -7.146  57.891  0.00  0.00     0.061 A 
ATOM      6  C2  S0I d   1     -14.384  -6.442  56.698  0.00  0.00     0.058 A 
ATOM      7  C8  S0I d   1     -15.560  -8.986  56.825  0.00  0.00     0.240 C 
ATOM      8  C4  S0I d   1     -15.861  -8.159  55.567  0.00  0.00     0.069 C 
ATOM      9  N9  S0I d   1     -14.813  -8.453  57.862  0.00  0.00    -0.324 N 
ATOM     10  N1  S0I d   1     -14.882  -7.071  55.477  0.00  0.00    -0.366 N 
ATOM     11  O14 S0I d   1     -15.953 -10.127  56.996  0.00  0.00    -0.271 OA
ATOM     12  H   S0I d   1     -12.954  -4.895  60.043  0.00  0.00     0.083 H 
ATOM     13  H   S0I d   1     -13.005  -3.576  57.945  0.00  0.00     0.083 H 
ATOM     14  H   S0I d   1     -13.824  -7.231  59.989  0.00  0.00     0.087 H 
ATOM     15  H   S0I d   1     -13.879  -4.533  55.867  0.00  0.00     0.087 H 
ATOM     16  H   S0I d   1     -16.876  -7.740  55.633  0.00  0.00     0.078 H 
ATOM     17  H   S0I d   1     -15.786  -8.799  54.676  0.00  0.00     0.078 H 
ATOM     18  H   S0I d   1     -14.608  -9.045  58.642  0.00  0.00     0.169 HD
ENDROOT
BRANCH  10  19
ATOM     19  C3  S0I d   1     -14.976  -6.123  54.345  0.00  0.00     0.019 C 
ATOM     20  H   S0I d   1     -14.120  -5.437  54.426  0.00  0.00     0.071 H 
ATOM     21  H   S0I d   1     -14.886  -6.713  53.421  0.00  0.00     0.071 H 
BRANCH  19  22
ATOM     22  C7  S0I d   1     -16.215  -5.273  54.210  0.00  0.00    -0.040 A 
ATOM     23  C12 S0I d   1     -16.138  -4.066  53.516  0.00  0.00    -0.075 A 
ATOM     24  C16 S0I d   1     -17.304  -3.329  53.371  0.00  0.00    -0.082 A 
ATOM     25  H   S0I d   1     -15.199  -3.716  53.104  0.00  0.00     0.084 H 
ATOM     26  C18 S0I d   1     -18.529  -3.750  53.885  0.00  0.00    -0.083 A 
ATOM     27  H   S0I d   1     -17.261  -2.387  52.836  0.00  0.00     0.083 H 
ATOM     28  C17 S0I d   1     -18.597  -4.946  54.575  0.00  0.00    -0.082 A 
ATOM     29  H   S0I d   1     -19.419  -3.147  53.745  0.00  0.00     0.083 H 
ATOM     30  C13 S0I d   1     -17.436  -5.686  54.736  0.00  0.00    -0.075 A 
ATOM     31  H   S0I d   1     -19.538  -5.298  54.981  0.00  0.00     0.083 H 
ATOM     32  H   S0I d   1     -17.480  -6.617  55.290  0.00  0.00     0.084 H 
ENDBRANCH  19  22
ENDBRANCH  10  19
TORSDOF 2
