REMARK  6 active torsions:
REMARK  status: ('A' for Active; 'I' for Inactive)
REMARK    1  A    between atoms: C4_3  and  C14_4 
REMARK    2  A    between atoms: C2_5  and  C1_12 
REMARK    3  A    between atoms: C5_6  and  C6_13 
REMARK    4  A    between atoms: C17_7  and  N18_17 
REMARK    5  A    between atoms: C8_14  and  C9_11 
REMARK    6  A    between atoms: C8_14  and  N7_16 
ROOT
ATOM      1  C3  S0J d   1     -13.673  -3.551  59.768  0.00  0.00    -0.047 A 
ATOM      2  C4  S0J d   1     -13.746  -4.665  58.907  0.00  0.00     0.017 A 
ATOM      3  C2  S0J d   1     -14.839  -3.565  60.485  0.00  0.00     0.009 A 
ATOM      4  C5  S0J d   1     -14.934  -5.342  59.084  0.00  0.00     0.020 A 
ATOM      5  N7  S0J d   1     -15.582  -4.662  60.075  0.00  0.00    -0.351 N 
ATOM      6  H   S0J d   1     -12.860  -2.831  59.846  0.00  0.00     0.087 H 
ENDROOT
BRANCH   5   7
ATOM      7  C8  S0J d   1     -16.931  -5.053  60.505  0.00  0.00     0.024 C 
ATOM      8  H   S0J d   1     -17.605  -4.192  60.387  0.00  0.00     0.068 H 
ATOM      9  H   S0J d   1     -17.280  -5.882  59.871  0.00  0.00     0.068 H 
BRANCH   7  10
ATOM     10  C9  S0J d   1     -16.956  -5.495  61.939  0.00  0.00     0.054 C 
ATOM     11  C10 S0J d   1     -18.358  -5.480  62.501  0.00  0.00    -0.037 C 
ATOM     12  C11 S0J d   1     -18.599  -6.917  62.727  0.00  0.00    -0.043 C 
ATOM     13  H   S0J d   1     -18.408  -4.911  63.441  0.00  0.00     0.036 H 
ATOM     14  H   S0J d   1     -19.075  -5.061  61.780  0.00  0.00     0.036 H 
ATOM     15  C12 S0J d   1     -17.758  -7.523  61.644  0.00  0.00     0.020 C 
ATOM     16  H   S0J d   1     -19.662  -7.173  62.604  0.00  0.00     0.036 H 
ATOM     17  H   S0J d   1     -18.260  -7.231  63.725  0.00  0.00     0.036 H 
ATOM     18  O13 S0J d   1     -16.531  -6.819  61.811  0.00  0.00    -0.384 OA
ATOM     19  H   S0J d   1     -18.192  -7.343  60.650  0.00  0.00     0.074 H 
ATOM     20  H   S0J d   1     -17.625  -8.604  61.796  0.00  0.00     0.074 H 
ATOM     21  H   S0J d   1     -16.283  -4.894  62.568  0.00  0.00     0.085 H 
ENDBRANCH   7  10
ENDBRANCH   5   7
BRANCH   3  22
ATOM     22  C1  S0J d   1     -15.228  -2.586  61.517  0.00  0.00    -0.037 C 
ATOM     23  H   S0J d   1     -14.436  -1.830  61.622  0.00  0.00     0.035 H 
ATOM     24  H   S0J d   1     -15.371  -3.103  62.477  0.00  0.00     0.035 H 
ATOM     25  H   S0J d   1     -16.167  -2.095  61.221  0.00  0.00     0.035 H 
ENDBRANCH   3  22
BRANCH   4  26
ATOM     26  C6  S0J d   1     -15.494  -6.553  58.423  0.00  0.00    -0.036 C 
ATOM     27  H   S0J d   1     -14.787  -6.915  57.662  0.00  0.00     0.035 H 
ATOM     28  H   S0J d   1     -16.451  -6.300  57.943  0.00  0.00     0.035 H 
ATOM     29  H   S0J d   1     -15.658  -7.339  59.175  0.00  0.00     0.035 H 
ENDBRANCH   4  26
BRANCH   2  30
ATOM     30  C14 S0J d   1     -12.761  -4.914  57.903  0.00  0.00     0.078 A 
ATOM     31  C15 S0J d   1     -11.537  -4.300  57.784  0.00  0.00    -0.013 A 
ATOM     32  S16 S0J d   1     -10.811  -4.899  56.350  0.00  0.00    -0.062 SA
ATOM     33  H   S0J d   1     -11.109  -3.571  58.471  0.00  0.00     0.098 H 
ATOM     34  C17 S0J d   1     -12.183  -5.872  56.010  0.00  0.00     0.164 A 
ATOM     35  N19 S0J d   1     -13.128  -5.784  56.910  0.00  0.00    -0.224 NA
BRANCH  34  36
ATOM     36  N18 S0J d   1     -12.248  -6.638  54.916  0.00  0.00    -0.378 N 
ATOM     37  H   S0J d   1     -13.085  -7.212  54.738  0.00  0.00     0.158 HD
ATOM     38  H   S0J d   1     -11.461  -6.654  54.251  0.00  0.00     0.158 HD
ENDBRANCH  34  36
ENDBRANCH   2  30
TORSDOF 6
