REMARK  3 active torsions:
REMARK  status: ('A' for Active; 'I' for Inactive)
REMARK    1  A    between atoms: C10_11  and  C14_8 
REMARK    2  A    between atoms: N3_16  and  C1_9 
REMARK    3  A    between atoms: C2_10  and  N5_17 
REMARK       I    between atoms: N5_17  and  C10_11 
ROOT
ATOM      1  C9  S0K d   1     -18.546  -3.783  53.394  0.00  0.00    -0.081 A 
ATOM      2  C11 S0K d   1     -19.093  -4.717  54.246  0.00  0.00    -0.081 A 
ATOM      3  C4  S0K d   1     -17.185  -3.658  53.305  0.00  0.00    -0.060 A 
ATOM      4  C6  S0K d   1     -18.288  -5.528  55.006  0.00  0.00    -0.055 A 
ATOM      5  C1  S0K d   1     -16.373  -4.479  54.066  0.00  0.00     0.037 A 
ATOM      6  C2  S0K d   1     -16.914  -5.419  54.921  0.00  0.00     0.056 A 
ATOM      7  H   S0K d   1     -19.191  -3.149  52.796  0.00  0.00     0.083 H 
ATOM      8  H   S0K d   1     -20.171  -4.812  54.317  0.00  0.00     0.083 H 
ATOM      9  H   S0K d   1     -16.747  -2.920  52.642  0.00  0.00     0.086 H 
ATOM     10  H   S0K d   1     -18.732  -6.256  55.675  0.00  0.00     0.087 H 
ENDROOT
BRANCH   5  11
ATOM     11  N3  S0K d   1     -14.991  -4.358  53.967  0.00  0.00    -0.278 NA
ATOM     12  C7  S0K d   1     -14.630  -2.990  53.672  0.00  0.00     0.004 C 
ATOM     13  C12 S0K d   1     -13.183  -2.905  54.022  0.00  0.00     0.031 C 
ATOM     14  H   S0K d   1     -14.787  -2.767  52.606  0.00  0.00     0.059 H 
ATOM     15  H   S0K d   1     -15.220  -2.291  54.283  0.00  0.00     0.059 H 
ATOM     16  O16 S0K d   1     -12.526  -3.898  53.254  0.00  0.00    -0.389 OA
ATOM     17  H   S0K d   1     -13.039  -3.098  55.095  0.00  0.00     0.076 H 
ATOM     18  H   S0K d   1     -12.789  -1.909  53.772  0.00  0.00     0.076 H 
ATOM     19  C13 S0K d   1     -12.893  -5.270  53.493  0.00  0.00     0.031 C 
ATOM     20  C8  S0K d   1     -14.372  -5.441  53.227  0.00  0.00     0.004 C 
ATOM     21  H   S0K d   1     -12.320  -5.927  52.822  0.00  0.00     0.076 H 
ATOM     22  H   S0K d   1     -12.674  -5.533  54.538  0.00  0.00     0.076 H 
ATOM     23  H   S0K d   1     -14.725  -6.416  53.594  0.00  0.00     0.059 H 
ATOM     24  H   S0K d   1     -14.588  -5.353  52.152  0.00  0.00     0.059 H 
ENDBRANCH   5  11
BRANCH   6  25
ATOM     25  N5  S0K d   1     -16.089  -6.258  55.698  0.00  0.00    -0.321 N 
ATOM     26  C10 S0K d   1     -16.256  -7.618  55.615  0.00  0.00     0.256 C 
ATOM     27  O15 S0K d   1     -16.983  -8.238  54.822  0.00  0.00    -0.267 OA
ATOM     28  H   S0K d   1     -15.393  -5.868  56.300  0.00  0.00     0.169 HD
BRANCH  26  29
ATOM     29  C14 S0K d   1     -15.533  -8.276  56.650  0.00  0.00     0.039 A 
ATOM     30  C17 S0K d   1     -14.878  -7.673  57.766  0.00  0.00    -0.061 A 
ATOM     31  C19 S0K d   1     -14.270  -8.603  58.602  0.00  0.00    -0.044 A 
ATOM     32  H   S0K d   1     -14.857  -6.599  57.944  0.00  0.00     0.085 H 
ATOM     33  S20 S0K d   1     -14.524 -10.230  58.047  0.00  0.00    -0.113 SA
ATOM     34  H   S0K d   1     -13.704  -8.344  59.495  0.00  0.00     0.095 H 
ATOM     35  C18 S0K d   1     -15.425  -9.652  56.684  0.00  0.00    -0.030 A 
ATOM     36  H   S0K d   1     -15.861 -10.307  55.931  0.00  0.00     0.096 H 
ENDBRANCH  26  29
ENDBRANCH   6  25
TORSDOF 3
