REMARK  5 active torsions:
REMARK  status: ('A' for Active; 'I' for Inactive)
REMARK    1  A    between atoms: C23_5  and  C28_7 
REMARK    2  A    between atoms: O19_30  and  C20_6 
REMARK       I    between atoms: C26_8  and  N18_25 
REMARK       I    between atoms: N11_26  and  C26_8 
REMARK    3  A    between atoms: N18_25  and  C13_22 
REMARK    4  A    between atoms: C16_23  and  O19_30 
REMARK    5  A    between atoms: C7_24  and  N11_26 
ROOT
ATOM      1  C26 AUB d   1     -17.264  -8.095  64.659  0.00  0.00     0.317 C 
ATOM      2  N18 AUB d   1     -17.825  -8.286  65.879  0.00  0.00    -0.339 N 
ATOM      3  N11 AUB d   1     -17.750  -6.993  63.980  0.00  0.00    -0.334 N 
ATOM      4  O27 AUB d   1     -16.416  -8.864  64.250  0.00  0.00    -0.247 OA
ATOM      5  H   AUB d   1     -18.607  -7.739  66.177  0.00  0.00     0.164 HD
ATOM      6  H   AUB d   1     -18.566  -6.540  64.339  0.00  0.00     0.165 HD
ENDROOT
BRANCH   2   7
ATOM      7  C13 AUB d   1     -17.264  -9.295  66.730  0.00  0.00     0.014 C 
ATOM      8  C14 AUB d   1     -18.377 -10.234  67.155  0.00  0.00    -0.044 C 
ATOM      9  C15 AUB d   1     -18.076 -11.065  68.386  0.00  0.00    -0.038 C 
ATOM     10  H   AUB d   1     -19.273  -9.630  67.361  0.00  0.00     0.036 H 
ATOM     11  H   AUB d   1     -18.581 -10.921  66.321  0.00  0.00     0.036 H 
ATOM     12  C16 AUB d   1     -17.342 -10.325  69.502  0.00  0.00     0.045 C 
ATOM     13  H   AUB d   1     -17.455 -11.919  68.078  0.00  0.00     0.036 H 
ATOM     14  H   AUB d   1     -19.030 -11.433  68.791  0.00  0.00     0.036 H 
ATOM     15  C17 AUB d   1     -16.168  -9.573  68.928  0.00  0.00    -0.038 C 
ATOM     16  H   AUB d   1     -18.021  -9.644  70.035  0.00  0.00     0.084 H 
ATOM     17  C12 AUB d   1     -16.645  -8.575  67.911  0.00  0.00    -0.044 C 
ATOM     18  H   AUB d   1     -15.642  -9.045  69.737  0.00  0.00     0.036 H 
ATOM     19  H   AUB d   1     -15.480 -10.284  68.446  0.00  0.00     0.036 H 
ATOM     20  H   AUB d   1     -15.793  -7.972  67.564  0.00  0.00     0.036 H 
ATOM     21  H   AUB d   1     -17.397  -7.917  68.371  0.00  0.00     0.036 H 
ATOM     22  H   AUB d   1     -16.490  -9.864  66.194  0.00  0.00     0.072 H 
BRANCH  12  23
ATOM     23  O19 AUB d   1     -16.812 -11.322  70.373  0.00  0.00    -0.346 OA
BRANCH  23  24
ATOM     24  C20 AUB d   1     -16.612 -10.907  71.678  0.00  0.00     0.069 A 
ATOM     25  C21 AUB d   1     -16.902  -9.639  72.125  0.00  0.00    -0.050 A 
ATOM     26  C22 AUB d   1     -16.667  -9.311  73.441  0.00  0.00    -0.064 A 
ATOM     27  H   AUB d   1     -17.313  -8.902  71.445  0.00  0.00     0.087 H 
ATOM     28  C23 AUB d   1     -16.136 -10.255  74.287  0.00  0.00     0.041 A 
ATOM     29  H   AUB d   1     -16.899  -8.317  73.807  0.00  0.00     0.085 H 
ATOM     30  C24 AUB d   1     -15.834 -11.526  73.856  0.00  0.00    -0.064 A 
ATOM     31  C25 AUB d   1     -16.081 -11.840  72.540  0.00  0.00    -0.050 A 
ATOM     32  H   AUB d   1     -15.413 -12.259  74.534  0.00  0.00     0.085 H 
ATOM     33  H   AUB d   1     -15.854 -12.836  72.176  0.00  0.00     0.087 H 
BRANCH  28  34
ATOM     34  C28 AUB d   1     -15.907  -9.875  75.679  0.00  0.00     0.209 C 
ATOM     35  O29 AUB d   1     -16.441  -8.912  76.210  0.00  0.00    -0.644 OA
ATOM     36  O30 AUB d   1     -15.067 -10.781  76.238  0.00  0.00    -0.644 OA
ENDBRANCH  28  34
ENDBRANCH  23  24
ENDBRANCH  12  23
ENDBRANCH   2   7
BRANCH   3  37
ATOM     37  C7  AUB d   1     -17.144  -6.456  62.777  0.00  0.00     0.035 C 
ATOM     38  C2  AUB d   1     -17.285  -7.425  61.606  0.00  0.00    -0.038 C 
ATOM     39  C1  AUB d   1     -16.637  -6.837  60.348  0.00  0.00    -0.051 C 
ATOM     40  H   AUB d   1     -16.790  -8.374  61.859  0.00  0.00     0.037 H 
ATOM     41  H   AUB d   1     -18.352  -7.608  61.413  0.00  0.00     0.037 H 
ATOM     42  C6  AUB d   1     -17.346  -5.535  60.004  0.00  0.00    -0.058 C 
ATOM     43  C9  AUB d   1     -15.161  -6.530  60.602  0.00  0.00    -0.058 C 
ATOM     44  H   AUB d   1     -16.730  -7.550  59.515  0.00  0.00     0.040 H 
ATOM     45  C5  AUB d   1     -17.201  -4.566  61.162  0.00  0.00    -0.051 C 
ATOM     46  H   AUB d   1     -18.413  -5.734  59.822  0.00  0.00     0.034 H 
ATOM     47  H   AUB d   1     -16.895  -5.098  59.101  0.00  0.00     0.034 H 
ATOM     48  C4  AUB d   1     -15.721  -4.254  61.389  0.00  0.00    -0.058 C 
ATOM     49  C10 AUB d   1     -17.859  -5.171  62.402  0.00  0.00    -0.038 C 
ATOM     50  H   AUB d   1     -17.720  -3.628  60.913  0.00  0.00     0.040 H 
ATOM     51  C3  AUB d   1     -15.007  -5.546  61.753  0.00  0.00    -0.051 C 
ATOM     52  H   AUB d   1     -15.616  -3.528  62.209  0.00  0.00     0.034 H 
ATOM     53  H   AUB d   1     -15.285  -3.835  60.470  0.00  0.00     0.034 H 
ATOM     54  C8  AUB d   1     -15.655  -6.151  62.998  0.00  0.00    -0.038 C 
ATOM     55  H   AUB d   1     -13.942  -5.347  61.942  0.00  0.00     0.040 H 
ATOM     56  H   AUB d   1     -15.557  -5.439  63.831  0.00  0.00     0.037 H 
ATOM     57  H   AUB d   1     -15.134  -7.086  63.251  0.00  0.00     0.037 H 
ATOM     58  H   AUB d   1     -18.916  -5.388  62.187  0.00  0.00     0.037 H 
ATOM     59  H   AUB d   1     -17.794  -4.458  63.237  0.00  0.00     0.037 H 
ATOM     60  H   AUB d   1     -14.721  -6.094  59.693  0.00  0.00     0.034 H 
ATOM     61  H   AUB d   1     -14.636  -7.463  60.852  0.00  0.00     0.034 H 
ENDBRANCH   3  37
TORSDOF 5
