REMARK  3 active torsions:
REMARK  status: ('A' for Active; 'I' for Inactive)
REMARK    1  A    between atoms: C02_2  and  N03_3 
REMARK    2  A    between atoms: N03_3  and  C04_4 
REMARK    3  A    between atoms: C04_4  and  C05_5 
ROOT
ATOM      1  C05 9BE d   1       8.213 -11.927  -2.988  0.00  0.00    -0.041 A 
ATOM      2  C06 9BE d   1       7.238 -11.435  -3.857  0.00  0.00    -0.075 A 
ATOM      3  C07 9BE d   1       6.116 -12.214  -4.169  0.00  0.00    -0.082 A 
ATOM      4  C08 9BE d   1       5.978 -13.478  -3.623  0.00  0.00    -0.083 A 
ATOM      5  C09 9BE d   1       6.956 -13.969  -2.751  0.00  0.00    -0.082 A 
ATOM      6  C10 9BE d   1       8.069 -13.197  -2.435  0.00  0.00    -0.075 A 
ATOM      7  H5  9BE d   1       7.349 -10.448  -4.292  0.00  0.00     0.084 H 
ATOM      8  H6  9BE d   1       5.356 -11.827  -4.838  0.00  0.00     0.083 H 
ATOM      9  H7  9BE d   1       5.115 -14.086  -3.870  0.00  0.00     0.083 H 
ATOM     10  H8  9BE d   1       6.846 -14.957  -2.319  0.00  0.00     0.083 H 
ATOM     11  H9  9BE d   1       8.823 -13.583  -1.759  0.00  0.00     0.084 H 
ENDROOT
BRANCH   1  12
ATOM     12  C04 9BE d   1       9.443 -11.084  -2.657  0.00  0.00     0.016 C 
ATOM     13  H3  9BE d   1       9.717 -11.236  -1.603  0.00  0.00     0.071 H 
ATOM     14  H4  9BE d   1      10.280 -11.390  -3.301  0.00  0.00     0.071 H 
BRANCH  12  15
ATOM     15  N03 9BE d   1       9.148  -9.681  -2.882  0.00  0.00    -0.386 N 
ATOM     16  H2  9BE d   1       8.477  -9.217  -2.304  0.00  0.00     0.160 HD
BRANCH  15  17
ATOM     17  C02 9BE d   1       9.805  -8.959  -3.918  0.00  0.00     0.036 C 
ATOM     18  S01 9BE d   1      10.911  -9.731  -4.911  0.00  0.00    -0.075 SA
ATOM     19  H1  9BE d   1       9.588  -7.902  -4.065  0.00  0.00     0.129 H 
ENDBRANCH  15  17
ENDBRANCH  12  15
ENDBRANCH   1  12
TORSDOF 3
