REMARK  3 active torsions:
REMARK  status: ('A' for Active; 'I' for Inactive)
REMARK    1  A    between atoms: C6_1  and  C5_2 
REMARK    2  A    between atoms: C6_1  and  N1_5 
REMARK    3  A    between atoms: N1_5  and  C1_4 
ROOT
ATOM      1  C6  9AI d   1      30.260  17.205 102.397  0.00  0.00     0.007 C 
ATOM      2  H1  9AI d   1      31.233  17.425 102.861  0.00  0.00     0.070 H 
ATOM      3  H2  9AI d   1      29.452  17.565 103.051  0.00  0.00     0.070 H 
ENDROOT
BRANCH   1   4
ATOM      4  C5  9AI d   1      30.122  15.746 102.174  0.00  0.00    -0.095 C 
ATOM      5  C4  9AI d   1      29.052  14.970 102.619  0.00  0.00    -0.123 C 
ATOM      6  H4  9AI d   1      29.031  13.901 102.411  0.00  0.00     0.066 H 
ATOM      7  H5  9AI d   1      28.238  15.433 103.175  0.00  0.00     0.066 H 
ATOM      8  H3  9AI d   1      30.915  15.243 101.622  0.00  0.00     0.078 H 
ENDBRANCH   1   4
BRANCH   1   9
ATOM      9  N1  9AI d   1      30.171  17.850 101.088  0.00  0.00    -0.387 N 
ATOM     10  H7  9AI d   1      29.528  17.465 100.426  0.00  0.00     0.159 HD
BRANCH   9  11
ATOM     11  C1  9AI d   1      30.929  18.984 100.683  0.00  0.00     0.036 C 
ATOM     12  S6  9AI d   1      31.988  19.658 101.724  0.00  0.00    -0.075 SA
ATOM     13  H6  9AI d   1      30.803  19.399  99.684  0.00  0.00     0.129 H 
ENDBRANCH   9  11
ENDBRANCH   1   9
TORSDOF 3
