REMARK  3 active torsions:
REMARK  status: ('A' for Active; 'I' for Inactive)
REMARK    1  A    between atoms: C02_2  and  N03_3 
REMARK    2  A    between atoms: N03_3  and  C04_4 
REMARK    3  A    between atoms: C04_4  and  C05_5 
ROOT
ATOM      1  C05 9BE d   1      34.827 -13.091  -7.402  0.00  0.00    -0.041 A 
ATOM      2  C06 9BE d   1      35.261 -11.792  -7.200  0.00  0.00    -0.075 A 
ATOM      3  C07 9BE d   1      34.323 -10.802  -6.893  0.00  0.00    -0.082 A 
ATOM      4  C08 9BE d   1      32.985 -11.119  -6.822  0.00  0.00    -0.083 A 
ATOM      5  C09 9BE d   1      32.559 -12.438  -7.037  0.00  0.00    -0.082 A 
ATOM      6  C10 9BE d   1      33.477 -13.411  -7.350  0.00  0.00    -0.075 A 
ATOM      7  H5  9BE d   1      36.314 -11.546  -7.279  0.00  0.00     0.084 H 
ATOM      8  H6  9BE d   1      34.649  -9.784  -6.711  0.00  0.00     0.083 H 
ATOM      9  H7  9BE d   1      32.258 -10.346  -6.599  0.00  0.00     0.083 H 
ATOM     10  H8  9BE d   1      31.508 -12.689  -6.956  0.00  0.00     0.083 H 
ATOM     11  H9  9BE d   1      33.149 -14.424  -7.555  0.00  0.00     0.084 H 
ENDROOT
BRANCH   1  12
ATOM     12  C04 9BE d   1      35.864 -14.127  -7.762  0.00  0.00     0.016 C 
ATOM     13  H3  9BE d   1      36.730 -14.073  -7.085  0.00  0.00     0.071 H 
ATOM     14  H4  9BE d   1      35.438 -15.141  -7.733  0.00  0.00     0.071 H 
BRANCH  12  15
ATOM     15  N03 9BE d   1      36.232 -13.756  -9.108  0.00  0.00    -0.386 N 
ATOM     16  H2  9BE d   1      35.564 -13.224  -9.629  0.00  0.00     0.160 HD
BRANCH  15  17
ATOM     17  C02 9BE d   1      37.447 -14.073  -9.760  0.00  0.00     0.036 C 
ATOM     18  S01 9BE d   1      38.633 -14.977  -9.006  0.00  0.00    -0.075 SA
ATOM     19  H1  9BE d   1      37.613 -13.720 -10.777  0.00  0.00     0.129 H 
ENDBRANCH  15  17
ENDBRANCH  12  15
ENDBRANCH   1  12
TORSDOF 3
