REMARK WARNING: 32 MAX_TORS EXCEEDED!!!
REMARK  79 active torsions:
REMARK  status: ('A' for Active; 'I' for Inactive)
REMARK    1  A    between atoms: N_1  and  CA_2 
REMARK    2  A    between atoms: CA_2  and  C_3 
REMARK    3  A    between atoms: CA_2  and  CB_5 
REMARK       I    between atoms: C_3  and  N_6 
REMARK    4  A    between atoms: N_6  and  CA_7 
REMARK    5  A    between atoms: CA_7  and  C_8 
REMARK    6  A    between atoms: CA_7  and  CB_10 
REMARK       I    between atoms: C_8  and  N_12 
REMARK    7  A    between atoms: CB_10  and  OG_11 
REMARK    8  A    between atoms: N_12  and  CA_13 
REMARK    9  A    between atoms: CA_13  and  C_14 
REMARK   10  A    between atoms: CA_13  and  CB_16 
REMARK       I    between atoms: C_14  and  N_23 
REMARK   11  A    between atoms: CB_16  and  CG_17 
REMARK   12  A    between atoms: CG_17  and  CD_18 
REMARK   13  A    between atoms: CD_18  and  NE_19 
REMARK       I    between atoms: NE_19  and  CZ_20 
REMARK       I    between atoms: CZ_20  and  NH1_21 
REMARK       I    between atoms: CZ_20  and  NH2_22 
REMARK   14  A    between atoms: N_23  and  CA_24 
REMARK   15  A    between atoms: CA_24  and  C_25 
REMARK   16  A    between atoms: CA_24  and  CB_27 
REMARK       I    between atoms: C_25  and  N_30 
REMARK   17  A    between atoms: CB_27  and  CG1_28 
REMARK   18  A    between atoms: CB_27  and  CG2_29 
REMARK   19  A    between atoms: N_30  and  CA_31 
REMARK   20  A    between atoms: CA_31  and  C_32 
REMARK   21  A    between atoms: CA_31  and  CB_34 
REMARK       I    between atoms: C_32  and  N_39 
REMARK   22  A    between atoms: CB_34  and  CG_35 
REMARK   23  A    between atoms: CG_35  and  CD_36 
REMARK   24  A    between atoms: CD_36  and  CE_37 
REMARK   25  A    between atoms: CE_37  and  NZ_38 
REMARK   26  A    between atoms: N_39  and  CA_40 
REMARK   27  A    between atoms: CA_40  and  CB_41 
REMARK   28  A    between atoms: CA_40  and  C_43 
REMARK   29  A    between atoms: CB_41  and  OG_42 
REMARK   30  A    between atoms: OG_42  and  P_45 
REMARK       I    between atoms: C_43  and  N_49 
REMARK   31  A    between atoms: N_49  and  CA_50 
REMARK   32  A    between atoms: CA_50  and  C_51 
REMARK   33  A    between atoms: CA_50  and  CB_53 
REMARK       I    between atoms: C_51  and  N_57 
REMARK   34  A    between atoms: CB_53  and  CG_54 
REMARK   35  A    between atoms: CG_54  and  CD1_55 
REMARK   36  A    between atoms: CG_54  and  CD2_56 
REMARK   37  A    between atoms: N_57  and  CA_58 
REMARK   38  A    between atoms: CA_58  and  C_59 
REMARK   39  A    between atoms: CA_58  and  CB_61 
REMARK       I    between atoms: C_59  and  N_66 
REMARK   40  A    between atoms: CB_61  and  CG_62 
REMARK   41  A    between atoms: CG_62  and  CD_63 
REMARK   42  A    between atoms: CD_63  and  CE_64 
REMARK   43  A    between atoms: CE_64  and  NZ_65 
REMARK   44  A    between atoms: N_66  and  CA_67 
REMARK   45  A    between atoms: CA_67  and  C_68 
REMARK   46  A    between atoms: CA_67  and  CB_70 
REMARK       I    between atoms: C_68  and  N_75 
REMARK   47  A    between atoms: CB_70  and  CG_71 
REMARK   48  A    between atoms: CG_71  and  CD_72 
REMARK   49  A    between atoms: CD_72  and  CE_73 
REMARK   50  A    between atoms: CE_73  and  NZ_74 
REMARK   51  A    between atoms: N_75  and  CA_76 
REMARK   52  A    between atoms: CA_76  and  C_77 
REMARK   53  A    between atoms: CA_76  and  CB_79 
REMARK       I    between atoms: C_77  and  N_81 
REMARK   54  A    between atoms: CB_79  and  OG_80 
REMARK   55  A    between atoms: N_81  and  CA_82 
REMARK   56  A    between atoms: CA_82  and  C_83 
REMARK   57  A    between atoms: CA_82  and  CB_85 
REMARK       I    between atoms: C_83  and  N_89 
REMARK   58  A    between atoms: CB_85  and  CG_86 
REMARK   59  A    between atoms: CG_86  and  CD1_87 
REMARK   60  A    between atoms: CG_86  and  CD2_88 
REMARK   61  A    between atoms: N_89  and  CA_90 
REMARK   62  A    between atoms: CA_90  and  C_91 
REMARK   63  A    between atoms: CA_90  and  CB_93 
REMARK       I    between atoms: C_91  and  N_100 
REMARK   64  A    between atoms: CB_93  and  CG_94 
REMARK   65  A    between atoms: CG_94  and  CD_95 
REMARK   66  A    between atoms: CD_95  and  NE_96 
REMARK       I    between atoms: NE_96  and  CZ_97 
REMARK       I    between atoms: CZ_97  and  NH1_98 
REMARK   67  A    between atoms: N_100  and  CA_101 
REMARK   68  A    between atoms: CA_101  and  C_102 
REMARK   69  A    between atoms: CA_101  and  CB_104 
REMARK       I    between atoms: C_102  and  N_109 
REMARK   70  A    between atoms: CB_104  and  CG_105 
REMARK   71  A    between atoms: CG_105  and  CD_106 
REMARK       I    between atoms: CD_106  and  NE2_108 
REMARK   72  A    between atoms: N_109  and  CA_110 
REMARK   73  A    between atoms: CA_110  and  C_111 
REMARK   74  A    between atoms: CA_110  and  CB_113 
REMARK       I    between atoms: C_111  and  N_115 
REMARK   75  A    between atoms: CB_113  and  OG_114 
REMARK   76  A    between atoms: N_115  and  CA_116 
REMARK   77  A    between atoms: CA_116  and  C_117 
REMARK   78  A    between atoms: CA_116  and  CB_119 
REMARK   79  A    between atoms: CB_119  and  CG_120 
ROOT
ATOM      1  CA  LYS d   1      29.184 -33.970   9.093  0.00  0.00     0.089 C 
ATOM      2  H   LYS d   1      29.564 -33.247   8.357  0.00  0.00     0.087 H 
ENDROOT
BRANCH   1   3
ATOM      3  N   LYS d   1      28.753 -35.165   8.354  0.00  0.00    -0.346 N 
ATOM      4  C   LEU d   1      29.576 -35.754   7.497  0.00  0.00     0.241 C 
ATOM      5  O   LEU d   1      30.724 -35.314   7.232  0.00  0.00    -0.271 OA
ATOM      6  H   LYS d   1      27.835 -35.535   8.498  0.00  0.00     0.163 HD
BRANCH   4   7
ATOM      7  CA  LEU d   1      29.039 -37.005   6.815  0.00  0.00     0.089 C 
ATOM      8  H   LEU d   1      29.882 -37.561   6.380  0.00  0.00     0.087 H 
BRANCH   7   9
ATOM      9  N   LEU d   1      28.383 -37.861   7.800  0.00  0.00    -0.346 N 
ATOM     10  C   SEP d   1      29.089 -38.348   8.815  0.00  0.00     0.243 C 
ATOM     11  O   SEP d   1      30.302 -38.124   8.935  0.00  0.00    -0.271 OA
ATOM     12  H   LEU d   1      27.411 -38.079   7.711  0.00  0.00     0.163 HD
BRANCH  10  13
ATOM     13  CA  SEP d   1      28.337 -39.214   9.866  0.00  0.00     0.110 C 
ATOM     14  H   SEP d   1      28.909 -39.185  10.805  0.00  0.00     0.090 H 
BRANCH  13  15
ATOM     15  N   SEP d   1      26.996 -38.715  10.127  0.00  0.00    -0.344 N 
ATOM     16  C   LYS d   1      26.775 -37.509  10.638  0.00  0.00     0.241 C 
ATOM     17  O   LYS d   1      27.681 -36.697  10.878  0.00  0.00    -0.271 OA
ATOM     18  H   SEP d   1      26.213 -39.300   9.914  0.00  0.00     0.163 HD
BRANCH  16  19
ATOM     19  CA  LYS d   1      25.316 -37.176  10.940  0.00  0.00     0.089 C 
ATOM     20  H   LYS d   1      24.798 -38.119  11.169  0.00  0.00     0.087 H 
BRANCH  19  21
ATOM     21  N   LYS d   1      25.201 -36.306  12.113  0.00  0.00    -0.346 N 
ATOM     22  C   VAL d   1      25.720 -36.674  13.281  0.00  0.00     0.241 C 
ATOM     23  O   VAL d   1      26.243 -37.792  13.449  0.00  0.00    -0.271 OA
ATOM     24  H   LYS d   1      24.728 -35.428  12.035  0.00  0.00     0.163 HD
BRANCH  22  25
ATOM     25  CA  VAL d   1      25.604 -35.674  14.447  0.00  0.00     0.092 C 
ATOM     26  H   VAL d   1      24.822 -34.938  14.210  0.00  0.00     0.088 H 
BRANCH  25  27
ATOM     27  N   VAL d   1      25.233 -36.386  15.659  0.00  0.00    -0.346 N 
ATOM     28  C   ARG d   1      24.068 -37.016  15.831  0.00  0.00     0.241 C 
ATOM     29  O   ARG d   1      23.162 -37.035  14.984  0.00  0.00    -0.271 OA
ATOM     30  H   VAL d   1      25.892 -36.405  16.411  0.00  0.00     0.163 HD
BRANCH  28  31
ATOM     31  CA  ARG d   1      23.930 -37.732  17.167  0.00  0.00     0.089 C 
ATOM     32  H   ARG d   1      24.608 -38.598  17.144  0.00  0.00     0.087 H 
BRANCH  31  33
ATOM     33  N   ARG d   1      24.353 -36.869  18.266  0.00  0.00    -0.346 N 
ATOM     34  C   SER d   1      23.810 -35.671  18.460  0.00  0.00     0.243 C 
ATOM     35  O   SER d   1      22.942 -35.194  17.722  0.00  0.00    -0.271 OA
ATOM     36  H   ARG d   1      25.069 -37.187  18.888  0.00  0.00     0.163 HD
BRANCH  34  37
ATOM     37  CA  SER d   1      24.306 -34.881  19.666  0.00  0.00     0.109 C 
ATOM     38  H   SER d   1      25.357 -35.138  19.866  0.00  0.00     0.090 H 
BRANCH  37  39
ATOM     39  N   SER d   1      24.211 -33.461  19.364  0.00  0.00    -0.344 N 
ATOM     40  C   LEU d   1      25.295 -32.691  19.295  0.00  0.00     0.248 C 
ATOM     41  O   LEU d   1      26.404 -33.034  19.741  0.00  0.00    -0.271 OA
ATOM     42  H   SER d   1      23.311 -33.054  19.205  0.00  0.00     0.163 HD
BRANCH  40  43
ATOM     43  CA  LEU d   1      25.094 -31.325  18.632  0.00  0.00     0.172 C 
ATOM     44  H   LEU d   1      24.535 -31.488  17.698  0.00  0.00     0.098 H 
BRANCH  43  45
ATOM     45  N   LEU d   1      24.302 -30.424  19.465  0.00  0.00    -0.067 N 
ATOM     46  H   LEU d   1      24.193 -29.539  18.994  0.00  0.00     0.275 HD
ATOM     47  H   LEU d   1      24.771 -30.280  20.345  0.00  0.00     0.275 HD
ATOM     48  H   LEU d   1      23.394 -30.830  19.631  0.00  0.00     0.275 HD
ENDBRANCH  43  45
BRANCH  43  49
ATOM     49  CB  LEU d   1      26.449 -30.698  18.264  0.00  0.00    -0.042 C 
ATOM     50  H   LEU d   1      27.020 -31.400  17.638  0.00  0.00     0.030 H 
ATOM     51  H   LEU d   1      27.015 -30.482  19.182  0.00  0.00     0.030 H 
ATOM     52  H   LEU d   1      26.282 -29.764  17.708  0.00  0.00     0.030 H 
ENDBRANCH  43  49
ENDBRANCH  40  43
ENDBRANCH  37  39
BRANCH  37  53
ATOM     53  CB  SER d   1      23.468 -35.237  20.884  0.00  0.00     0.044 C 
ATOM     54  H   SER d   1      23.329 -36.328  20.925  0.00  0.00     0.077 H 
ATOM     55  H   SER d   1      22.487 -34.745  20.807  0.00  0.00     0.077 H 
BRANCH  53  56
ATOM     56  OG  SER d   1      24.116 -34.805  22.059  0.00  0.00    -0.398 OA
ATOM     57  H   SER d   1      23.585 -35.032  22.814  0.00  0.00     0.209 HD
ENDBRANCH  53  56
ENDBRANCH  37  53
ENDBRANCH  34  37
ENDBRANCH  31  33
BRANCH  31  58
ATOM     58  CB  ARG d   1      22.511 -38.270  17.410  0.00  0.00    -0.036 C 
ATOM     59  H   ARG d   1      22.167 -38.793  16.506  0.00  0.00     0.036 H 
ATOM     60  H   ARG d   1      21.840 -37.425  17.622  0.00  0.00     0.036 H 
BRANCH  58  61
ATOM     61  CG  ARG d   1      22.475 -39.227  18.572  0.00  0.00    -0.048 C 
ATOM     62  H   ARG d   1      22.890 -38.718  19.454  0.00  0.00     0.035 H 
ATOM     63  H   ARG d   1      23.099 -40.098  18.324  0.00  0.00     0.035 H 
BRANCH  61  64
ATOM     64  CD  ARG d   1      21.053 -39.729  18.921  0.00  0.00     0.009 C 
ATOM     65  H   ARG d   1      21.116 -40.368  19.814  0.00  0.00     0.064 H 
ATOM     66  H   ARG d   1      20.671 -40.318  18.074  0.00  0.00     0.064 H 
BRANCH  64  67
ATOM     67  NE  ARG d   1      20.116 -38.642  19.192  0.00  0.00    -0.227 N 
ATOM     68  CZ  ARG d   1      20.053 -37.941  20.327  0.00  0.00     0.665 C 
ATOM     69  NH1 ARG d   1      20.891 -38.180  21.348  0.00  0.00    -0.235 N 
ATOM     70  NH2 ARG d   1      19.135 -36.983  20.450  0.00  0.00    -0.235 N 
ATOM     71  H   ARG d   1      20.821 -37.625  22.213  0.00  0.00     0.174 HD
ATOM     72  H   ARG d   1      21.604 -38.919  21.267  0.00  0.00     0.174 HD
ATOM     73  H   ARG d   1      18.486 -36.789  19.674  0.00  0.00     0.174 HD
ATOM     74  H   ARG d   1      19.075 -36.436  21.321  0.00  0.00     0.174 HD
ATOM     75  H   ARG d   1      19.449 -38.396  18.447  0.00  0.00     0.177 HD
ENDBRANCH  64  67
ENDBRANCH  61  64
ENDBRANCH  58  61
ENDBRANCH  31  58
ENDBRANCH  28  31
ENDBRANCH  25  27
BRANCH  25  76
ATOM     76  CB  VAL d   1      26.948 -34.928  14.654  0.00  0.00    -0.033 C 
ATOM     77  H   VAL d   1      27.712 -35.668  14.935  0.00  0.00     0.042 H 
BRANCH  76  78
ATOM     78  CG1 VAL d   1      27.400 -34.236  13.354  0.00  0.00    -0.071 C 
ATOM     79  H   VAL d   1      28.353 -33.716  13.528  0.00  0.00     0.028 H 
ATOM     80  H   VAL d   1      26.637 -33.508  13.041  0.00  0.00     0.028 H 
ATOM     81  H   VAL d   1      27.533 -34.990  12.564  0.00  0.00     0.028 H 
ENDBRANCH  76  78
BRANCH  76  82
ATOM     82  CG2 VAL d   1      26.831 -33.900  15.789  0.00  0.00    -0.071 C 
ATOM     83  H   VAL d   1      26.508 -34.406  16.710  0.00  0.00     0.028 H 
ATOM     84  H   VAL d   1      26.092 -33.133  15.514  0.00  0.00     0.028 H 
ATOM     85  H   VAL d   1      27.809 -33.425  15.956  0.00  0.00     0.028 H 
ENDBRANCH  76  82
ENDBRANCH  25  76
ENDBRANCH  22  25
ENDBRANCH  19  21
BRANCH  19  86
ATOM     86  CB  LYS d   1      24.626 -36.546   9.718  0.00  0.00    -0.038 C 
ATOM     87  H   LYS d   1      24.929 -37.095   8.814  0.00  0.00     0.036 H 
ATOM     88  H   LYS d   1      24.942 -35.496   9.632  0.00  0.00     0.036 H 
BRANCH  86  89
ATOM     89  CG  LYS d   1      23.093 -36.598   9.843  0.00  0.00    -0.061 C 
ATOM     90  H   LYS d   1      22.785 -35.973  10.694  0.00  0.00     0.033 H 
ATOM     91  H   LYS d   1      22.787 -37.639  10.023  0.00  0.00     0.033 H 
BRANCH  89  92
ATOM     92  CD  LYS d   1      22.399 -36.092   8.586  0.00  0.00    -0.043 C 
ATOM     93  H   LYS d   1      22.622 -36.768   7.748  0.00  0.00     0.035 H 
ATOM     94  H   LYS d   1      22.763 -35.081   8.349  0.00  0.00     0.035 H 
BRANCH  92  95
ATOM     95  CE  LYS d   1      20.880 -36.047   8.817  0.00  0.00     0.080 C 
ATOM     96  H   LYS d   1      20.652 -35.271   9.563  0.00  0.00     0.075 H 
ATOM     97  H   LYS d   1      20.544 -37.025   9.192  0.00  0.00     0.075 H 
BRANCH  95  98
ATOM     98  NZ  LYS d   1      20.145 -35.730   7.533  0.00  0.00    -0.079 N 
ATOM     99  H   LYS d   1      19.153 -35.706   7.711  0.00  0.00     0.274 HD
ATOM    100  H   LYS d   1      20.346 -36.440   6.846  0.00  0.00     0.274 HD
ATOM    101  H   LYS d   1      20.446 -34.833   7.186  0.00  0.00     0.274 HD
ENDBRANCH  95  98
ENDBRANCH  92  95
ENDBRANCH  89  92
ENDBRANCH  86  89
ENDBRANCH  19  86
ENDBRANCH  16  19
ENDBRANCH  13  15
BRANCH  13 102
ATOM    102  CB  SEP d   1      28.235 -40.673   9.393  0.00  0.00     0.059 C 
ATOM    103  H   SEP d   1      27.739 -41.278  10.167  0.00  0.00     0.079 H 
ATOM    104  H   SEP d   1      29.243 -41.071   9.206  0.00  0.00     0.079 H 
BRANCH 102 105
ATOM    105  OG  SEP d   1      27.477 -40.719   8.196  0.00  0.00    -0.280 OA
BRANCH 105 106
ATOM    106  P   SEP d   1      26.836 -42.202   7.993  0.00  0.00     0.422 P 
ATOM    107  O1P SEP d   1      25.982 -42.151   6.643  0.00  0.00    -0.617 OA
ATOM    108  O2P SEP d   1      27.981 -43.336   7.925  0.00  0.00    -0.617 OA
ATOM    109  O3P SEP d   1      25.953 -42.610   9.283  0.00  0.00    -0.617 OA
ENDBRANCH 105 106
ENDBRANCH 102 105
ENDBRANCH  13 102
ENDBRANCH  10  13
ENDBRANCH   7   9
BRANCH   7 110
ATOM    110  CB  LEU d   1      28.088 -36.605   5.682  0.00  0.00    -0.035 C 
ATOM    111  H   LEU d   1      27.206 -36.125   6.130  0.00  0.00     0.037 H 
ATOM    112  H   LEU d   1      27.780 -37.520   5.155  0.00  0.00     0.037 H 
BRANCH 110 113
ATOM    113  CG  LEU d   1      28.688 -35.630   4.640  0.00  0.00    -0.059 C 
ATOM    114  H   LEU d   1      29.169 -34.803   5.183  0.00  0.00     0.038 H 
BRANCH 113 115
ATOM    115  CD1 LEU d   1      29.747 -36.331   3.791  0.00  0.00    -0.073 C 
ATOM    116  H   LEU d   1      30.159 -35.621   3.059  0.00  0.00     0.028 H 
ATOM    117  H   LEU d   1      29.290 -37.180   3.261  0.00  0.00     0.028 H 
ATOM    118  H   LEU d   1      30.555 -36.697   4.441  0.00  0.00     0.028 H 
ENDBRANCH 113 115
BRANCH 113 119
ATOM    119  CD2 LEU d   1      27.591 -35.037   3.728  0.00  0.00    -0.073 C 
ATOM    120  H   LEU d   1      26.833 -34.534   4.346  0.00  0.00     0.028 H 
ATOM    121  H   LEU d   1      27.117 -35.845   3.151  0.00  0.00     0.028 H 
ATOM    122  H   LEU d   1      28.042 -34.309   3.037  0.00  0.00     0.028 H 
ENDBRANCH 113 119
ENDBRANCH 110 113
ENDBRANCH   7 110
ENDBRANCH   4   7
ENDBRANCH   1   3
BRANCH   1 123
ATOM    123  C   LYS d   1      30.339 -34.302  10.059  0.00  0.00     0.241 C 
ATOM    124  O   LYS d   1      31.293 -33.514  10.186  0.00  0.00    -0.271 OA
ATOM    125  N   LYS d   1      30.286 -35.470  10.706  0.00  0.00    -0.346 N 
ATOM    126  H   LYS d   1      29.473 -36.047  10.634  0.00  0.00     0.163 HD
BRANCH 125 127
ATOM    127  CA  LYS d   1      31.438 -35.906  11.531  0.00  0.00     0.089 C 
ATOM    128  H   LYS d   1      31.599 -35.134  12.297  0.00  0.00     0.087 H 
BRANCH 127 129
ATOM    129  C   LYS d   1      32.731 -36.038  10.712  0.00  0.00     0.241 C 
ATOM    130  O   LYS d   1      33.806 -35.751  11.240  0.00  0.00    -0.271 OA
ATOM    131  N   SER d   1      32.633 -36.484   9.448  0.00  0.00    -0.344 N 
ATOM    132  H   SER d   1      31.730 -36.700   9.077  0.00  0.00     0.163 HD
BRANCH 131 133
ATOM    133  CA  SER d   1      33.816 -36.662   8.597  0.00  0.00     0.109 C 
ATOM    134  H   SER d   1      34.504 -37.325   9.142  0.00  0.00     0.090 H 
BRANCH 133 135
ATOM    135  C   SER d   1      34.577 -35.339   8.330  0.00  0.00     0.243 C 
ATOM    136  O   SER d   1      35.771 -35.344   7.975  0.00  0.00    -0.271 OA
ATOM    137  N   LEU d   1      33.889 -34.215   8.536  0.00  0.00    -0.346 N 
ATOM    138  H   LEU d   1      32.928 -34.281   8.806  0.00  0.00     0.163 HD
BRANCH 137 139
ATOM    139  CA  LEU d   1      34.490 -32.888   8.381  0.00  0.00     0.089 C 
ATOM    140  H   LEU d   1      34.977 -32.835   7.396  0.00  0.00     0.087 H 
BRANCH 139 141
ATOM    141  C   LEU d   1      35.545 -32.679   9.466  0.00  0.00     0.241 C 
ATOM    142  O   LEU d   1      36.464 -31.869   9.293  0.00  0.00    -0.271 OA
ATOM    143  N   ARG d   1      35.441 -33.416  10.574  0.00  0.00    -0.346 N 
ATOM    144  H   ARG d   1      34.688 -34.068  10.665  0.00  0.00     0.163 HD
BRANCH 143 145
ATOM    145  CA  ARG d   1      36.422 -33.281  11.666  0.00  0.00     0.089 C 
ATOM    146  H   ARG d   1      36.585 -32.204  11.822  0.00  0.00     0.087 H 
BRANCH 145 147
ATOM    147  C   ARG d   1      37.792 -33.913  11.370  0.00  0.00     0.241 C 
ATOM    148  O   ARG d   1      38.787 -33.560  12.034  0.00  0.00    -0.271 OA
ATOM    149  N   GLN d   1      37.836 -34.907  10.469  0.00  0.00    -0.346 N 
ATOM    150  H   GLN d   1      36.991 -35.349  10.167  0.00  0.00     0.163 HD
BRANCH 149 151
ATOM    151  CA  GLN d   1      39.122 -35.341   9.931  0.00  0.00     0.090 C 
ATOM    152  H   GLN d   1      39.922 -34.742  10.390  0.00  0.00     0.087 H 
BRANCH 151 153
ATOM    153  C   GLN d   1      39.188 -35.165   8.416  0.00  0.00     0.241 C 
ATOM    154  O   GLN d   1      39.037 -36.131   7.673  0.00  0.00    -0.271 OA
ATOM    155  N   SER d   1      39.667 -33.998   8.001  0.00  0.00    -0.344 N 
ATOM    156  H   SER d   1      40.064 -33.380   8.680  0.00  0.00     0.163 HD
BRANCH 155 157
ATOM    157  CA  SER d   1      39.644 -33.572   6.608  0.00  0.00     0.109 C 
ATOM    158  H   SER d   1      38.952 -34.209   6.037  0.00  0.00     0.090 H 
BRANCH 157 159
ATOM    159  C   SER d   1      41.033 -33.701   6.072  0.00  0.00     0.243 C 
ATOM    160  O   SER d   1      42.001 -33.599   6.839  0.00  0.00    -0.271 OA
ATOM    161  N   PHE d   1      41.109 -33.944   4.766  0.00  0.00    -0.344 N 
ATOM    162  H   PHE d   1      40.255 -34.095   4.268  0.00  0.00     0.163 HD
BRANCH 161 163
ATOM    163  CA  PHE d   1      42.355 -34.004   4.017  0.00  0.00     0.100 C 
ATOM    164  H   PHE d   1      43.157 -34.336   4.693  0.00  0.00     0.090 H 
BRANCH 163 165
ATOM    165  C   PHE d   1      42.734 -32.636   3.452  0.00  0.00     0.197 C 
ATOM    166  O   PHE d   1      41.915 -31.710   3.454  0.00  0.00    -0.646 OA
ATOM    167  O1  PHE d   1      43.888 -32.451   2.981  0.00  0.00    -0.646 OA
ENDBRANCH 163 165
BRANCH 163 168
ATOM    168  CB  PHE d   1      42.208 -35.018   2.887  0.00  0.00    -0.013 C 
ATOM    169  H   PHE d   1      43.170 -35.097   2.360  0.00  0.00     0.043 H 
ATOM    170  H   PHE d   1      41.437 -34.657   2.191  0.00  0.00     0.043 H 
BRANCH 168 171
ATOM    171  CG  PHE d   1      41.818 -36.372   3.365  0.00  0.00    -0.056 A 
ATOM    172  CD1 PHE d   1      42.640 -37.068   4.248  0.00  0.00    -0.077 A 
ATOM    173  CE1 PHE d   1      42.279 -38.328   4.720  0.00  0.00    -0.082 A 
ATOM    174  H   PHE d   1      43.574 -36.623   4.572  0.00  0.00     0.084 H 
ATOM    175  CZ  PHE d   1      41.076 -38.903   4.310  0.00  0.00    -0.083 A 
ATOM    176  H   PHE d   1      42.931 -38.860   5.404  0.00  0.00     0.083 H 
ATOM    177  CE2 PHE d   1      40.249 -38.211   3.433  0.00  0.00    -0.082 A 
ATOM    178  H   PHE d   1      40.788 -39.883   4.673  0.00  0.00     0.083 H 
ATOM    179  CD2 PHE d   1      40.624 -36.948   2.966  0.00  0.00    -0.077 A 
ATOM    180  H   PHE d   1      39.312 -38.651   3.111  0.00  0.00     0.083 H 
ATOM    181  H   PHE d   1      39.973 -36.414   2.284  0.00  0.00     0.084 H 
ENDBRANCH 168 171
ENDBRANCH 163 168
ENDBRANCH 161 163
ENDBRANCH 157 159
BRANCH 157 182
ATOM    182  CB  SER d   1      39.220 -32.107   6.479  0.00  0.00     0.044 C 
ATOM    183  H   SER d   1      39.370 -31.780   5.440  0.00  0.00     0.077 H 
ATOM    184  H   SER d   1      39.839 -31.494   7.150  0.00  0.00     0.077 H 
BRANCH 182 185
ATOM    185  OG  SER d   1      37.862 -31.938   6.823  0.00  0.00    -0.398 OA
ATOM    186  H   SER d   1      37.322 -32.463   6.244  0.00  0.00     0.209 HD
ENDBRANCH 182 185
ENDBRANCH 157 182
ENDBRANCH 155 157
ENDBRANCH 151 153
BRANCH 151 187
ATOM    187  CB  GLN d   1      39.322 -36.817  10.291  0.00  0.00    -0.030 C 
ATOM    188  H   GLN d   1      40.340 -37.117  10.003  0.00  0.00     0.037 H 
ATOM    189  H   GLN d   1      38.591 -37.419   9.732  0.00  0.00     0.037 H 
BRANCH 187 190
ATOM    190  CG  GLN d   1      39.133 -37.086  11.816  0.00  0.00     0.011 C 
ATOM    191  H   GLN d   1      38.171 -36.655  12.129  0.00  0.00     0.047 H 
ATOM    192  H   GLN d   1      39.951 -36.592  12.361  0.00  0.00     0.047 H 
BRANCH 190 193
ATOM    193  CD  GLN d   1      39.138 -38.562  12.175  0.00  0.00     0.215 C 
ATOM    194  OE1 GLN d   1      39.907 -39.353  11.608  0.00  0.00    -0.274 OA
ATOM    195  NE2 GLN d   1      38.297 -38.940  13.148  0.00  0.00    -0.370 N 
ATOM    196  H   GLN d   1      38.255 -39.899  13.428  0.00  0.00     0.159 HD
ATOM    197  H   GLN d   1      37.711 -38.263  13.594  0.00  0.00     0.159 HD
ENDBRANCH 190 193
ENDBRANCH 187 190
ENDBRANCH 151 187
ENDBRANCH 149 151
ENDBRANCH 145 147
BRANCH 145 198
ATOM    198  CB  ARG d   1      35.871 -33.868  12.961  0.00  0.00    -0.036 C 
ATOM    199  H   ARG d   1      36.565 -33.628  13.780  0.00  0.00     0.036 H 
ATOM    200  H   ARG d   1      35.799 -34.960  12.850  0.00  0.00     0.036 H 
BRANCH 198 201
ATOM    201  CG  ARG d   1      34.504 -33.327  13.312  0.00  0.00    -0.048 C 
ATOM    202  H   ARG d   1      33.808 -33.550  12.490  0.00  0.00     0.035 H 
ATOM    203  H   ARG d   1      34.573 -32.238  13.449  0.00  0.00     0.035 H 
BRANCH 201 204
ATOM    204  CD  ARG d   1      33.980 -33.955  14.589  0.00  0.00     0.009 C 
ATOM    205  H   ARG d   1      33.903 -35.044  14.457  0.00  0.00     0.064 H 
ATOM    206  H   ARG d   1      32.987 -33.542  14.820  0.00  0.00     0.064 H 
BRANCH 204 207
ATOM    207  NE  ARG d   1      34.898 -33.661  15.687  0.00  0.00    -0.227 N 
ATOM    208  CZ  ARG d   1      34.606 -33.821  16.975  0.00  0.00     0.665 C 
ATOM    209  NH1 ARG d   1      33.411 -34.284  17.332  0.00  0.00    -0.235 N 
ATOM    210  NH2 ARG d   1      35.510 -33.519  17.902  0.00  0.00    -0.235 N 
ATOM    211  H   ARG d   1      33.184 -34.408  18.329  0.00  0.00     0.174 HD
ATOM    212  H   ARG d   1      32.713 -34.518  16.611  0.00  0.00     0.174 HD
ATOM    213  H   ARG d   1      36.434 -33.161  17.622  0.00  0.00     0.174 HD
ATOM    214  H   ARG d   1      35.286 -33.643  18.900  0.00  0.00     0.174 HD
ATOM    215  H   ARG d   1      35.835 -33.306  15.448  0.00  0.00     0.177 HD
ENDBRANCH 204 207
ENDBRANCH 201 204
ENDBRANCH 198 201
ENDBRANCH 145 198
ENDBRANCH 143 145
ENDBRANCH 139 141
BRANCH 139 216
ATOM    216  CB  LEU d   1      33.421 -31.775   8.460  0.00  0.00    -0.035 C 
ATOM    217  H   LEU d   1      33.952 -30.813   8.419  0.00  0.00     0.037 H 
ATOM    218  H   LEU d   1      32.920 -31.876   9.434  0.00  0.00     0.037 H 
BRANCH 216 219
ATOM    219  CG  LEU d   1      32.314 -31.729   7.382  0.00  0.00    -0.059 C 
ATOM    220  H   LEU d   1      31.806 -32.705   7.369  0.00  0.00     0.038 H 
BRANCH 219 221
ATOM    221  CD1 LEU d   1      31.273 -30.637   7.706  0.00  0.00    -0.073 C 
ATOM    222  H   LEU d   1      30.498 -30.626   6.925  0.00  0.00     0.028 H 
ATOM    223  H   LEU d   1      31.770 -29.656   7.744  0.00  0.00     0.028 H 
ATOM    224  H   LEU d   1      30.809 -30.851   8.680  0.00  0.00     0.028 H 
ENDBRANCH 219 221
BRANCH 219 225
ATOM    225  CD2 LEU d   1      32.905 -31.467   5.989  0.00  0.00    -0.073 C 
ATOM    226  H   LEU d   1      33.648 -32.243   5.754  0.00  0.00     0.028 H 
ATOM    227  H   LEU d   1      33.390 -30.480   5.976  0.00  0.00     0.028 H 
ATOM    228  H   LEU d   1      32.101 -31.490   5.239  0.00  0.00     0.028 H 
ENDBRANCH 219 225
ENDBRANCH 216 219
ENDBRANCH 139 216
ENDBRANCH 137 139
ENDBRANCH 133 135
BRANCH 133 229
ATOM    229  CB  SER d   1      33.458 -37.361   7.276  0.00  0.00     0.044 C 
ATOM    230  H   SER d   1      32.739 -38.166   7.487  0.00  0.00     0.077 H 
ATOM    231  H   SER d   1      34.374 -37.791   6.846  0.00  0.00     0.077 H 
BRANCH 229 232
ATOM    232  OG  SER d   1      32.876 -36.466   6.316  0.00  0.00    -0.398 OA
ATOM    233  H   SER d   1      32.079 -36.094   6.674  0.00  0.00     0.209 HD
ENDBRANCH 229 232
ENDBRANCH 133 229
ENDBRANCH 131 133
ENDBRANCH 127 129
BRANCH 127 234
ATOM    234  CB  LYS d   1      31.181 -37.231  12.245  0.00  0.00    -0.038 C 
ATOM    235  H   LYS d   1      32.140 -37.588  12.649  0.00  0.00     0.036 H 
ATOM    236  H   LYS d   1      30.808 -37.949  11.500  0.00  0.00     0.036 H 
BRANCH 234 237
ATOM    237  CG  LYS d   1      30.164 -37.184  13.409  0.00  0.00    -0.061 C 
ATOM    238  H   LYS d   1      29.142 -37.204  13.003  0.00  0.00     0.033 H 
ATOM    239  H   LYS d   1      30.311 -36.260  13.987  0.00  0.00     0.033 H 
BRANCH 237 240
ATOM    240  CD  LYS d   1      30.373 -38.394  14.322  0.00  0.00    -0.043 C 
ATOM    241  H   LYS d   1      30.724 -38.033  15.300  0.00  0.00     0.035 H 
ATOM    242  H   LYS d   1      31.142 -39.039  13.871  0.00  0.00     0.035 H 
BRANCH 240 243
ATOM    243  CE  LYS d   1      29.109 -39.231  14.542  0.00  0.00     0.080 C 
ATOM    244  H   LYS d   1      29.407 -40.245  14.848  0.00  0.00     0.075 H 
ATOM    245  H   LYS d   1      28.552 -39.283  13.595  0.00  0.00     0.075 H 
BRANCH 243 246
ATOM    246  NZ  LYS d   1      28.212 -38.656  15.595  0.00  0.00    -0.079 N 
ATOM    247  H   LYS d   1      27.399 -39.242  15.700  0.00  0.00     0.274 HD
ATOM    248  H   LYS d   1      27.925 -37.729  15.322  0.00  0.00     0.274 HD
ATOM    249  H   LYS d   1      28.709 -38.610  16.471  0.00  0.00     0.274 HD
ENDBRANCH 243 246
ENDBRANCH 240 243
ENDBRANCH 237 240
ENDBRANCH 234 237
ENDBRANCH 127 234
ENDBRANCH 125 127
ENDBRANCH   1 123
BRANCH   1 250
ATOM    250  CB  LYS d   1      28.016 -33.301   9.834  0.00  0.00    -0.038 C 
ATOM    251  H   LYS d   1      27.721 -33.945  10.676  0.00  0.00     0.036 H 
ATOM    252  H   LYS d   1      27.172 -33.199   9.136  0.00  0.00     0.036 H 
BRANCH 250 253
ATOM    253  CG  LYS d   1      28.370 -31.899  10.387  0.00  0.00    -0.061 C 
ATOM    254  H   LYS d   1      28.779 -31.287   9.570  0.00  0.00     0.033 H 
ATOM    255  H   LYS d   1      29.127 -32.009  11.177  0.00  0.00     0.033 H 
BRANCH 253 256
ATOM    256  CD  LYS d   1      27.141 -31.190  10.972  0.00  0.00    -0.043 C 
ATOM    257  H   LYS d   1      26.782 -31.760  11.842  0.00  0.00     0.035 H 
ATOM    258  H   LYS d   1      26.352 -31.155  10.206  0.00  0.00     0.035 H 
BRANCH 256 259
ATOM    259  CE  LYS d   1      27.464 -29.757  11.417  0.00  0.00     0.080 C 
ATOM    260  H   LYS d   1      28.177 -29.795  12.254  0.00  0.00     0.075 H 
ATOM    261  H   LYS d   1      26.536 -29.269  11.749  0.00  0.00     0.075 H 
BRANCH 259 262
ATOM    262  NZ  LYS d   1      28.072 -28.944  10.289  0.00  0.00    -0.079 N 
ATOM    263  H   LYS d   1      28.271 -28.012  10.616  0.00  0.00     0.274 HD
ATOM    264  H   LYS d   1      27.423 -28.899   9.519  0.00  0.00     0.274 HD
ATOM    265  H   LYS d   1      28.927 -29.382   9.982  0.00  0.00     0.274 HD
ENDBRANCH 259 262
ENDBRANCH 256 259
ENDBRANCH 253 256
ENDBRANCH 250 253
ENDBRANCH   1 250
TORSDOF 79
