REMARK WARNING: 32 MAX_TORS EXCEEDED!!!
REMARK  65 active torsions:
REMARK  status: ('A' for Active; 'I' for Inactive)
REMARK    1  A    between atoms: N_1  and  CA_2 
REMARK    2  A    between atoms: CA_2  and  C_3 
REMARK    3  A    between atoms: CA_2  and  CB_5 
REMARK       I    between atoms: C_3  and  N_10 
REMARK    4  A    between atoms: CB_5  and  CG_6 
REMARK    5  A    between atoms: CG_6  and  CD_7 
REMARK    6  A    between atoms: CD_7  and  CE_8 
REMARK    7  A    between atoms: CE_8  and  NZ_9 
REMARK    8  A    between atoms: N_10  and  CA_11 
REMARK    9  A    between atoms: CA_11  and  C_12 
REMARK   10  A    between atoms: CA_11  and  CB_14 
REMARK       I    between atoms: C_12  and  N_19 
REMARK   11  A    between atoms: CB_14  and  CG_15 
REMARK   12  A    between atoms: CG_15  and  CD_16 
REMARK   13  A    between atoms: CD_16  and  CE_17 
REMARK   14  A    between atoms: CE_17  and  NZ_18 
REMARK   15  A    between atoms: N_19  and  CA_20 
REMARK   16  A    between atoms: CA_20  and  C_21 
REMARK   17  A    between atoms: CA_20  and  CB_23 
REMARK       I    between atoms: C_21  and  N_25 
REMARK   18  A    between atoms: CB_23  and  OG_24 
REMARK   19  A    between atoms: N_25  and  CA_26 
REMARK   20  A    between atoms: CA_26  and  C_27 
REMARK   21  A    between atoms: CA_26  and  CB_29 
REMARK       I    between atoms: C_27  and  N_33 
REMARK   22  A    between atoms: CB_29  and  CG_30 
REMARK   23  A    between atoms: CG_30  and  CD1_31 
REMARK   24  A    between atoms: CG_30  and  CD2_32 
REMARK   25  A    between atoms: N_33  and  CA_34 
REMARK   26  A    between atoms: CA_34  and  C_35 
REMARK   27  A    between atoms: CA_34  and  CB_37 
REMARK       I    between atoms: C_35  and  N_44 
REMARK   28  A    between atoms: CB_37  and  CG_38 
REMARK   29  A    between atoms: CG_38  and  CD_39 
REMARK   30  A    between atoms: CD_39  and  NE_40 
REMARK       I    between atoms: NE_40  and  CZ_41 
REMARK       I    between atoms: CZ_41  and  NH1_42 
REMARK       I    between atoms: CZ_41  and  NH2_43 
REMARK   31  A    between atoms: N_44  and  CA_45 
REMARK   32  A    between atoms: CA_45  and  C_46 
REMARK   33  A    between atoms: CA_45  and  CB_48 
REMARK       I    between atoms: C_46  and  N_53 
REMARK   34  A    between atoms: CB_48  and  CG_49 
REMARK   35  A    between atoms: CG_49  and  CD_50 
REMARK       I    between atoms: CD_50  and  NE2_52 
REMARK   36  A    between atoms: N_53  and  CA_54 
REMARK   37  A    between atoms: CA_54  and  CB_55 
REMARK   38  A    between atoms: CA_54  and  C_57 
REMARK   39  A    between atoms: CB_55  and  OG_56 
REMARK   40  A    between atoms: OG_56  and  P_59 
REMARK       I    between atoms: C_57  and  N_63 
REMARK   41  A    between atoms: N_63  and  CA_64 
REMARK   42  A    between atoms: CA_64  and  C_65 
REMARK   43  A    between atoms: CA_64  and  CB_67 
REMARK       I    between atoms: C_65  and  N_74 
REMARK   44  A    between atoms: CB_67  and  CG_68 
REMARK   45  A    between atoms: N_74  and  CA_75 
REMARK   46  A    between atoms: CA_75  and  C_76 
REMARK   47  A    between atoms: CA_75  and  CB_78 
REMARK       I    between atoms: C_76  and  N_85 
REMARK   48  A    between atoms: CB_78  and  CG_79 
REMARK   49  A    between atoms: CG_79  and  CD_80 
REMARK   50  A    between atoms: CD_80  and  NE_81 
REMARK       I    between atoms: NE_81  and  CZ_82 
REMARK       I    between atoms: CZ_82  and  NH1_83 
REMARK       I    between atoms: CZ_82  and  NH2_84 
REMARK   51  A    between atoms: N_85  and  CA_86 
REMARK   52  A    between atoms: CA_86  and  C_87 
REMARK   53  A    between atoms: CA_86  and  CB_89 
REMARK       I    between atoms: C_87  and  N_96 
REMARK   54  A    between atoms: CB_89  and  CG_90 
REMARK   55  A    between atoms: CG_90  and  CD_91 
REMARK   56  A    between atoms: CD_91  and  NE_92 
REMARK       I    between atoms: NE_92  and  CZ_93 
REMARK       I    between atoms: CZ_93  and  NH1_94 
REMARK   57  A    between atoms: N_96  and  CA_97 
REMARK   58  A    between atoms: CA_97  and  C_98 
REMARK   59  A    between atoms: CA_97  and  CB_100 
REMARK       I    between atoms: C_98  and  N_104 
REMARK   60  A    between atoms: CB_100  and  CG_101 
REMARK   61  A    between atoms: CG_101  and  SD_102 
REMARK   62  A    between atoms: SD_102  and  CE_103 
REMARK   63  A    between atoms: N_104  and  CA_105 
REMARK   64  A    between atoms: CA_105  and  C_106 
REMARK   65  A    between atoms: CA_105  and  CB_108 
ROOT
ATOM      1  CA  GLN d   1     149.395 144.361   5.340  0.00  0.00     0.090 C 
ATOM      2  H   GLN d   1     148.464 144.660   5.843  0.00  0.00     0.087 H 
ENDROOT
BRANCH   1   3
ATOM      3  N   GLN d   1     149.239 144.670   3.922  0.00  0.00    -0.346 N 
ATOM      4  C   ARG d   1     148.875 145.890   3.542  0.00  0.00     0.241 C 
ATOM      5  O   ARG d   1     148.718 146.807   4.341  0.00  0.00    -0.271 OA
ATOM      6  H   GLN d   1     149.406 143.962   3.236  0.00  0.00     0.163 HD
BRANCH   4   7
ATOM      7  CA  ARG d   1     148.621 146.134   2.055  0.00  0.00     0.089 C 
ATOM      8  H   ARG d   1     149.589 146.059   1.537  0.00  0.00     0.087 H 
BRANCH   7   9
ATOM      9  N   ARG d   1     147.720 145.158   1.437  0.00  0.00    -0.346 N 
ATOM     10  C   LEU d   1     146.609 144.755   2.042  0.00  0.00     0.241 C 
ATOM     11  O   LEU d   1     146.293 145.134   3.176  0.00  0.00    -0.271 OA
ATOM     12  H   ARG d   1     147.947 144.786   0.537  0.00  0.00     0.163 HD
BRANCH  10  13
ATOM     13  CA  LEU d   1     145.743 143.722   1.303  0.00  0.00     0.089 C 
ATOM     14  H   LEU d   1     144.718 144.113   1.224  0.00  0.00     0.087 H 
BRANCH  13  15
ATOM     15  N   LEU d   1     146.230 143.445  -0.042  0.00  0.00    -0.346 N 
ATOM     16  C   SER d   1     145.919 144.233  -1.060  0.00  0.00     0.243 C 
ATOM     17  O   SER d   1     145.107 145.141  -0.957  0.00  0.00    -0.271 OA
ATOM     18  H   LEU d   1     146.810 142.645  -0.199  0.00  0.00     0.163 HD
BRANCH  16  19
ATOM     19  CA  SER d   1     146.591 143.932  -2.402  0.00  0.00     0.109 C 
ATOM     20  H   SER d   1     146.759 142.847  -2.462  0.00  0.00     0.090 H 
BRANCH  19  21
ATOM     21  N   SER d   1     145.752 144.323  -3.524  0.00  0.00    -0.344 N 
ATOM     22  C   LYS d   1     144.549 143.791  -3.707  0.00  0.00     0.241 C 
ATOM     23  O   LYS d   1     144.064 142.953  -2.938  0.00  0.00    -0.271 OA
ATOM     24  H   SER d   1     146.088 145.007  -4.171  0.00  0.00     0.163 HD
BRANCH  22  25
ATOM     25  CA  LYS d   1     143.772 144.246  -4.938  0.00  0.00     0.089 C 
ATOM     26  H   LYS d   1     144.466 144.607  -5.712  0.00  0.00     0.087 H 
BRANCH  25  27
ATOM     27  N   LYS d   1     143.054 143.077  -5.414  0.00  0.00    -0.346 N 
ATOM     28  C   LYS d   1     143.689 142.057  -5.981  0.00  0.00     0.248 C 
ATOM     29  O   LYS d   1     144.888 142.085  -6.252  0.00  0.00    -0.271 OA
ATOM     30  H   LYS d   1     142.060 143.039  -5.313  0.00  0.00     0.163 HD
BRANCH  28  31
ATOM     31  CA  LYS d   1     142.840 140.831  -6.301  0.00  0.00     0.176 C 
ATOM     32  H   LYS d   1     143.495 139.950  -6.369  0.00  0.00     0.099 H 
BRANCH  31  33
ATOM     33  N   LYS d   1     141.871 140.616  -5.229  0.00  0.00    -0.067 N 
ATOM     34  H   LYS d   1     141.310 139.806  -5.441  0.00  0.00     0.275 HD
ATOM     35  H   LYS d   1     141.275 141.425  -5.147  0.00  0.00     0.275 HD
ATOM     36  H   LYS d   1     142.359 140.469  -4.359  0.00  0.00     0.275 HD
ENDBRANCH  31  33
BRANCH  31  37
ATOM     37  CB  LYS d   1     142.133 141.023  -7.648  0.00  0.00    -0.030 C 
ATOM     38  H   LYS d   1     142.261 142.071  -7.956  0.00  0.00     0.036 H 
ATOM     39  H   LYS d   1     141.063 140.810  -7.507  0.00  0.00     0.036 H 
BRANCH  37  40
ATOM     40  CG  LYS d   1     142.647 140.137  -8.765  0.00  0.00    -0.061 C 
ATOM     41  H   LYS d   1     142.366 140.580  -9.732  0.00  0.00     0.033 H 
ATOM     42  H   LYS d   1     142.190 139.141  -8.672  0.00  0.00     0.033 H 
BRANCH  40  43
ATOM     43  CD  LYS d   1     144.158 139.995  -8.706  0.00  0.00    -0.043 C 
ATOM     44  H   LYS d   1     144.418 139.191  -8.002  0.00  0.00     0.035 H 
ATOM     45  H   LYS d   1     144.596 140.942  -8.359  0.00  0.00     0.035 H 
BRANCH  43  46
ATOM     46  CE  LYS d   1     144.722 139.658 -10.078  0.00  0.00     0.080 C 
ATOM     47  H   LYS d   1     145.769 139.341  -9.958  0.00  0.00     0.075 H 
ATOM     48  H   LYS d   1     144.682 140.561 -10.704  0.00  0.00     0.075 H 
BRANCH  46  49
ATOM     49  NZ  LYS d   1     143.969 138.563 -10.771  0.00  0.00    -0.079 N 
ATOM     50  H   LYS d   1     144.387 138.385 -11.671  0.00  0.00     0.274 HD
ATOM     51  H   LYS d   1     143.009 138.843 -10.896  0.00  0.00     0.274 HD
ATOM     52  H   LYS d   1     144.005 137.725 -10.212  0.00  0.00     0.274 HD
ENDBRANCH  46  49
ENDBRANCH  43  46
ENDBRANCH  40  43
ENDBRANCH  37  40
ENDBRANCH  31  37
ENDBRANCH  28  31
ENDBRANCH  25  27
BRANCH  25  53
ATOM     53  CB  LYS d   1     142.791 145.367  -4.576  0.00  0.00    -0.038 C 
ATOM     54  H   LYS d   1     142.146 145.004  -3.762  0.00  0.00     0.036 H 
ATOM     55  H   LYS d   1     142.177 145.581  -5.463  0.00  0.00     0.036 H 
BRANCH  53  56
ATOM     56  CG  LYS d   1     143.436 146.683  -4.118  0.00  0.00    -0.061 C 
ATOM     57  H   LYS d   1     143.679 147.290  -5.002  0.00  0.00     0.033 H 
ATOM     58  H   LYS d   1     144.359 146.457  -3.564  0.00  0.00     0.033 H 
BRANCH  56  59
ATOM     59  CD  LYS d   1     142.486 147.481  -3.206  0.00  0.00    -0.043 C 
ATOM     60  H   LYS d   1     142.740 147.268  -2.157  0.00  0.00     0.035 H 
ATOM     61  H   LYS d   1     141.452 147.162  -3.405  0.00  0.00     0.035 H 
BRANCH  59  62
ATOM     62  CE  LYS d   1     142.591 148.995  -3.443  0.00  0.00     0.080 C 
ATOM     63  H   LYS d   1     142.314 149.199  -4.488  0.00  0.00     0.075 H 
ATOM     64  H   LYS d   1     143.635 149.297  -3.275  0.00  0.00     0.075 H 
BRANCH  62  65
ATOM     65  NZ  LYS d   1     141.710 149.830  -2.551  0.00  0.00    -0.079 N 
ATOM     66  H   LYS d   1     141.839 150.805  -2.770  0.00  0.00     0.274 HD
ATOM     67  H   LYS d   1     141.956 149.667  -1.587  0.00  0.00     0.274 HD
ATOM     68  H   LYS d   1     140.746 149.577  -2.699  0.00  0.00     0.274 HD
ENDBRANCH  62  65
ENDBRANCH  59  62
ENDBRANCH  56  59
ENDBRANCH  53  56
ENDBRANCH  25  53
ENDBRANCH  22  25
ENDBRANCH  19  21
BRANCH  19  69
ATOM     69  CB  SER d   1     147.949 144.637  -2.493  0.00  0.00     0.044 C 
ATOM     70  H   SER d   1     147.823 145.596  -3.018  0.00  0.00     0.077 H 
ATOM     71  H   SER d   1     148.649 144.001  -3.054  0.00  0.00     0.077 H 
BRANCH  69  72
ATOM     72  OG  SER d   1     148.478 144.881  -1.198  0.00  0.00    -0.398 OA
ATOM     73  H   SER d   1     149.318 145.318  -1.277  0.00  0.00     0.209 HD
ENDBRANCH  69  72
ENDBRANCH  19  69
ENDBRANCH  16  19
ENDBRANCH  13  15
BRANCH  13  74
ATOM     74  CB  LEU d   1     145.728 142.446   2.132  0.00  0.00    -0.035 C 
ATOM     75  H   LEU d   1     145.245 142.684   3.091  0.00  0.00     0.037 H 
ATOM     76  H   LEU d   1     146.775 142.158   2.310  0.00  0.00     0.037 H 
BRANCH  74  77
ATOM     77  CG  LEU d   1     145.016 141.233   1.555  0.00  0.00    -0.059 C 
ATOM     78  H   LEU d   1     145.419 141.025   0.553  0.00  0.00     0.038 H 
BRANCH  77  79
ATOM     79  CD1 LEU d   1     145.289 140.017   2.457  0.00  0.00    -0.073 C 
ATOM     80  H   LEU d   1     144.777 139.134   2.047  0.00  0.00     0.028 H 
ATOM     81  H   LEU d   1     144.913 140.221   3.471  0.00  0.00     0.028 H 
ATOM     82  H   LEU d   1     146.372 139.827   2.498  0.00  0.00     0.028 H 
ENDBRANCH  77  79
BRANCH  77  83
ATOM     83  CD2 LEU d   1     143.525 141.515   1.425  0.00  0.00    -0.073 C 
ATOM     84  H   LEU d   1     143.373 142.389   0.774  0.00  0.00     0.028 H 
ATOM     85  H   LEU d   1     143.102 141.720   2.420  0.00  0.00     0.028 H 
ATOM     86  H   LEU d   1     143.023 140.640   0.987  0.00  0.00     0.028 H 
ENDBRANCH  77  83
ENDBRANCH  74  77
ENDBRANCH  13  74
ENDBRANCH  10  13
ENDBRANCH   7   9
BRANCH   7  87
ATOM     87  CB  ARG d   1     148.084 147.555   1.862  0.00  0.00    -0.036 C 
ATOM     88  H   ARG d   1     148.824 148.263   2.264  0.00  0.00     0.036 H 
ATOM     89  H   ARG d   1     147.143 147.650   2.424  0.00  0.00     0.036 H 
BRANCH  87  90
ATOM     90  CG  ARG d   1     147.813 147.917   0.408  0.00  0.00    -0.048 C 
ATOM     91  H   ARG d   1     147.228 147.110  -0.058  0.00  0.00     0.035 H 
ATOM     92  H   ARG d   1     148.773 148.024  -0.118  0.00  0.00     0.035 H 
BRANCH  90  93
ATOM     93  CD  ARG d   1     147.044 149.210   0.291  0.00  0.00     0.009 C 
ATOM     94  H   ARG d   1     147.653 150.025   0.709  0.00  0.00     0.064 H 
ATOM     95  H   ARG d   1     146.108 149.121   0.863  0.00  0.00     0.064 H 
BRANCH  93  96
ATOM     96  NE  ARG d   1     146.721 149.525  -1.097  0.00  0.00    -0.227 N 
ATOM     97  CZ  ARG d   1     145.600 150.137  -1.464  0.00  0.00     0.665 C 
ATOM     98  NH1 ARG d   1     144.712 150.485  -0.544  0.00  0.00    -0.235 N 
ATOM     99  NH2 ARG d   1     145.358 150.397  -2.738  0.00  0.00    -0.235 N 
ATOM    100  H   ARG d   1     143.841 150.960  -0.822  0.00  0.00     0.174 HD
ATOM    101  H   ARG d   1     144.893 150.281   0.449  0.00  0.00     0.174 HD
ATOM    102  H   ARG d   1     146.044 150.129  -3.458  0.00  0.00     0.174 HD
ATOM    103  H   ARG d   1     144.483 150.868  -3.010  0.00  0.00     0.174 HD
ATOM    104  H   ARG d   1     147.396 149.260  -1.829  0.00  0.00     0.177 HD
ENDBRANCH  93  96
ENDBRANCH  90  93
ENDBRANCH  87  90
ENDBRANCH   7  87
ENDBRANCH   4   7
ENDBRANCH   1   3
BRANCH   1 105
ATOM    105  C   GLN d   1     150.534 145.127   5.990  0.00  0.00     0.241 C 
ATOM    106  O   GLN d   1     150.458 145.458   7.167  0.00  0.00    -0.271 OA
ATOM    107  N   SEP d   1     151.590 145.392   5.225  0.00  0.00    -0.344 N 
ATOM    108  H   SEP d   1     151.598 145.066   4.280  0.00  0.00     0.163 HD
BRANCH 107 109
ATOM    109  CA  SEP d   1     152.738 146.144   5.724  0.00  0.00     0.110 C 
ATOM    110  H   SEP d   1     153.231 145.589   6.535  0.00  0.00     0.090 H 
BRANCH 109 111
ATOM    111  CB  SEP d   1     153.718 146.411   4.593  0.00  0.00     0.059 C 
ATOM    112  H   SEP d   1     154.451 147.161   4.925  0.00  0.00     0.079 H 
ATOM    113  H   SEP d   1     153.165 146.798   3.724  0.00  0.00     0.079 H 
BRANCH 111 114
ATOM    114  OG  SEP d   1     154.399 145.244   4.217  0.00  0.00    -0.280 OA
BRANCH 114 115
ATOM    115  P   SEP d   1     153.972 144.851   2.711  0.00  0.00     0.422 P 
ATOM    116  O1P SEP d   1     154.915 145.695   1.724  0.00  0.00    -0.617 OA
ATOM    117  O2P SEP d   1     152.443 145.289   2.448  0.00  0.00    -0.617 OA
ATOM    118  O3P SEP d   1     154.176 143.263   2.523  0.00  0.00    -0.617 OA
ENDBRANCH 114 115
ENDBRANCH 111 114
ENDBRANCH 109 111
BRANCH 109 119
ATOM    119  C   SEP d   1     152.249 147.491   6.216  0.00  0.00     0.243 C 
ATOM    120  O   SEP d   1     152.624 147.990   7.283  0.00  0.00    -0.271 OA
ATOM    121  N   PHE d   1     151.386 148.077   5.410  0.00  0.00    -0.346 N 
ATOM    122  H   PHE d   1     151.036 147.586   4.612  0.00  0.00     0.163 HD
BRANCH 121 123
ATOM    123  CA  PHE d   1     150.947 149.418   5.674  0.00  0.00     0.093 C 
ATOM    124  H   PHE d   1     151.837 150.046   5.827  0.00  0.00     0.088 H 
BRANCH 123 125
ATOM    125  C   PHE d   1     150.101 149.484   6.946  0.00  0.00     0.241 C 
ATOM    126  O   PHE d   1     150.340 150.328   7.803  0.00  0.00    -0.271 OA
ATOM    127  N   ARG d   1     149.125 148.593   7.081  0.00  0.00    -0.346 N 
ATOM    128  H   ARG d   1     148.949 147.924   6.359  0.00  0.00     0.163 HD
BRANCH 127 129
ATOM    129  CA  ARG d   1     148.314 148.601   8.291  0.00  0.00     0.089 C 
ATOM    130  H   ARG d   1     147.876 149.602   8.415  0.00  0.00     0.087 H 
BRANCH 129 131
ATOM    131  C   ARG d   1     149.203 148.292   9.475  0.00  0.00     0.241 C 
ATOM    132  O   ARG d   1     149.004 148.805  10.575  0.00  0.00    -0.271 OA
ATOM    133  N   ARG d   1     150.198 147.455   9.239  0.00  0.00    -0.346 N 
ATOM    134  H   ARG d   1     150.364 147.126   8.309  0.00  0.00     0.163 HD
BRANCH 133 135
ATOM    135  CA  ARG d   1     151.047 147.014  10.324  0.00  0.00     0.089 C 
ATOM    136  H   ARG d   1     150.400 146.713  11.161  0.00  0.00     0.087 H 
BRANCH 135 137
ATOM    137  C   ARG d   1     151.956 148.114  10.798  0.00  0.00     0.241 C 
ATOM    138  O   ARG d   1     152.411 148.086  11.940  0.00  0.00    -0.271 OA
ATOM    139  N   MET d   1     152.227 149.075   9.918  0.00  0.00    -0.346 N 
ATOM    140  H   MET d   1     151.767 149.069   9.030  0.00  0.00     0.163 HD
BRANCH 139 141
ATOM    141  CA  MET d   1     153.177 150.134  10.218  0.00  0.00     0.090 C 
ATOM    142  H   MET d   1     154.156 149.663  10.392  0.00  0.00     0.087 H 
BRANCH 141 143
ATOM    143  C   MET d   1     152.811 150.921  11.495  0.00  0.00     0.241 C 
ATOM    144  O   MET d   1     151.639 151.260  11.719  0.00  0.00    -0.271 OA
ATOM    145  N   ARG d   1     153.820 151.190  12.329  0.00  0.00    -0.345 N 
ATOM    146  H   ARG d   1     154.741 150.895  12.076  0.00  0.00     0.163 HD
BRANCH 145 147
ATOM    147  CA  ARG d   1     153.634 151.899  13.597  0.00  0.00     0.093 C 
ATOM    148  H   ARG d   1     152.771 151.458  14.118  0.00  0.00     0.089 H 
BRANCH 147 149
ATOM    149  C   ARG d   1     153.348 153.371  13.339  0.00  0.00     0.196 C 
ATOM    150  O   ARG d   1     154.049 154.011  12.556  0.00  0.00    -0.646 OA
ATOM    151  O1  ARG d   1     152.389 153.937  13.930  0.00  0.00    -0.646 OA
ENDBRANCH 147 149
BRANCH 147 152
ATOM    152  CB  ARG d   1     154.871 151.759  14.499  0.00  0.00    -0.048 C 
ATOM    153  H   ARG d   1     154.701 152.301  15.441  0.00  0.00     0.030 H 
ATOM    154  H   ARG d   1     155.748 152.181  13.987  0.00  0.00     0.030 H 
ATOM    155  H   ARG d   1     155.049 150.695  14.715  0.00  0.00     0.030 H 
ENDBRANCH 147 152
ENDBRANCH 145 147
ENDBRANCH 141 143
BRANCH 141 156
ATOM    156  CB  MET d   1     153.311 151.071   9.014  0.00  0.00    -0.030 C 
ATOM    157  H   MET d   1     152.374 151.637   8.907  0.00  0.00     0.037 H 
ATOM    158  H   MET d   1     153.475 150.461   8.114  0.00  0.00     0.037 H 
BRANCH 156 159
ATOM    159  CG  MET d   1     154.462 152.061   9.143  0.00  0.00    -0.021 C 
ATOM    160  H   MET d   1     155.416 151.517   9.083  0.00  0.00     0.049 H 
ATOM    161  H   MET d   1     154.392 152.572  10.115  0.00  0.00     0.049 H 
BRANCH 159 162
ATOM    162  SD  MET d   1     154.395 153.271   7.839  0.00  0.00    -0.173 SA
BRANCH 162 163
ATOM    163  CE  MET d   1     152.860 154.131   8.216  0.00  0.00    -0.035 C 
ATOM    164  H   MET d   1     152.691 154.923   7.472  0.00  0.00     0.041 H 
ATOM    165  H   MET d   1     152.927 154.578   9.219  0.00  0.00     0.041 H 
ATOM    166  H   MET d   1     152.023 153.417   8.188  0.00  0.00     0.041 H 
ENDBRANCH 162 163
ENDBRANCH 159 162
ENDBRANCH 156 159
ENDBRANCH 141 156
ENDBRANCH 139 141
ENDBRANCH 135 137
BRANCH 135 167
ATOM    167  CB  ARG d   1     151.886 145.820   9.910  0.00  0.00    -0.036 C 
ATOM    168  H   ARG d   1     152.907 146.152   9.673  0.00  0.00     0.036 H 
ATOM    169  H   ARG d   1     151.440 145.346   9.023  0.00  0.00     0.036 H 
BRANCH 167 170
ATOM    170  CG  ARG d   1     151.928 144.847  11.022  0.00  0.00    -0.048 C 
ATOM    171  H   ARG d   1     150.911 144.722  11.421  0.00  0.00     0.035 H 
ATOM    172  H   ARG d   1     152.586 145.240  11.811  0.00  0.00     0.035 H 
BRANCH 170 173
ATOM    173  CD  ARG d   1     152.437 143.524  10.592  0.00  0.00     0.009 C 
ATOM    174  H   ARG d   1     153.427 143.645  10.129  0.00  0.00     0.064 H 
ATOM    175  H   ARG d   1     151.742 143.084   9.862  0.00  0.00     0.064 H 
BRANCH 173 176
ATOM    176  NE  ARG d   1     152.547 142.644  11.750  0.00  0.00    -0.227 N 
ATOM    177  CZ  ARG d   1     151.507 142.064  12.341  0.00  0.00     0.665 C 
ATOM    178  NH1 ARG d   1     150.273 142.270  11.877  0.00  0.00    -0.235 N 
ATOM    179  NH2 ARG d   1     151.704 141.276  13.393  0.00  0.00    -0.235 N 
ATOM    180  H   ARG d   1     149.468 141.820  12.336  0.00  0.00     0.174 HD
ATOM    181  H   ARG d   1     150.125 142.879  11.060  0.00  0.00     0.174 HD
ATOM    182  H   ARG d   1     152.658 141.120  13.748  0.00  0.00     0.174 HD
ATOM    183  H   ARG d   1     150.903 140.822  13.853  0.00  0.00     0.174 HD
ATOM    184  H   ARG d   1     153.486 142.461  12.132  0.00  0.00     0.177 HD
ENDBRANCH 173 176
ENDBRANCH 170 173
ENDBRANCH 167 170
ENDBRANCH 135 167
ENDBRANCH 133 135
ENDBRANCH 129 131
BRANCH 129 185
ATOM    185  CB  ARG d   1     147.179 147.573   8.240  0.00  0.00    -0.036 C 
ATOM    186  H   ARG d   1     146.234 148.101   8.437  0.00  0.00     0.036 H 
ATOM    187  H   ARG d   1     147.357 146.832   9.033  0.00  0.00     0.036 H 
BRANCH 185 188
ATOM    188  CG  ARG d   1     147.032 146.831   6.937  0.00  0.00    -0.048 C 
ATOM    189  H   ARG d   1     148.006 146.405   6.654  0.00  0.00     0.035 H 
ATOM    190  H   ARG d   1     146.700 147.534   6.159  0.00  0.00     0.035 H 
BRANCH 188 191
ATOM    191  CD  ARG d   1     146.008 145.700   7.059  0.00  0.00     0.009 C 
ATOM    192  H   ARG d   1     145.968 145.366   8.106  0.00  0.00     0.064 H 
ATOM    193  H   ARG d   1     146.323 144.863   6.419  0.00  0.00     0.064 H 
BRANCH 191 194
ATOM    194  NE  ARG d   1     144.677 146.134   6.649  0.00  0.00    -0.227 N 
ATOM    195  CZ  ARG d   1     143.788 146.690   7.467  0.00  0.00     0.665 C 
ATOM    196  NH1 ARG d   1     144.086 146.879   8.747  0.00  0.00    -0.235 N 
ATOM    197  NH2 ARG d   1     142.601 147.057   7.006  0.00  0.00    -0.235 N 
ATOM    198  H   ARG d   1     143.396 147.310   9.378  0.00  0.00     0.174 HD
ATOM    199  H   ARG d   1     145.008 146.595   9.109  0.00  0.00     0.174 HD
ATOM    200  H   ARG d   1     142.367 146.912   6.014  0.00  0.00     0.174 HD
ATOM    201  H   ARG d   1     141.913 147.487   7.640  0.00  0.00     0.174 HD
ATOM    202  H   ARG d   1     144.409 146.001   5.663  0.00  0.00     0.177 HD
ENDBRANCH 191 194
ENDBRANCH 188 191
ENDBRANCH 185 188
ENDBRANCH 129 185
ENDBRANCH 127 129
ENDBRANCH 123 125
BRANCH 123 203
ATOM    203  CB  PHE d   1     150.187 149.958   4.476  0.00  0.00    -0.014 C 
ATOM    204  H   PHE d   1     149.285 149.346   4.329  0.00  0.00     0.043 H 
ATOM    205  H   PHE d   1     150.832 149.880   3.588  0.00  0.00     0.043 H 
BRANCH 203 206
ATOM    206  CG  PHE d   1     149.776 151.372   4.638  0.00  0.00    -0.056 A 
ATOM    207  CD1 PHE d   1     150.726 152.372   4.642  0.00  0.00    -0.077 A 
ATOM    208  CE1 PHE d   1     150.358 153.692   4.796  0.00  0.00    -0.082 A 
ATOM    209  H   PHE d   1     151.773 152.118   4.523  0.00  0.00     0.084 H 
ATOM    210  CZ  PHE d   1     149.030 154.013   4.957  0.00  0.00    -0.083 A 
ATOM    211  H   PHE d   1     151.111 154.472   4.790  0.00  0.00     0.083 H 
ATOM    212  CE2 PHE d   1     148.070 153.015   4.962  0.00  0.00    -0.082 A 
ATOM    213  H   PHE d   1     148.735 155.049   5.080  0.00  0.00     0.083 H 
ATOM    214  CD2 PHE d   1     148.443 151.707   4.804  0.00  0.00    -0.077 A 
ATOM    215  H   PHE d   1     147.024 153.269   5.091  0.00  0.00     0.083 H 
ATOM    216  H   PHE d   1     147.689 150.928   4.809  0.00  0.00     0.084 H 
ENDBRANCH 203 206
ENDBRANCH 123 203
ENDBRANCH 121 123
ENDBRANCH 109 119
ENDBRANCH 107 109
ENDBRANCH   1 105
BRANCH   1 217
ATOM    217  CB  GLN d   1     149.590 142.867   5.568  0.00  0.00    -0.030 C 
ATOM    218  H   GLN d   1     149.762 142.703   6.642  0.00  0.00     0.037 H 
ATOM    219  H   GLN d   1     150.477 142.546   5.002  0.00  0.00     0.037 H 
BRANCH 217 220
ATOM    220  CG  GLN d   1     148.422 142.010   5.141  0.00  0.00     0.011 C 
ATOM    221  H   GLN d   1     147.552 142.659   4.961  0.00  0.00     0.047 H 
ATOM    222  H   GLN d   1     148.189 141.299   5.947  0.00  0.00     0.047 H 
BRANCH 220 223
ATOM    223  CD  GLN d   1     148.722 141.236   3.880  0.00  0.00     0.215 C 
ATOM    224  OE1 GLN d   1     149.134 141.814   2.837  0.00  0.00    -0.274 OA
ATOM    225  NE2 GLN d   1     148.540 139.910   3.961  0.00  0.00    -0.370 N 
ATOM    226  H   GLN d   1     148.719 139.331   3.165  0.00  0.00     0.159 HD
ATOM    227  H   GLN d   1     148.226 139.500   4.817  0.00  0.00     0.159 HD
ENDBRANCH 220 223
ENDBRANCH 217 220
ENDBRANCH   1 217
TORSDOF 65
