REMARK  4 active torsions:
REMARK  status: ('A' for Active; 'I' for Inactive)
REMARK    1  A    between atoms: S_2  and  N_4 
REMARK    2  A    between atoms: S_2  and  C10_5 
REMARK    3  A    between atoms: C7_10  and  C6_11 
REMARK    4  A    between atoms: C2_17  and  C3_18 
ROOT
ATOM      1  C10 B4S d   1       4.827  10.364  37.283  0.00  0.00     0.079 A 
ATOM      2  C9  B4S d   1       4.103  11.534  37.534  0.00  0.00    -0.059 A 
ATOM      3  C8  B4S d   1       2.719  11.571  37.327  0.00  0.00    -0.071 A 
ATOM      4  C11 B4S d   1       4.140   9.237  36.841  0.00  0.00    -0.059 A 
ATOM      5  C12 B4S d   1       2.761   9.265  36.640  0.00  0.00    -0.071 A 
ATOM      6  C7  B4S d   1       2.046  10.436  36.892  0.00  0.00    -0.026 A 
ATOM      7  H3  B4S d   1       4.617  12.419  37.892  0.00  0.00     0.085 H 
ATOM      8  H4  B4S d   1       2.170  12.489  37.507  0.00  0.00     0.084 H 
ATOM      9  H5  B4S d   1       4.687   8.321  36.650  0.00  0.00     0.085 H 
ATOM     10  H6  B4S d   1       2.245   8.379  36.289  0.00  0.00     0.084 H 
ENDROOT
BRANCH   6  11
ATOM     11  C6  B4S d   1       0.583  10.472  36.670  0.00  0.00    -0.023 A 
ATOM     12  C13 B4S d   1      -0.002  11.651  36.174  0.00  0.00    -0.034 A 
ATOM     13  C1  B4S d   1      -1.369  11.620  35.956  0.00  0.00     0.132 A 
ATOM     14  H7  B4S d   1       0.587  12.538  35.973  0.00  0.00     0.089 H 
ATOM     15  F1  B4S d   1      -2.059  12.648  35.508  0.00  0.00    -0.205 F 
ATOM     16  C2  B4S d   1      -2.168  10.418  36.231  0.00  0.00     0.086 A 
ATOM     17  C4  B4S d   1      -1.555   9.265  36.707  0.00  0.00    -0.064 A 
ATOM     18  C5  B4S d   1      -0.181   9.310  36.919  0.00  0.00    -0.071 A 
ATOM     19  H9  B4S d   1      -2.126   8.365  36.905  0.00  0.00     0.084 H 
ATOM     20  H8  B4S d   1       0.321   8.423  37.288  0.00  0.00     0.084 H 
BRANCH  16  21
ATOM     21  C3  B4S d   1      -3.635  10.575  35.968  0.00  0.00     0.420 C 
ATOM     22  F2  B4S d   1      -4.203   9.365  35.861  0.00  0.00    -0.166 F 
ATOM     23  F3  B4S d   1      -3.744  11.249  34.817  0.00  0.00    -0.166 F 
ATOM     24  F4  B4S d   1      -4.133  11.330  36.987  0.00  0.00    -0.166 F 
ENDBRANCH  16  21
ENDBRANCH   6  11
BRANCH   1  25
ATOM     25  S   B4S d   1       6.427  10.302  37.500  0.00  0.00     0.256 S 
ATOM     26  O2  B4S d   1       6.994  11.627  37.417  0.00  0.00    -0.201 OA
ATOM     27  O1  B4S d   1       6.748   9.753  38.800  0.00  0.00    -0.201 OA
BRANCH  25  28
ATOM     28  N   B4S d   1       7.073   9.412  36.341  0.00  0.00    -0.324 N 
ATOM     29  H1  B4S d   1       6.939   9.665  35.383  0.00  0.00     0.169 HD
ATOM     30  H2  B4S d   1       7.611   8.602  36.574  0.00  0.00     0.169 HD
ENDBRANCH  25  28
ENDBRANCH   1  25
TORSDOF 4
