REMARK  13 active torsions:
REMARK  status: ('A' for Active; 'I' for Inactive)
REMARK    1  A    between atoms: C1_1  and  C2_2 
REMARK    2  A    between atoms: C1_1  and  N2_3 
REMARK    3  A    between atoms: C2_2  and  C3_4 
REMARK    4  A    between atoms: N1_10  and  C1'_11 
REMARK    5  A    between atoms: C2'_13  and  O2'_14 
REMARK    6  A    between atoms: C3'_15  and  O3'_16 
REMARK    7  A    between atoms: C4'_17  and  O4'_18 
REMARK    8  A    between atoms: C5'_19  and  C6'_20 
REMARK    9  A    between atoms: C6'_20  and  O6'_21 
REMARK   10  A    between atoms: O6'_21  and  C1A_22 
REMARK   11  A    between atoms: C4A_25  and  O4A_26 
REMARK   12  A    between atoms: C3A_27  and  O3A_28 
REMARK   13  A    between atoms: C2A_29  and  O2A_30 
ROOT
ATOM      1  C1' VPA d   1     -28.304  13.275 -23.775  0.00  0.00     0.132 C 
ATOM      2  O5' VPA d   1     -29.705  13.511 -24.084  0.00  0.00    -0.354 OA
ATOM      3  C2' VPA d   1     -27.614  12.067 -24.441  0.00  0.00     0.104 C 
ATOM      4  C3' VPA d   1     -28.232  11.696 -25.793  0.00  0.00     0.091 C 
ATOM      5  C4' VPA d   1     -29.741  11.719 -25.643  0.00  0.00     0.089 C 
ATOM      6  C5' VPA d   1     -30.183  13.147 -25.380  0.00  0.00     0.089 C 
ATOM      7  H11 VPA d   1     -27.747  14.181 -24.058  0.00  0.00     0.122 H 
ATOM      8  H12 VPA d   1     -27.727  11.200 -23.773  0.00  0.00     0.093 H 
ATOM      9  H14 VPA d   1     -27.923  12.431 -26.551  0.00  0.00     0.091 H 
ATOM     10  H16 VPA d   1     -30.029  11.090 -24.788  0.00  0.00     0.091 H 
ATOM     11  H18 VPA d   1     -29.811  13.825 -26.162  0.00  0.00     0.090 H 
ENDROOT
BRANCH   6  12
ATOM     12  C6' VPA d   1     -31.689  13.203 -25.267  0.00  0.00     0.049 C 
ATOM     13  H19 VPA d   1     -32.169  12.792 -26.167  0.00  0.00     0.078 H 
ATOM     14  H20 VPA d   1     -32.036  14.234 -25.105  0.00  0.00     0.078 H 
BRANCH  12  15
ATOM     15  O6' VPA d   1     -31.955  12.380 -24.116  0.00  0.00    -0.356 OA
BRANCH  15  16
ATOM     16  C1A VPA d   1     -33.354  12.135 -23.952  0.00  0.00     0.158 C 
ATOM     17  O5A VPA d   1     -33.847  13.002 -22.899  0.00  0.00    -0.356 OA
ATOM     18  C5A VPA d   1     -35.248  12.780 -22.631  0.00  0.00     0.049 C 
ATOM     19  C4A VPA d   1     -35.453  11.337 -22.171  0.00  0.00     0.083 C 
ATOM     20  H22 VPA d   1     -35.830  12.960 -23.547  0.00  0.00     0.078 H 
ATOM     21  H23 VPA d   1     -35.584  13.468 -21.842  0.00  0.00     0.078 H 
ATOM     22  C3A VPA d   1     -35.011  10.402 -23.289  0.00  0.00     0.091 C 
ATOM     23  H24 VPA d   1     -34.840  11.150 -21.277  0.00  0.00     0.090 H 
ATOM     24  C2A VPA d   1     -33.539  10.663 -23.575  0.00  0.00     0.110 C 
ATOM     25  H26 VPA d   1     -35.603  10.604 -24.194  0.00  0.00     0.091 H 
ATOM     26  H28 VPA d   1     -32.958  10.453 -22.665  0.00  0.00     0.094 H 
ATOM     27  H21 VPA d   1     -33.890  12.348 -24.889  0.00  0.00     0.133 H 
BRANCH  19  28
ATOM     28  O4A VPA d   1     -36.826  11.107 -21.849  0.00  0.00    -0.391 OA
ATOM     29  H25 VPA d   1     -37.361  11.266 -22.617  0.00  0.00     0.210 HD
ENDBRANCH  19  28
BRANCH  22  30
ATOM     30  O3A VPA d   1     -35.204   9.047 -22.896  0.00  0.00    -0.390 OA
ATOM     31  H27 VPA d   1     -36.124   8.900 -22.711  0.00  0.00     0.210 HD
ENDBRANCH  22  30
BRANCH  24  32
ATOM     32  O2A VPA d   1     -33.066   9.809 -24.625  0.00  0.00    -0.388 OA
ATOM     33  H29 VPA d   1     -33.566   9.974 -25.416  0.00  0.00     0.210 HD
ENDBRANCH  24  32
ENDBRANCH  15  16
ENDBRANCH  12  15
ENDBRANCH   6  12
BRANCH   5  34
ATOM     34  O4' VPA d   1     -30.362  11.208 -26.818  0.00  0.00    -0.390 OA
ATOM     35  H17 VPA d   1     -31.306  11.228 -26.710  0.00  0.00     0.210 HD
ENDBRANCH   5  34
BRANCH   1  36
ATOM     36  N1  VPA d   1     -28.186  13.046 -22.322  0.00  0.00    -0.351 N 
ATOM     37  C1  VPA d   1     -29.216  12.631 -21.601  0.00  0.00     0.076 C 
ATOM     38  H10 VPA d   1     -27.282  13.213 -21.858  0.00  0.00     0.163 HD
BRANCH  37  39
ATOM     39  C2  VPA d   1     -29.025  12.387 -20.099  0.00  0.00     0.011 C 
ATOM     40  H1  VPA d   1     -29.318  13.298 -19.556  0.00  0.00     0.051 H 
ATOM     41  H2  VPA d   1     -27.962  12.173 -19.911  0.00  0.00     0.051 H 
BRANCH  39  42
ATOM     42  C3  VPA d   1     -29.867  11.204 -19.567  0.00  0.00    -0.051 A 
ATOM     43  C4  VPA d   1     -30.160  11.154 -18.206  0.00  0.00    -0.076 A 
ATOM     44  C5  VPA d   1     -30.912  10.109 -17.676  0.00  0.00    -0.082 A 
ATOM     45  H5  VPA d   1     -29.798  11.938 -17.551  0.00  0.00     0.084 H 
ATOM     46  C6  VPA d   1     -31.378   9.098 -18.507  0.00  0.00    -0.083 A 
ATOM     47  H6  VPA d   1     -31.134  10.084 -16.615  0.00  0.00     0.083 H 
ATOM     48  C7  VPA d   1     -31.093   9.137 -19.867  0.00  0.00    -0.082 A 
ATOM     49  H7  VPA d   1     -31.962   8.282 -18.096  0.00  0.00     0.083 H 
ATOM     50  C8  VPA d   1     -30.336  10.180 -20.392  0.00  0.00    -0.076 A 
ATOM     51  H9  VPA d   1     -31.461   8.354 -20.520  0.00  0.00     0.083 H 
ATOM     52  H8  VPA d   1     -30.108  10.198 -21.452  0.00  0.00     0.084 H 
ENDBRANCH  39  42
ENDBRANCH  37  39
BRANCH  37  53
ATOM     53  N2  VPA d   1     -30.400  12.493 -22.178  0.00  0.00    -0.389 N 
ATOM     54  H3  VPA d   1     -30.503  12.662 -23.189  0.00  0.00     0.157 HD
ATOM     55  H4  VPA d   1     -31.218  12.216 -21.616  0.00  0.00     0.157 HD
ENDBRANCH  37  53
ENDBRANCH   1  36
BRANCH   4  56
ATOM     56  O3' VPA d   1     -27.812  10.390 -26.205  0.00  0.00    -0.390 OA
ATOM     57  H15 VPA d   1     -28.206  10.182 -27.044  0.00  0.00     0.210 HD
ENDBRANCH   4  56
BRANCH   3  58
ATOM     58  O2' VPA d   1     -26.216  12.348 -24.587  0.00  0.00    -0.389 OA
ATOM     59  H13 VPA d   1     -26.104  13.120 -25.129  0.00  0.00     0.210 HD
ENDBRANCH   3  58
TORSDOF 13
