REMARK  9 active torsions:
REMARK  status: ('A' for Active; 'I' for Inactive)
REMARK       I    between atoms: C15_15  and  N2_2 
REMARK    1  A    between atoms: N3_3  and  C16_16 
REMARK    2  A    between atoms: C17_17  and  N3_3 
REMARK    3  A    between atoms: N4_4  and  C20_20 
REMARK       I    between atoms: C21_21  and  N4_4 
REMARK    4  A    between atoms: C16_16  and  C15_15 
REMARK    5  A    between atoms: C17_17  and  C18_18 
REMARK    6  A    between atoms: C17_17  and  C19_19 
REMARK    7  A    between atoms: C20_20  and  C17_17 
REMARK    8  A    between atoms: C22_22  and  C21_21 
REMARK    9  A    between atoms: C27_27  and  C28_28 
ROOT
ATOM      1  N1  SKK d   1      50.384  50.309  36.663  0.00  0.00    -0.195 NA
ATOM      2  N2  SKK d   1      47.212  50.615  37.876  0.00  0.00    -0.334 N 
ATOM      3  O8  SKK d   1      47.762  52.397  36.588  0.00  0.00    -0.271 OA
ATOM      4  C10 SKK d   1      49.566  50.391  37.475  0.00  0.00     0.084 C 
ATOM      5  C11 SKK d   1      48.512  50.514  38.497  0.00  0.00     0.098 C 
ATOM      6  C12 SKK d   1      48.361  49.287  39.412  0.00  0.00    -0.032 C 
ATOM      7  C13 SKK d   1      46.862  49.153  39.646  0.00  0.00    -0.047 C 
ATOM      8  C14 SKK d   1      46.240  49.645  38.340  0.00  0.00    -0.001 C 
ATOM      9  C15 SKK d   1      46.939  51.551  36.942  0.00  0.00     0.246 C 
ATOM     10  H4  SKK d   1      48.722  51.407  39.104  0.00  0.00     0.096 H 
ATOM     11  H5  SKK d   1      48.888  49.447  40.364  0.00  0.00     0.037 H 
ATOM     12  H6  SKK d   1      48.758  48.387  38.920  0.00  0.00     0.037 H 
ATOM     13  H7  SKK d   1      46.541  49.778  40.492  0.00  0.00     0.035 H 
ATOM     14  H8  SKK d   1      46.588  48.105  39.839  0.00  0.00     0.035 H 
ATOM     15  H9  SKK d   1      46.125  48.822  37.620  0.00  0.00     0.064 H 
ATOM     16  H10 SKK d   1      45.262  50.116  38.518  0.00  0.00     0.064 H 
ENDROOT
BRANCH   9  17
ATOM     17  C16 SKK d   1      45.538  51.536  36.323  0.00  0.00     0.155 C 
ATOM     18  H11 SKK d   1      45.202  50.491  36.251  0.00  0.00     0.090 H 
ATOM     19  H12 SKK d   1      44.861  52.094  36.986  0.00  0.00     0.090 H 
BRANCH  17  20
ATOM     20  N3  SKK d   1      45.472  52.140  34.975  0.00  0.00    -0.057 N 
ATOM     21  H1  SKK d   1      46.055  52.962  34.989  0.00  0.00     0.278 HD
ATOM     22  H2  SKK d   1      44.514  52.410  34.817  0.00  0.00     0.278 HD
BRANCH  20  23
ATOM     23  C17 SKK d   1      45.896  51.321  33.807  0.00  0.00     0.135 C 
BRANCH  23  24
ATOM     24  C18 SKK d   1      47.428  51.378  33.639  0.00  0.00    -0.044 C 
ATOM     25  H13 SKK d   1      47.725  50.769  32.773  0.00  0.00     0.030 H 
ATOM     26  H14 SKK d   1      47.911  50.986  34.546  0.00  0.00     0.030 H 
ATOM     27  H15 SKK d   1      47.741  52.420  33.478  0.00  0.00     0.030 H 
ENDBRANCH  23  24
BRANCH  23  28
ATOM     28  C19 SKK d   1      45.457  49.841  33.937  0.00  0.00    -0.044 C 
ATOM     29  H16 SKK d   1      45.793  49.280  33.053  0.00  0.00     0.030 H 
ATOM     30  H17 SKK d   1      44.361  49.789  34.010  0.00  0.00     0.030 H 
ATOM     31  H18 SKK d   1      45.906  49.403  34.841  0.00  0.00     0.030 H 
ENDBRANCH  23  28
BRANCH  23  32
ATOM     32  C20 SKK d   1      45.218  51.972  32.589  0.00  0.00     0.026 C 
ATOM     33  H19 SKK d   1      44.153  52.121  32.819  0.00  0.00     0.067 H 
ATOM     34  H20 SKK d   1      45.693  52.947  32.403  0.00  0.00     0.067 H 
BRANCH  32  35
ATOM     35  N4  SKK d   1      45.323  51.164  31.375  0.00  0.00    -0.354 N 
ATOM     36  C21 SKK d   1      44.258  50.885  30.599  0.00  0.00     0.254 C 
ATOM     37  O9  SKK d   1      43.113  51.273  30.843  0.00  0.00    -0.268 OA
ATOM     38  H3  SKK d   1      46.218  50.805  31.111  0.00  0.00     0.162 HD
BRANCH  36  39
ATOM     39  C22 SKK d   1      44.555  50.058  29.370  0.00  0.00     0.067 A 
ATOM     40  C23 SKK d   1      45.791  49.474  29.182  0.00  0.00     0.023 A 
ATOM     41  N6  SKK d   1      45.962  48.740  28.050  0.00  0.00    -0.226 N 
ATOM     42  H21 SKK d   1      46.594  49.596  29.908  0.00  0.00     0.116 H 
ATOM     43  N7  SKK d   1      47.111  48.061  27.663  0.00  0.00    -0.171 NA
ATOM     44  C25 SKK d   1      44.937  48.572  27.083  0.00  0.00     0.151 A 
ATOM     45  C27 SKK d   1      46.798  47.503  26.508  0.00  0.00     0.055 A 
ATOM     46  C26 SKK d   1      45.474  47.788  26.109  0.00  0.00    -0.012 A 
ATOM     47  H23 SKK d   1      44.980  47.447  25.200  0.00  0.00     0.092 H 
ATOM     48  N5  SKK d   1      43.729  49.147  27.258  0.00  0.00    -0.240 NA
ATOM     49  C24 SKK d   1      43.559  49.858  28.374  0.00  0.00     0.021 A 
ATOM     50  H22 SKK d   1      42.586  50.319  28.534  0.00  0.00     0.116 H 
BRANCH  45  51
ATOM     51  C28 SKK d   1      47.791  46.669  25.757  0.00  0.00    -0.034 C 
ATOM     52  H24 SKK d   1      47.332  46.301  24.827  0.00  0.00     0.035 H 
ATOM     53  H25 SKK d   1      48.096  45.814  26.378  0.00  0.00     0.035 H 
ATOM     54  H26 SKK d   1      48.673  47.279  25.514  0.00  0.00     0.035 H 
ENDBRANCH  45  51
ENDBRANCH  36  39
ENDBRANCH  32  35
ENDBRANCH  23  32
ENDBRANCH  20  23
ENDBRANCH  17  20
ENDBRANCH   9  17
TORSDOF 9
