REMARK  6 active torsions:
REMARK  status: ('A' for Active; 'I' for Inactive)
REMARK    1  A    between atoms: CAW_13  and  CAV_14 
REMARK    2  A    between atoms: CAU_19  and  CAS_20 
REMARK    3  A    between atoms: CAS_20  and  CBB_21 
REMARK    4  A    between atoms: CBB_21  and  PBC_22 
REMARK    5  A    between atoms: CBB_21  and  PBD_26 
REMARK    6  A    between atoms: CBB_21  and  OAC_30 
ROOT
ATOM      1  CAV B29 d   1      -5.524 -15.796  21.138  0.00  0.00    -0.023 A 
ATOM      2  CAR B29 d   1      -6.529 -16.814  21.252  0.00  0.00    -0.066 A 
ATOM      3  CAM B29 d   1      -4.986 -15.518  19.844  0.00  0.00    -0.072 A 
ATOM      4  CAJ B29 d   1      -5.436 -16.229  18.710  0.00  0.00    -0.082 A 
ATOM      5  CAL B29 d   1      -6.422 -17.230  18.834  0.00  0.00    -0.077 A 
ATOM      6  CAU B29 d   1      -6.982 -17.533  20.109  0.00  0.00    -0.053 A 
ATOM      7  H   B29 d   1      -6.951 -17.040  22.225  0.00  0.00     0.085 H 
ATOM      8  H   B29 d   1      -4.225 -14.754  19.732  0.00  0.00     0.084 H 
ATOM      9  H   B29 d   1      -5.020 -16.003  17.735  0.00  0.00     0.083 H 
ATOM     10  H   B29 d   1      -6.755 -17.771  17.956  0.00  0.00     0.084 H 
ENDROOT
BRANCH   1  11
ATOM     11  CAW B29 d   1      -5.044 -15.069  22.281  0.00  0.00     0.009 A 
ATOM     12  CBA B29 d   1      -5.098 -15.638  23.606  0.00  0.00     0.098 A 
ATOM     13  OAT B29 d   1      -5.565 -16.845  24.070  0.00  0.00    -0.308 OA
ATOM     14  CAZ B29 d   1      -4.605 -14.911  24.723  0.00  0.00     0.012 A 
ATOM     15  CAX B29 d   1      -5.394 -16.918  25.422  0.00  0.00     0.087 A 
ATOM     16  CAY B29 d   1      -4.787 -15.709  25.850  0.00  0.00     0.011 A 
ATOM     17  CAO B29 d   1      -5.707 -17.934  26.362  0.00  0.00    -0.049 A 
ATOM     18  CAP B29 d   1      -4.491 -15.517  27.229  0.00  0.00    -0.069 A 
ATOM     19  CAI B29 d   1      -4.804 -16.532  28.171  0.00  0.00    -0.082 A 
ATOM     20  H   B29 d   1      -4.026 -14.595  27.560  0.00  0.00     0.085 H 
ATOM     21  CAH B29 d   1      -5.412 -17.741  27.739  0.00  0.00    -0.080 A 
ATOM     22  H   B29 d   1      -4.579 -16.384  29.221  0.00  0.00     0.083 H 
ATOM     23  H   B29 d   1      -5.651 -18.516  28.459  0.00  0.00     0.083 H 
ATOM     24  H   B29 d   1      -6.170 -18.856  26.030  0.00  0.00     0.087 H 
ATOM     25  CAQ B29 d   1      -4.055 -13.615  24.542  0.00  0.00    -0.069 A 
ATOM     26  CAK B29 d   1      -4.002 -13.046  23.250  0.00  0.00    -0.081 A 
ATOM     27  H   B29 d   1      -3.676 -13.062  25.394  0.00  0.00     0.085 H 
ATOM     28  CAN B29 d   1      -4.487 -13.761  22.130  0.00  0.00    -0.069 A 
ATOM     29  H   B29 d   1      -3.587 -12.054  23.116  0.00  0.00     0.083 H 
ATOM     30  H   B29 d   1      -4.436 -13.312  21.145  0.00  0.00     0.085 H 
ENDBRANCH   1  11
BRANCH   6  31
ATOM     31  CAS B29 d   1      -8.062 -18.630  20.285  0.00  0.00     0.014 C 
ATOM     32  H   B29 d   1      -8.526 -18.475  21.270  0.00  0.00     0.046 H 
ATOM     33  H   B29 d   1      -7.545 -19.601  20.272  0.00  0.00     0.046 H 
BRANCH  31  34
ATOM     34  CBB B29 d   1      -9.211 -18.707  19.243  0.00  0.00     0.289 C 
BRANCH  34  35
ATOM     35  PBC B29 d   1     -10.352 -20.137  19.688  0.00  0.00     0.310 P 
ATOM     36  OAD B29 d   1     -10.453 -20.229  21.296  0.00  0.00    -0.637 OA
ATOM     37  OAE B29 d   1     -11.821 -19.768  19.166  0.00  0.00    -0.637 OA
ATOM     38  OAA B29 d   1      -9.889 -21.406  19.082  0.00  0.00    -0.637 OA
ENDBRANCH  34  35
BRANCH  34  39
ATOM     39  PBD B29 d   1     -10.284 -17.156  19.151  0.00  0.00     0.310 P 
ATOM     40  OAF B29 d   1     -11.361 -17.298  20.354  0.00  0.00    -0.637 OA
ATOM     41  OAG B29 d   1      -9.409 -15.848  19.473  0.00  0.00    -0.637 OA
ATOM     42  OAB B29 d   1     -10.938 -17.089  17.823  0.00  0.00    -0.637 OA
ENDBRANCH  34  39
BRANCH  34  43
ATOM     43  OAC B29 d   1      -8.664 -18.957  17.940  0.00  0.00    -0.365 OA
ATOM     44  H   B29 d   1      -9.370 -19.020  17.308  0.00  0.00     0.212 HD
ENDBRANCH  34  43
ENDBRANCH  31  34
ENDBRANCH   6  31
TORSDOF 6
