REMARK  30 active torsions:
REMARK  status: ('A' for Active; 'I' for Inactive)
REMARK    1  A    between atoms: C1_1  and  O1_8 
REMARK    2  A    between atoms: C2_2  and  N2_7 
REMARK    3  A    between atoms: C3_3  and  O3_9 
REMARK    4  A    between atoms: C4_4  and  O4_10 
REMARK    5  A    between atoms: C5_5  and  C6_6 
REMARK    6  A    between atoms: C6_6  and  O6_12 
REMARK    7  A    between atoms: O4_10  and  C1_13 
REMARK    8  A    between atoms: C2_14  and  N2_19 
REMARK    9  A    between atoms: C3_15  and  O3_20 
REMARK   10  A    between atoms: C4_16  and  O4_21 
REMARK   11  A    between atoms: C5_17  and  C6_18 
REMARK   12  A    between atoms: C6_18  and  O6_23 
REMARK   13  A    between atoms: O4_21  and  C1_24 
REMARK   14  A    between atoms: C2_25  and  N2_30 
REMARK   15  A    between atoms: C3_26  and  O3_31 
REMARK   16  A    between atoms: C4_27  and  O4_32 
REMARK   17  A    between atoms: C5_28  and  C6_29 
REMARK   18  A    between atoms: C6_29  and  O6_34 
REMARK   19  A    between atoms: O4_32  and  C1_35 
REMARK   20  A    between atoms: C2_36  and  N2_41 
REMARK   21  A    between atoms: C3_37  and  O3_42 
REMARK   22  A    between atoms: C4_38  and  O4_43 
REMARK   23  A    between atoms: C5_39  and  C6_40 
REMARK   24  A    between atoms: C6_40  and  O6_45 
REMARK   25  A    between atoms: O4_43  and  C1_46 
REMARK   26  A    between atoms: C2_47  and  N2_52 
REMARK   27  A    between atoms: C3_48  and  O3_53 
REMARK   28  A    between atoms: C4_49  and  O4_54 
REMARK   29  A    between atoms: C5_50  and  C6_51 
REMARK   30  A    between atoms: C6_51  and  O6_56 
ROOT
ATOM      1  C1  GCS d   1     -30.409  26.714   5.972  0.00  0.00     0.162 C 
ATOM      2  C2  GCS d   1     -29.015  26.795   5.361  0.00  0.00     0.173 C 
ATOM      3  C3  GCS d   1     -27.944  27.088   6.411  0.00  0.00     0.095 C 
ATOM      4  C4  GCS d   1     -28.348  28.191   7.387  0.00  0.00     0.095 C 
ATOM      5  C5  GCS d   1     -29.826  28.101   7.782  0.00  0.00     0.089 C 
ATOM      6  O5  GCS d   1     -30.658  27.917   6.655  0.00  0.00    -0.349 OA
ATOM      7  H   GCS d   1     -30.442  25.886   6.695  0.00  0.00     0.132 H 
ATOM      8  H   GCS d   1     -29.012  27.621   4.635  0.00  0.00     0.096 H 
ATOM      9  H   GCS d   1     -27.773  26.168   6.989  0.00  0.00     0.090 H 
ATOM     10  H   GCS d   1     -28.155  29.174   6.933  0.00  0.00     0.091 H 
ATOM     11  H   GCS d   1     -29.941  27.235   8.451  0.00  0.00     0.090 H 
ENDROOT
BRANCH   1  12
ATOM     12  O4  GCS d   1     -31.372  26.450   4.933  0.00  0.00    -0.348 OA
BRANCH  12  13
ATOM     13  C4  GCS d   1     -32.554  25.839   5.416  0.00  0.00     0.095 C 
ATOM     14  C3  GCS d   1     -33.613  26.894   5.726  0.00  0.00     0.095 C 
ATOM     15  C2  GCS d   1     -34.986  26.267   5.948  0.00  0.00     0.173 C 
ATOM     16  H   GCS d   1     -33.674  27.582   4.870  0.00  0.00     0.090 H 
ATOM     17  C1  GCS d   1     -35.351  25.234   4.886  0.00  0.00     0.162 C 
ATOM     18  H   GCS d   1     -34.966  25.754   6.921  0.00  0.00     0.096 H 
ATOM     19  O5  GCS d   1     -34.307  24.300   4.736  0.00  0.00    -0.349 OA
ATOM     20  H   GCS d   1     -35.504  25.742   3.923  0.00  0.00     0.132 H 
ATOM     21  C5  GCS d   1     -33.062  24.854   4.364  0.00  0.00     0.089 C 
ATOM     22  H   GCS d   1     -33.181  25.395   3.414  0.00  0.00     0.090 H 
ATOM     23  H   GCS d   1     -32.323  25.289   6.340  0.00  0.00     0.091 H 
BRANCH  14  24
ATOM     24  O3  GCS d   1     -33.268  27.631   6.879  0.00  0.00    -0.391 OA
ATOM     25  H   GCS d   1     -32.435  28.066   6.738  0.00  0.00     0.210 HD
ENDBRANCH  14  24
BRANCH  15  26
ATOM     26  N2  GCS d   1     -36.000  27.303   6.000  0.00  0.00    -0.068 N 
ATOM     27  H   GCS d   1     -36.904  26.881   6.147  0.00  0.00     0.275 HD
ATOM     28  H   GCS d   1     -36.004  27.813   5.130  0.00  0.00     0.275 HD
ATOM     29  H   GCS d   1     -35.797  27.934   6.759  0.00  0.00     0.275 HD
ENDBRANCH  15  26
BRANCH  17  30
ATOM     30  O4  GCS d   1     -36.583  24.609   5.283  0.00  0.00    -0.348 OA
BRANCH  30  31
ATOM     31  C4  GCS d   1     -37.332  24.063   4.218  0.00  0.00     0.095 C 
ATOM     32  C3  GCS d   1     -36.840  22.661   3.843  0.00  0.00     0.095 C 
ATOM     33  C2  GCS d   1     -37.870  21.927   2.992  0.00  0.00     0.173 C 
ATOM     34  H   GCS d   1     -36.687  22.096   4.774  0.00  0.00     0.090 H 
ATOM     35  C1  GCS d   1     -39.216  21.968   3.696  0.00  0.00     0.158 C 
ATOM     36  H   GCS d   1     -37.960  22.441   2.024  0.00  0.00     0.096 H 
ATOM     37  O5  GCS d   1     -39.610  23.319   3.800  0.00  0.00    -0.349 OA
ATOM     38  H   GCS d   1     -39.118  21.537   4.703  0.00  0.00     0.132 H 
ATOM     39  C5  GCS d   1     -38.782  24.027   4.704  0.00  0.00     0.089 C 
ATOM     40  H   GCS d   1     -38.799  23.495   5.667  0.00  0.00     0.090 H 
ATOM     41  H   GCS d   1     -37.250  24.713   3.335  0.00  0.00     0.091 H 
BRANCH  32  42
ATOM     42  O3  GCS d   1     -35.620  22.695   3.137  0.00  0.00    -0.391 OA
ATOM     43  H   GCS d   1     -34.955  23.107   3.676  0.00  0.00     0.210 HD
ENDBRANCH  32  42
BRANCH  33  44
ATOM     44  N2  GCS d   1     -37.460  20.557   2.748  0.00  0.00    -0.068 N 
ATOM     45  H   GCS d   1     -38.156  20.093   2.185  0.00  0.00     0.275 HD
ATOM     46  H   GCS d   1     -37.363  20.074   3.627  0.00  0.00     0.275 HD
ATOM     47  H   GCS d   1     -36.577  20.552   2.263  0.00  0.00     0.275 HD
ENDBRANCH  33  44
BRANCH  35  48
ATOM     48  O1  GCS d   1     -40.167  21.226   2.971  0.00  0.00    -0.369 OA
ATOM     49  H   GCS d   1     -41.006  21.268   3.415  0.00  0.00     0.212 HD
ENDBRANCH  35  48
BRANCH  39  50
ATOM     50  C6  GCS d   1     -39.331  25.434   4.934  0.00  0.00     0.043 C 
ATOM     51  H   GCS d   1     -38.653  25.985   5.603  0.00  0.00     0.078 H 
ATOM     52  H   GCS d   1     -40.326  25.365   5.397  0.00  0.00     0.078 H 
BRANCH  50  53
ATOM     53  O6  GCS d   1     -39.434  26.119   3.708  0.00  0.00    -0.398 OA
ATOM     54  H   GCS d   1     -40.021  25.645   3.130  0.00  0.00     0.209 HD
ENDBRANCH  50  53
ENDBRANCH  39  50
ENDBRANCH  30  31
ENDBRANCH  17  30
BRANCH  21  55
ATOM     55  C6  GCS d   1     -32.087  23.705   4.160  0.00  0.00     0.043 C 
ATOM     56  H   GCS d   1     -32.088  23.058   5.050  0.00  0.00     0.078 H 
ATOM     57  H   GCS d   1     -31.075  24.104   3.998  0.00  0.00     0.078 H 
BRANCH  55  58
ATOM     58  O6  GCS d   1     -32.488  22.960   3.033  0.00  0.00    -0.398 OA
ATOM     59  H   GCS d   1     -31.883  22.240   2.899  0.00  0.00     0.209 HD
ENDBRANCH  55  58
ENDBRANCH  21  55
ENDBRANCH  12  13
ENDBRANCH   1  12
BRANCH   2  60
ATOM     60  N2  GCS d   1     -28.700  25.569   4.654  0.00  0.00    -0.068 N 
ATOM     61  H   GCS d   1     -29.413  25.386   3.965  0.00  0.00     0.275 HD
ATOM     62  H   GCS d   1     -28.662  24.804   5.309  0.00  0.00     0.275 HD
ATOM     63  H   GCS d   1     -27.807  25.665   4.197  0.00  0.00     0.275 HD
ENDBRANCH   2  60
BRANCH   3  64
ATOM     64  O3  GCS d   1     -26.743  27.447   5.763  0.00  0.00    -0.391 OA
ATOM     65  H   GCS d   1     -26.494  26.759   5.157  0.00  0.00     0.210 HD
ENDBRANCH   3  64
BRANCH   5  66
ATOM     66  C6  GCS d   1     -30.315  29.349   8.515  0.00  0.00     0.043 C 
ATOM     67  H   GCS d   1     -29.449  29.916   8.887  0.00  0.00     0.078 H 
ATOM     68  H   GCS d   1     -30.949  29.049   9.363  0.00  0.00     0.078 H 
BRANCH  66  69
ATOM     69  O6  GCS d   1     -31.063  30.162   7.637  0.00  0.00    -0.398 OA
ATOM     70  H   GCS d   1     -31.812  29.674   7.316  0.00  0.00     0.209 HD
ENDBRANCH  66  69
ENDBRANCH   5  66
BRANCH   4  71
ATOM     71  O4  GCS d   1     -27.551  28.022   8.543  0.00  0.00    -0.348 OA
BRANCH  71  72
ATOM     72  C1  GCS d   1     -26.926  29.241   9.005  0.00  0.00     0.162 C 
ATOM     73  C2  GCS d   1     -25.816  28.906   9.981  0.00  0.00     0.173 C 
ATOM     74  C3  GCS d   1     -25.436  30.159  10.753  0.00  0.00     0.095 C 
ATOM     75  H   GCS d   1     -24.939  28.554   9.418  0.00  0.00     0.096 H 
ATOM     76  C4  GCS d   1     -25.212  31.367   9.824  0.00  0.00     0.095 C 
ATOM     77  H   GCS d   1     -26.248  30.411  11.451  0.00  0.00     0.090 H 
ATOM     78  C5  GCS d   1     -26.088  31.372   8.560  0.00  0.00     0.089 C 
ATOM     79  H   GCS d   1     -24.158  31.344   9.510  0.00  0.00     0.091 H 
ATOM     80  O5  GCS d   1     -26.365  30.085   8.028  0.00  0.00    -0.349 OA
ATOM     81  H   GCS d   1     -27.051  31.828   8.834  0.00  0.00     0.090 H 
ATOM     82  H   GCS d   1     -27.701  29.817   9.531  0.00  0.00     0.132 H 
BRANCH  73  83
ATOM     83  N2  GCS d   1     -26.238  27.855  10.887  0.00  0.00    -0.068 N 
ATOM     84  H   GCS d   1     -26.485  27.034  10.357  0.00  0.00     0.275 HD
ATOM     85  H   GCS d   1     -27.038  28.168  11.415  0.00  0.00     0.275 HD
ATOM     86  H   GCS d   1     -25.484  27.633  11.518  0.00  0.00     0.275 HD
ENDBRANCH  73  83
BRANCH  74  87
ATOM     87  O3  GCS d   1     -24.271  29.845  11.490  0.00  0.00    -0.391 OA
ATOM     88  H   GCS d   1     -24.024  30.592  12.023  0.00  0.00     0.210 HD
ENDBRANCH  74  87
BRANCH  76  89
ATOM     89  O4  GCS d   1     -25.463  32.595  10.494  0.00  0.00    -0.348 OA
BRANCH  89  90
ATOM     90  C1  GCS d   1     -24.513  32.837  11.552  0.00  0.00     0.162 C 
ATOM     91  C2  GCS d   1     -24.049  34.298  11.568  0.00  0.00     0.173 C 
ATOM     92  C3  GCS d   1     -23.334  34.707  12.862  0.00  0.00     0.094 C 
ATOM     93  H   GCS d   1     -24.941  34.933  11.461  0.00  0.00     0.096 H 
ATOM     94  C4  GCS d   1     -23.875  34.014  14.108  0.00  0.00     0.089 C 
ATOM     95  H   GCS d   1     -22.275  34.428  12.760  0.00  0.00     0.090 H 
ATOM     96  C5  GCS d   1     -24.008  32.539  13.784  0.00  0.00     0.089 C 
ATOM     97  H   GCS d   1     -24.860  34.430  14.366  0.00  0.00     0.091 H 
ATOM     98  O5  GCS d   1     -25.013  32.437  12.809  0.00  0.00    -0.349 OA
ATOM     99  H   GCS d   1     -23.057  32.187  13.357  0.00  0.00     0.090 H 
ATOM    100  H   GCS d   1     -23.629  32.217  11.342  0.00  0.00     0.132 H 
BRANCH  91 101
ATOM    101  N2  GCS d   1     -23.167  34.546  10.443  0.00  0.00    -0.068 N 
ATOM    102  H   GCS d   1     -23.630  34.280   9.588  0.00  0.00     0.275 HD
ATOM    103  H   GCS d   1     -22.324  34.004  10.551  0.00  0.00     0.275 HD
ATOM    104  H   GCS d   1     -22.935  35.526  10.408  0.00  0.00     0.275 HD
ENDBRANCH  91 101
BRANCH  92 105
ATOM    105  O3  GCS d   1     -23.414  36.107  13.020  0.00  0.00    -0.391 OA
ATOM    106  H   GCS d   1     -23.076  36.532  12.241  0.00  0.00     0.210 HD
ENDBRANCH  92 105
BRANCH  94 107
ATOM    107  O4  GCS d   1     -22.998  34.190  15.198  0.00  0.00    -0.390 OA
ATOM    108  H   GCS d   1     -22.920  35.116  15.394  0.00  0.00     0.210 HD
ENDBRANCH  94 107
BRANCH  96 109
ATOM    109  C6  GCS d   1     -24.316  31.673  14.995  0.00  0.00     0.043 C 
ATOM    110  H   GCS d   1     -25.159  31.001  14.777  0.00  0.00     0.078 H 
ATOM    111  H   GCS d   1     -24.565  32.305  15.861  0.00  0.00     0.078 H 
BRANCH 109 112
ATOM    112  O6  GCS d   1     -23.153  30.925  15.257  0.00  0.00    -0.398 OA
ATOM    113  H   GCS d   1     -23.300  30.366  16.011  0.00  0.00     0.209 HD
ENDBRANCH 109 112
ENDBRANCH  96 109
ENDBRANCH  89  90
ENDBRANCH  76  89
BRANCH  78 114
ATOM    114  C6  GCS d   1     -25.443  32.234   7.477  0.00  0.00     0.043 C 
ATOM    115  H   GCS d   1     -25.410  33.279   7.819  0.00  0.00     0.078 H 
ATOM    116  H   GCS d   1     -26.043  32.168   6.557  0.00  0.00     0.078 H 
BRANCH 114 117
ATOM    117  O6  GCS d   1     -24.130  31.793   7.207  0.00  0.00    -0.398 OA
ATOM    118  H   GCS d   1     -23.746  32.340   6.532  0.00  0.00     0.209 HD
ENDBRANCH 114 117
ENDBRANCH  78 114
ENDBRANCH  71  72
ENDBRANCH   4  71
TORSDOF 30
