REMARK  29 active torsions:
REMARK  status: ('A' for Active; 'I' for Inactive)
REMARK    1  A    between atoms: C2_2  and  N2_7 
REMARK    2  A    between atoms: C3_3  and  O3_9 
REMARK    3  A    between atoms: C4_4  and  O4_10 
REMARK    4  A    between atoms: C5_5  and  C6_6 
REMARK    5  A    between atoms: C6_6  and  O6_12 
REMARK    6  A    between atoms: O4_10  and  C1_13 
REMARK    7  A    between atoms: C2_14  and  N2_19 
REMARK    8  A    between atoms: C3_15  and  O3_20 
REMARK    9  A    between atoms: C4_16  and  O4_21 
REMARK   10  A    between atoms: C5_17  and  C6_18 
REMARK   11  A    between atoms: C6_18  and  O6_23 
REMARK   12  A    between atoms: O4_21  and  C1_24 
REMARK   13  A    between atoms: C2_25  and  N2_30 
REMARK   14  A    between atoms: C3_26  and  O3_31 
REMARK   15  A    between atoms: C4_27  and  O4_32 
REMARK   16  A    between atoms: C5_28  and  C6_29 
REMARK   17  A    between atoms: C6_29  and  O6_34 
REMARK   18  A    between atoms: O4_32  and  C1_35 
REMARK   19  A    between atoms: C2_36  and  N2_41 
REMARK   20  A    between atoms: C3_37  and  O3_42 
REMARK   21  A    between atoms: C4_38  and  O4_43 
REMARK   22  A    between atoms: C5_39  and  C6_40 
REMARK   23  A    between atoms: C6_40  and  O6_45 
REMARK   24  A    between atoms: O4_43  and  C1_46 
REMARK   25  A    between atoms: C2_47  and  N2_52 
REMARK   26  A    between atoms: C3_48  and  O3_53 
REMARK   27  A    between atoms: C4_49  and  O4_54 
REMARK   28  A    between atoms: C5_50  and  C6_51 
REMARK   29  A    between atoms: C6_51  and  O6_56 
ROOT
ATOM      1  C1  GCS d   1     -30.358  26.552   5.814  0.00  0.00     0.162 C 
ATOM      2  C2  GCS d   1     -28.993  26.800   5.189  0.00  0.00     0.173 C 
ATOM      3  C3  GCS d   1     -27.877  27.011   6.201  0.00  0.00     0.095 C 
ATOM      4  C4  GCS d   1     -28.312  28.181   7.043  0.00  0.00     0.095 C 
ATOM      5  C5  GCS d   1     -29.742  27.954   7.537  0.00  0.00     0.089 C 
ATOM      6  O5  GCS d   1     -30.620  27.814   6.425  0.00  0.00    -0.349 OA
ATOM      7  H   GCS d   1     -30.352  25.718   6.532  0.00  0.00     0.132 H 
ATOM      8  H   GCS d   1     -29.116  27.787   4.720  0.00  0.00     0.096 H 
ATOM      9  H   GCS d   1     -27.724  26.116   6.821  0.00  0.00     0.090 H 
ATOM     10  H   GCS d   1     -28.218  29.140   6.513  0.00  0.00     0.091 H 
ATOM     11  H   GCS d   1     -29.768  27.013   8.107  0.00  0.00     0.090 H 
ENDROOT
BRANCH   4  12
ATOM     12  O4  GCS d   1     -27.454  28.081   8.148  0.00  0.00    -0.348 OA
BRANCH  12  13
ATOM     13  C1  GCS d   1     -26.849  29.332   8.606  0.00  0.00     0.162 C 
ATOM     14  C2  GCS d   1     -25.846  28.960   9.708  0.00  0.00     0.173 C 
ATOM     15  C3  GCS d   1     -25.442  30.194  10.547  0.00  0.00     0.095 C 
ATOM     16  H   GCS d   1     -24.929  28.609   9.213  0.00  0.00     0.096 H 
ATOM     17  C4  GCS d   1     -25.198  31.417   9.602  0.00  0.00     0.095 C 
ATOM     18  H   GCS d   1     -26.294  30.450  11.193  0.00  0.00     0.090 H 
ATOM     19  C5  GCS d   1     -25.792  31.379   8.159  0.00  0.00     0.089 C 
ATOM     20  H   GCS d   1     -24.107  31.473   9.477  0.00  0.00     0.091 H 
ATOM     21  O5  GCS d   1     -26.220  30.120   7.633  0.00  0.00    -0.349 OA
ATOM     22  H   GCS d   1     -26.689  32.016   8.189  0.00  0.00     0.090 H 
ATOM     23  H   GCS d   1     -27.649  29.945   9.046  0.00  0.00     0.132 H 
BRANCH  14  24
ATOM     24  N2  GCS d   1     -26.367  27.827  10.486  0.00  0.00    -0.068 N 
ATOM     25  H   GCS d   1     -26.604  27.072   9.862  0.00  0.00     0.275 HD
ATOM     26  H   GCS d   1     -27.190  28.116  10.991  0.00  0.00     0.275 HD
ATOM     27  H   GCS d   1     -25.665  27.516  11.139  0.00  0.00     0.275 HD
ENDBRANCH  14  24
BRANCH  15  28
ATOM     28  O3  GCS d   1     -24.322  29.895  11.429  0.00  0.00    -0.391 OA
ATOM     29  H   GCS d   1     -24.146  30.647  11.982  0.00  0.00     0.210 HD
ENDBRANCH  15  28
BRANCH  17  30
ATOM     30  O4  GCS d   1     -25.623  32.641  10.218  0.00  0.00    -0.348 OA
BRANCH  30  31
ATOM     31  C1  GCS d   1     -24.763  32.952  11.352  0.00  0.00     0.162 C 
ATOM     32  C2  GCS d   1     -24.127  34.369  11.283  0.00  0.00     0.173 C 
ATOM     33  C3  GCS d   1     -23.403  34.770  12.625  0.00  0.00     0.094 C 
ATOM     34  H   GCS d   1     -24.943  35.090  11.129  0.00  0.00     0.096 H 
ATOM     35  C4  GCS d   1     -23.949  34.167  13.942  0.00  0.00     0.089 C 
ATOM     36  H   GCS d   1     -22.397  34.338  12.518  0.00  0.00     0.090 H 
ATOM     37  C5  GCS d   1     -24.186  32.700  13.594  0.00  0.00     0.089 C 
ATOM     38  H   GCS d   1     -24.892  34.655  14.230  0.00  0.00     0.091 H 
ATOM     39  O5  GCS d   1     -25.274  32.628  12.661  0.00  0.00    -0.349 OA
ATOM     40  H   GCS d   1     -23.301  32.401  13.013  0.00  0.00     0.090 H 
ATOM     41  H   GCS d   1     -23.912  32.266  11.227  0.00  0.00     0.132 H 
BRANCH  32  42
ATOM     42  N2  GCS d   1     -23.227  34.460  10.119  0.00  0.00    -0.068 N 
ATOM     43  H   GCS d   1     -23.728  34.196   9.285  0.00  0.00     0.275 HD
ATOM     44  H   GCS d   1     -22.444  33.840  10.251  0.00  0.00     0.275 HD
ATOM     45  H   GCS d   1     -22.894  35.407  10.025  0.00  0.00     0.275 HD
ENDBRANCH  32  42
BRANCH  33  46
ATOM     46  O3  GCS d   1     -23.192  36.183  12.790  0.00  0.00    -0.391 OA
ATOM     47  H   GCS d   1     -22.564  36.329  13.488  0.00  0.00     0.210 HD
ENDBRANCH  33  46
BRANCH  35  48
ATOM     48  O4  GCS d   1     -23.014  34.299  15.003  0.00  0.00    -0.390 OA
ATOM     49  H   GCS d   1     -22.886  35.220  15.198  0.00  0.00     0.210 HD
ENDBRANCH  35  48
BRANCH  37  50
ATOM     50  C6  GCS d   1     -24.185  31.711  14.764  0.00  0.00     0.043 C 
ATOM     51  H   GCS d   1     -24.963  30.946  14.621  0.00  0.00     0.078 H 
ATOM     52  H   GCS d   1     -24.360  32.239  15.713  0.00  0.00     0.078 H 
BRANCH  50  53
ATOM     53  O6  GCS d   1     -22.898  31.115  14.759  0.00  0.00    -0.398 OA
ATOM     54  H   GCS d   1     -22.838  30.487  15.469  0.00  0.00     0.209 HD
ENDBRANCH  50  53
ENDBRANCH  37  50
ENDBRANCH  30  31
ENDBRANCH  17  30
BRANCH  19  55
ATOM     55  C6  GCS d   1     -24.800  32.013   7.165  0.00  0.00     0.043 C 
ATOM     56  H   GCS d   1     -24.738  33.092   7.369  0.00  0.00     0.078 H 
ATOM     57  H   GCS d   1     -25.174  31.854   6.143  0.00  0.00     0.078 H 
BRANCH  55  58
ATOM     58  O6  GCS d   1     -23.503  31.457   7.265  0.00  0.00    -0.398 OA
ATOM     59  H   GCS d   1     -22.930  31.878   6.635  0.00  0.00     0.209 HD
ENDBRANCH  55  58
ENDBRANCH  19  55
ENDBRANCH  12  13
ENDBRANCH   4  12
BRANCH   3  60
ATOM     60  O3  GCS d   1     -26.685  27.332   5.489  0.00  0.00    -0.391 OA
ATOM     61  H   GCS d   1     -25.995  27.544   6.107  0.00  0.00     0.210 HD
ENDBRANCH   3  60
BRANCH   5  62
ATOM     62  C6  GCS d   1     -30.155  29.094   8.490  0.00  0.00     0.043 C 
ATOM     63  H   GCS d   1     -29.331  29.370   9.165  0.00  0.00     0.078 H 
ATOM     64  H   GCS d   1     -31.039  28.819   9.084  0.00  0.00     0.078 H 
BRANCH  62  65
ATOM     65  O6  GCS d   1     -30.444  30.121   7.599  0.00  0.00    -0.398 OA
ATOM     66  H   GCS d   1     -31.144  29.847   7.018  0.00  0.00     0.209 HD
ENDBRANCH  62  65
ENDBRANCH   5  62
BRANCH   2  67
ATOM     67  N2  GCS d   1     -28.576  25.956   4.078  0.00  0.00    -0.068 N 
ATOM     68  H   GCS d   1     -29.344  25.844   3.435  0.00  0.00     0.275 HD
ATOM     69  H   GCS d   1     -28.297  25.053   4.428  0.00  0.00     0.275 HD
ATOM     70  H   GCS d   1     -27.799  26.387   3.602  0.00  0.00     0.275 HD
ENDBRANCH   2  67
BRANCH   1  71
ATOM     71  O4  GCS d   1     -31.347  26.343   4.763  0.00  0.00    -0.348 OA
BRANCH  71  72
ATOM     72  C4  GCS d   1     -32.600  25.777   5.191  0.00  0.00     0.095 C 
ATOM     73  C3  GCS d   1     -33.618  26.891   5.445  0.00  0.00     0.095 C 
ATOM     74  C2  GCS d   1     -34.980  26.245   5.671  0.00  0.00     0.173 C 
ATOM     75  H   GCS d   1     -33.649  27.552   4.567  0.00  0.00     0.090 H 
ATOM     76  C1  GCS d   1     -35.317  25.229   4.558  0.00  0.00     0.162 C 
ATOM     77  H   GCS d   1     -34.946  25.695   6.623  0.00  0.00     0.096 H 
ATOM     78  O5  GCS d   1     -34.299  24.237   4.447  0.00  0.00    -0.349 OA
ATOM     79  H   GCS d   1     -35.406  25.753   3.595  0.00  0.00     0.132 H 
ATOM     80  C5  GCS d   1     -33.069  24.825   4.085  0.00  0.00     0.089 C 
ATOM     81  H   GCS d   1     -33.185  25.392   3.149  0.00  0.00     0.090 H 
ATOM     82  H   GCS d   1     -32.453  25.211   6.122  0.00  0.00     0.091 H 
BRANCH  73  83
ATOM     83  O3  GCS d   1     -33.336  27.685   6.633  0.00  0.00    -0.391 OA
ATOM     84  H   GCS d   1     -32.484  28.096   6.543  0.00  0.00     0.210 HD
ENDBRANCH  73  83
BRANCH  74  85
ATOM     85  N2  GCS d   1     -35.995  27.295   5.790  0.00  0.00    -0.068 N 
ATOM     86  H   GCS d   1     -36.898  26.874   5.940  0.00  0.00     0.275 HD
ATOM     87  H   GCS d   1     -36.015  27.841   4.943  0.00  0.00     0.275 HD
ATOM     88  H   GCS d   1     -35.770  27.893   6.569  0.00  0.00     0.275 HD
ENDBRANCH  74  85
BRANCH  76  89
ATOM     89  O4  GCS d   1     -36.562  24.649   4.898  0.00  0.00    -0.348 OA
BRANCH  89  90
ATOM     90  C4  GCS d   1     -37.323  24.023   3.858  0.00  0.00     0.095 C 
ATOM     91  C3  GCS d   1     -36.749  22.604   3.485  0.00  0.00     0.096 C 
ATOM     92  C2  GCS d   1     -37.773  21.897   2.543  0.00  0.00     0.188 C 
ATOM     93  H   GCS d   1     -36.660  22.025   4.416  0.00  0.00     0.090 H 
ATOM     94  C1  GCS d   1     -38.966  22.052   3.514  0.00  0.00     0.290 C 
ATOM     95  H   GCS d   1     -37.892  22.386   1.565  0.00  0.00     0.097 H 
ATOM     96  O1  GCS d   1     -39.771  21.012   3.799  0.00  0.00    -0.189 OA
ATOM     97  O5  GCS d   1     -39.632  23.314   3.473  0.00  0.00    -0.337 OA
ATOM     98  C5  GCS d   1     -38.789  24.032   4.389  0.00  0.00     0.090 C 
ATOM     99  H   GCS d   1     -38.777  23.469   5.334  0.00  0.00     0.090 H 
ATOM    100  H   GCS d   1     -37.275  24.642   2.950  0.00  0.00     0.091 H 
BRANCH  91 101
ATOM    101  O3  GCS d   1     -35.473  22.604   2.857  0.00  0.00    -0.391 OA
ATOM    102  H   GCS d   1     -34.837  23.007   3.436  0.00  0.00     0.210 HD
ENDBRANCH  91 101
BRANCH  92 103
ATOM    103  N2  GCS d   1     -37.534  20.476   2.406  0.00  0.00    -0.067 N 
ATOM    104  H   GCS d   1     -38.224  20.077   1.789  0.00  0.00     0.275 HD
ATOM    105  H   GCS d   1     -37.598  20.036   3.311  0.00  0.00     0.275 HD
ATOM    106  H   GCS d   1     -36.614  20.325   2.023  0.00  0.00     0.275 HD
ENDBRANCH  92 103
BRANCH  98 107
ATOM    107  C6  GCS d   1     -39.398  25.421   4.728  0.00  0.00     0.043 C 
ATOM    108  H   GCS d   1     -38.816  25.923   5.514  0.00  0.00     0.078 H 
ATOM    109  H   GCS d   1     -40.444  25.322   5.053  0.00  0.00     0.078 H 
BRANCH 107 110
ATOM    110  O6  GCS d   1     -39.316  26.120   3.526  0.00  0.00    -0.398 OA
ATOM    111  H   GCS d   1     -39.814  25.661   2.860  0.00  0.00     0.209 HD
ENDBRANCH 107 110
ENDBRANCH  98 107
ENDBRANCH  89  90
ENDBRANCH  76  89
BRANCH  80 112
ATOM    112  C6  GCS d   1     -32.057  23.661   3.869  0.00  0.00     0.043 C 
ATOM    113  H   GCS d   1     -32.054  22.985   4.737  0.00  0.00     0.078 H 
ATOM    114  H   GCS d   1     -31.043  24.055   3.708  0.00  0.00     0.078 H 
BRANCH 112 115
ATOM    115  O6  GCS d   1     -32.519  22.981   2.707  0.00  0.00    -0.398 OA
ATOM    116  H   GCS d   1     -31.940  22.252   2.517  0.00  0.00     0.209 HD
ENDBRANCH 112 115
ENDBRANCH  80 112
ENDBRANCH  71  72
ENDBRANCH   1  71
TORSDOF 29
