REMARK  6 active torsions:
REMARK  status: ('A' for Active; 'I' for Inactive)
REMARK    1  A    between atoms: C16_9  and  C20_20 
REMARK    2  A    between atoms: N5_27  and  C18_12 
REMARK    3  A    between atoms: C9_13  and  C28_21 
REMARK    4  A    between atoms: C11_22  and  C1_15 
REMARK    5  A    between atoms: C13_23  and  C2_16 
REMARK    6  A    between atoms: C11_22  and  C13_23 
ROOT
ATOM      1  C17 X4C d   1      23.980   6.234  55.016  0.00  0.00    -0.075 A 
ATOM      2  C15 X4C d   1      22.629   6.355  55.274  0.00  0.00    -0.054 A 
ATOM      3  C12 X4C d   1      24.469   4.981  57.014  0.00  0.00    -0.047 A 
ATOM      4  C16 X4C d   1      24.867   5.574  55.843  0.00  0.00    -0.060 A 
ATOM      5  C8  X4C d   1      23.127   5.090  57.295  0.00  0.00     0.086 A 
ATOM      6  C10 X4C d   1      22.253   5.748  56.453  0.00  0.00     0.070 A 
ATOM      7  C1  X4C d   1      21.205   4.963  58.216  0.00  0.00     0.112 A 
ATOM      8  N4  X4C d   1      22.463   4.612  58.374  0.00  0.00    -0.233 NA
ATOM      9  N5  X4C d   1      21.026   5.655  57.052  0.00  0.00    -0.297 N 
ATOM     10  H   X4C d   1      24.368   6.684  54.109  0.00  0.00     0.084 H 
ATOM     11  H   X4C d   1      21.938   6.872  54.619  0.00  0.00     0.087 H 
ATOM     12  H   X4C d   1      25.161   4.465  57.669  0.00  0.00     0.088 H 
ENDROOT
BRANCH   7  13
ATOM     13  C11 X4C d   1      20.114   4.655  59.160  0.00  0.00    -0.003 C 
ATOM     14  H   X4C d   1      19.249   4.265  58.604  0.00  0.00     0.045 H 
ATOM     15  H   X4C d   1      19.823   5.571  59.695  0.00  0.00     0.045 H 
BRANCH  13  16
ATOM     16  C13 X4C d   1      20.582   3.616  60.158  0.00  0.00    -0.003 C 
ATOM     17  H   X4C d   1      20.785   2.675  59.625  0.00  0.00     0.045 H 
ATOM     18  H   X4C d   1      21.506   3.972  60.637  0.00  0.00     0.045 H 
BRANCH  16  19
ATOM     19  C2  X4C d   1      19.580   3.370  61.187  0.00  0.00     0.112 A 
ATOM     20  N3  X4C d   1      19.699   3.674  62.461  0.00  0.00    -0.236 NA
ATOM     21  C9  X4C d   1      18.529   3.265  63.046  0.00  0.00     0.079 A 
ATOM     22  C7  X4C d   1      17.688   2.714  62.107  0.00  0.00     0.159 A 
ATOM     23  N19 X4C d   1      16.453   2.165  62.156  0.00  0.00    -0.241 NA
ATOM     24  N6  X4C d   1      18.373   2.780  60.923  0.00  0.00    -0.293 N 
ATOM     25  C22 X4C d   1      15.983   1.732  61.027  0.00  0.00     0.006 A 
ATOM     26  C21 X4C d   1      16.658   1.780  59.705  0.00  0.00    -0.051 A 
ATOM     27  H   X4C d   1      14.989   1.287  61.051  0.00  0.00     0.114 H 
ATOM     28  C14 X4C d   1      17.878   2.324  59.728  0.00  0.00    -0.011 A 
ATOM     29  H   X4C d   1      16.197   1.403  58.793  0.00  0.00     0.087 H 
ATOM     30  H   X4C d   1      18.468   2.404  58.816  0.00  0.00     0.112 H 
BRANCH  21  31
ATOM     31  C28 X4C d   1      18.335   3.452  64.487  0.00  0.00    -0.032 C 
ATOM     32  H   X4C d   1      19.227   3.929  64.918  0.00  0.00     0.035 H 
ATOM     33  H   X4C d   1      18.175   2.474  64.965  0.00  0.00     0.035 H 
ATOM     34  H   X4C d   1      17.457   4.092  64.659  0.00  0.00     0.035 H 
ENDBRANCH  21  31
ENDBRANCH  16  19
ENDBRANCH  13  16
ENDBRANCH   7  13
BRANCH   9  35
ATOM     35  C18 X4C d   1      19.924   6.418  56.660  0.00  0.00     0.041 A 
ATOM     36  C23 X4C d   1      20.002   7.797  56.693  0.00  0.00    -0.057 A 
ATOM     37  C24 X4C d   1      18.940   8.562  56.258  0.00  0.00    -0.081 A 
ATOM     38  H   X4C d   1      20.900   8.279  57.062  0.00  0.00     0.086 H 
ATOM     39  C25 X4C d   1      17.793   7.941  55.807  0.00  0.00    -0.083 A 
ATOM     40  H   X4C d   1      19.006   9.644  56.270  0.00  0.00     0.083 H 
ATOM     41  C26 X4C d   1      17.719   6.558  55.798  0.00  0.00    -0.081 A 
ATOM     42  H   X4C d   1      16.953   8.533  55.461  0.00  0.00     0.083 H 
ATOM     43  C27 X4C d   1      18.789   5.784  56.212  0.00  0.00    -0.057 A 
ATOM     44  H   X4C d   1      16.809   6.074  55.462  0.00  0.00     0.083 H 
ATOM     45  H   X4C d   1      18.734   4.702  56.184  0.00  0.00     0.086 H 
ENDBRANCH   9  35
BRANCH   4  46
ATOM     46  C20 X4C d   1      26.295   5.508  55.458  0.00  0.00    -0.051 C 
ATOM     47  H   X4C d   1      26.441   6.029  54.500  0.00  0.00     0.033 H 
ATOM     48  H   X4C d   1      26.598   4.456  55.353  0.00  0.00     0.033 H 
ATOM     49  H   X4C d   1      26.907   5.990  56.235  0.00  0.00     0.033 H 
ENDBRANCH   4  46
TORSDOF 6
