REMARK  5 active torsions:
REMARK  status: ('A' for Active; 'I' for Inactive)
REMARK    1  A    between atoms: C16_10  and  C20_20 
REMARK    2  A    between atoms: N5_26  and  C18_13 
REMARK    3  A    between atoms: C13_21  and  C2_15 
REMARK    4  A    between atoms: C11_22  and  C1_16 
REMARK    5  A    between atoms: C13_21  and  C11_22 
ROOT
ATOM      1  C17 X4D d   1      24.219   5.858  55.519  0.00  0.00    -0.075 A 
ATOM      2  C15 X4D d   1      22.876   6.122  55.687  0.00  0.00    -0.054 A 
ATOM      3  C12 X4D d   1      24.460   4.637  57.564  0.00  0.00    -0.047 A 
ATOM      4  C16 X4D d   1      24.997   5.147  56.408  0.00  0.00    -0.060 A 
ATOM      5  C8  X4D d   1      23.123   4.888  57.750  0.00  0.00     0.086 A 
ATOM      6  C10 X4D d   1      22.364   5.603  56.847  0.00  0.00     0.070 A 
ATOM      7  C1  X4D d   1      21.147   4.956  58.555  0.00  0.00     0.112 A 
ATOM      8  N4  X4D d   1      22.358   4.499  58.801  0.00  0.00    -0.233 NA
ATOM      9  N5  X4D d   1      21.099   5.650  57.371  0.00  0.00    -0.297 N 
ATOM     10  H   X4D d   1      24.698   6.237  54.623  0.00  0.00     0.084 H 
ATOM     11  H   X4D d   1      22.285   6.684  54.973  0.00  0.00     0.087 H 
ATOM     12  H   X4D d   1      25.050   4.076  58.279  0.00  0.00     0.088 H 
ENDROOT
BRANCH   7  13
ATOM     13  C11 X4D d   1      20.003   4.740  59.461  0.00  0.00    -0.003 C 
ATOM     14  H   X4D d   1      19.065   4.725  58.887  0.00  0.00     0.045 H 
ATOM     15  H   X4D d   1      19.960   5.542  60.212  0.00  0.00     0.045 H 
BRANCH  13  16
ATOM     16  C13 X4D d   1      20.217   3.407  60.138  0.00  0.00    -0.002 C 
ATOM     17  H   X4D d   1      20.574   2.684  59.389  0.00  0.00     0.045 H 
ATOM     18  H   X4D d   1      20.978   3.528  60.923  0.00  0.00     0.045 H 
BRANCH  16  19
ATOM     19  C2  X4D d   1      18.992   2.885  60.748  0.00  0.00     0.128 A 
ATOM     20  N3  X4D d   1      17.971   2.283  60.159  0.00  0.00    -0.243 NA
ATOM     21  C9  X4D d   1      17.069   1.992  61.155  0.00  0.00     0.032 A 
ATOM     22  C7  X4D d   1      17.579   2.433  62.358  0.00  0.00     0.077 A 
ATOM     23  H   X4D d   1      16.110   1.495  61.017  0.00  0.00     0.118 H 
ATOM     24  C19 X4D d   1      17.139   2.428  63.686  0.00  0.00    -0.052 A 
ATOM     25  N6  X4D d   1      18.800   3.002  62.094  0.00  0.00    -0.219 N 
ATOM     26  C22 X4D d   1      17.906   2.973  64.640  0.00  0.00    -0.062 A 
ATOM     27  H   X4D d   1      16.178   1.984  63.943  0.00  0.00     0.087 H 
ATOM     28  C21 X4D d   1      19.196   3.554  64.181  0.00  0.00     0.022 A 
ATOM     29  H   X4D d   1      17.604   2.990  65.686  0.00  0.00     0.085 H 
ATOM     30  N14 X4D d   1      19.651   3.586  62.968  0.00  0.00    -0.178 NA
ATOM     31  H   X4D d   1      19.827   4.001  64.948  0.00  0.00     0.117 H 
ENDBRANCH  16  19
ENDBRANCH  13  16
ENDBRANCH   7  13
BRANCH   9  32
ATOM     32  C18 X4D d   1      20.037   6.453  56.887  0.00  0.00     0.041 A 
ATOM     33  C23 X4D d   1      20.097   7.839  56.956  0.00  0.00    -0.057 A 
ATOM     34  C24 X4D d   1      19.049   8.594  56.454  0.00  0.00    -0.081 A 
ATOM     35  H   X4D d   1      20.958   8.327  57.399  0.00  0.00     0.086 H 
ATOM     36  C25 X4D d   1      17.952   7.952  55.887  0.00  0.00    -0.083 A 
ATOM     37  H   X4D d   1      19.083   9.676  56.503  0.00  0.00     0.083 H 
ATOM     38  C26 X4D d   1      17.880   6.572  55.814  0.00  0.00    -0.081 A 
ATOM     39  H   X4D d   1      17.135   8.546  55.494  0.00  0.00     0.083 H 
ATOM     40  C27 X4D d   1      18.934   5.823  56.320  0.00  0.00    -0.057 A 
ATOM     41  H   X4D d   1      17.018   6.086  55.371  0.00  0.00     0.083 H 
ATOM     42  H   X4D d   1      18.897   4.741  56.273  0.00  0.00     0.086 H 
ENDBRANCH   9  32
BRANCH   4  43
ATOM     43  C20 X4D d   1      26.444   4.936  56.116  0.00  0.00    -0.051 C 
ATOM     44  H   X4D d   1      26.697   5.410  55.156  0.00  0.00     0.033 H 
ATOM     45  H   X4D d   1      26.653   3.858  56.059  0.00  0.00     0.033 H 
ATOM     46  H   X4D d   1      27.049   5.385  56.917  0.00  0.00     0.033 H 
ENDBRANCH   4  43
TORSDOF 5
