REMARK  17 active torsions:
REMARK  status: ('A' for Active; 'I' for Inactive)
REMARK    1  A    between atoms: O2_1  and  C3_2 
REMARK    2  A    between atoms: C1_5  and  O1_6 
REMARK    3  A    between atoms: C10_10  and  C11_11 
REMARK    4  A    between atoms: C16_17  and  C23_18 
REMARK    5  A    between atoms: C20_21  and  C21_22 
REMARK    6  A    between atoms: C21_22  and  C22_23 
REMARK    7  A    between atoms: C21_22  and  C24_24 
REMARK    8  A    between atoms: C24_24  and  C31_25 
REMARK    9  A    between atoms: C24_24  and  C25_29 
REMARK   10  A    between atoms: C31_25  and  C32_26 
REMARK   11  A    between atoms: C32_26  and  C33_27 
REMARK   12  A    between atoms: C33_27  and  C34_28 
REMARK   13  A    between atoms: C25_29  and  C26_30 
REMARK   14  A    between atoms: C26_30  and  C27_31 
REMARK   15  A    between atoms: C27_31  and  C29_32 
REMARK   16  A    between atoms: C27_31  and  C28_33 
REMARK   17  A    between atoms: C27_31  and  O3_34 
ROOT
ATOM      1  C11 YA1 d   1       9.128   6.202  58.267  0.00  0.00    -0.080 C 
ATOM      2  C12 YA1 d   1       8.122   6.132  59.157  0.00  0.00    -0.075 C 
ATOM      3  C13 YA1 d   1       7.192   7.276  59.478  0.00  0.00    -0.044 C 
ATOM      4  C14 YA1 d   1       5.688   6.808  59.449  0.00  0.00    -0.061 C 
ATOM      5  C15 YA1 d   1       5.437   5.459  60.105  0.00  0.00    -0.057 C 
ATOM      6  C17 YA1 d   1       7.822   4.869  59.876  0.00  0.00    -0.025 C 
ATOM      7  C16 YA1 d   1       6.403   4.417  59.593  0.00  0.00    -0.033 C 
ATOM      8  C18 YA1 d   1       8.679   3.653  59.694  0.00  0.00    -0.057 C 
ATOM      9  C19 YA1 d   1       7.764   2.523  60.212  0.00  0.00    -0.060 C 
ATOM     10  C20 YA1 d   1       6.366   3.058  60.337  0.00  0.00    -0.043 C 
ATOM     11  H   YA1 d   1       9.764   5.333  58.107  0.00  0.00     0.083 H 
ATOM     12  H   YA1 d   1       7.334   8.074  58.735  0.00  0.00     0.039 H 
ATOM     13  H   YA1 d   1       7.429   7.662  60.480  0.00  0.00     0.039 H 
ATOM     14  H   YA1 d   1       5.368   6.745  58.399  0.00  0.00     0.033 H 
ATOM     15  H   YA1 d   1       5.083   7.563  59.972  0.00  0.00     0.033 H 
ATOM     16  H   YA1 d   1       4.409   5.137  59.882  0.00  0.00     0.034 H 
ATOM     17  H   YA1 d   1       5.561   5.560  61.193  0.00  0.00     0.034 H 
ATOM     18  H   YA1 d   1       7.890   5.127  60.943  0.00  0.00     0.048 H 
ATOM     19  H   YA1 d   1       9.601   3.723  60.290  0.00  0.00     0.034 H 
ATOM     20  H   YA1 d   1       8.937   3.502  58.635  0.00  0.00     0.034 H 
ATOM     21  H   YA1 d   1       8.119   2.180  61.195  0.00  0.00     0.033 H 
ATOM     22  H   YA1 d   1       7.777   1.682  59.504  0.00  0.00     0.033 H 
ATOM     23  H   YA1 d   1       6.158   3.251  61.400  0.00  0.00     0.041 H 
ENDROOT
BRANCH  10  24
ATOM     24  C21 YA1 d   1       5.276   2.069  59.846  0.00  0.00    -0.050 C 
ATOM     25  H   YA1 d   1       5.557   1.762  58.828  0.00  0.00     0.040 H 
BRANCH  24  26
ATOM     26  C22 YA1 d   1       3.879   2.715  59.760  0.00  0.00    -0.072 C 
ATOM     27  H   YA1 d   1       3.151   1.969  59.408  0.00  0.00     0.028 H 
ATOM     28  H   YA1 d   1       3.908   3.560  59.056  0.00  0.00     0.028 H 
ATOM     29  H   YA1 d   1       3.581   3.077  60.755  0.00  0.00     0.028 H 
ENDBRANCH  24  26
BRANCH  24  30
ATOM     30  C24 YA1 d   1       5.221   0.817  60.699  0.00  0.00    -0.051 C 
ATOM     31  H   YA1 d   1       6.188   0.302  60.603  0.00  0.00     0.040 H 
BRANCH  30  32
ATOM     32  C31 YA1 d   1       4.093  -0.140  60.226  0.00  0.00    -0.061 C 
ATOM     33  H   YA1 d   1       3.122   0.354  60.376  0.00  0.00     0.033 H 
ATOM     34  H   YA1 d   1       4.133  -1.060  60.827  0.00  0.00     0.033 H 
BRANCH  32  35
ATOM     35  C32 YA1 d   1       4.237  -0.506  58.756  0.00  0.00    -0.065 C 
ATOM     36  H   YA1 d   1       4.458   0.399  58.172  0.00  0.00     0.033 H 
ATOM     37  H   YA1 d   1       3.300  -0.956  58.396  0.00  0.00     0.033 H 
BRANCH  35  38
ATOM     38  C33 YA1 d   1       5.348  -1.481  58.600  0.00  0.00    -0.069 C 
ATOM     39  H   YA1 d   1       5.352  -2.156  59.469  0.00  0.00     0.032 H 
ATOM     40  H   YA1 d   1       6.299  -0.930  58.559  0.00  0.00     0.032 H 
BRANCH  38  41
ATOM     41  C34 YA1 d   1       5.209  -2.317  57.329  0.00  0.00    -0.077 C 
ATOM     42  H   YA1 d   1       6.052  -3.021  57.259  0.00  0.00     0.027 H 
ATOM     43  H   YA1 d   1       5.212  -1.654  56.452  0.00  0.00     0.027 H 
ATOM     44  H   YA1 d   1       4.264  -2.879  57.361  0.00  0.00     0.027 H 
ENDBRANCH  38  41
ENDBRANCH  35  38
ENDBRANCH  32  35
ENDBRANCH  30  32
BRANCH  30  45
ATOM     45  C25 YA1 d   1       4.975   1.119  62.179  0.00  0.00    -0.059 C 
ATOM     46  H   YA1 d   1       4.022   1.658  62.284  0.00  0.00     0.033 H 
ATOM     47  H   YA1 d   1       5.794   1.746  62.560  0.00  0.00     0.033 H 
BRANCH  45  48
ATOM     48  C26 YA1 d   1       4.912  -0.179  62.997  0.00  0.00    -0.037 C 
ATOM     49  H   YA1 d   1       5.731  -0.831  62.657  0.00  0.00     0.037 H 
ATOM     50  H   YA1 d   1       3.947  -0.663  62.786  0.00  0.00     0.037 H 
BRANCH  48  51
ATOM     51  C27 YA1 d   1       5.038  -0.022  64.535  0.00  0.00     0.051 C 
BRANCH  51  52
ATOM     52  C29 YA1 d   1       6.435   0.415  64.899  0.00  0.00    -0.048 C 
ATOM     53  H   YA1 d   1       6.513   0.523  65.991  0.00  0.00     0.031 H 
ATOM     54  H   YA1 d   1       6.654   1.380  64.419  0.00  0.00     0.031 H 
ATOM     55  H   YA1 d   1       7.157  -0.339  64.553  0.00  0.00     0.031 H 
ENDBRANCH  51  52
BRANCH  51  56
ATOM     56  C28 YA1 d   1       3.973   0.952  65.055  0.00  0.00    -0.048 C 
ATOM     57  H   YA1 d   1       2.975   0.592  64.766  0.00  0.00     0.031 H 
ATOM     58  H   YA1 d   1       4.144   1.948  64.621  0.00  0.00     0.031 H 
ATOM     59  H   YA1 d   1       4.037   1.014  66.151  0.00  0.00     0.031 H 
ENDBRANCH  51  56
BRANCH  51  60
ATOM     60  O3  YA1 d   1       4.843  -1.313  65.135  0.00  0.00    -0.391 OA
ATOM     61  H   YA1 d   1       3.970  -1.628  64.930  0.00  0.00     0.210 HD
ENDBRANCH  51  60
ENDBRANCH  48  51
ENDBRANCH  45  48
ENDBRANCH  30  45
ENDBRANCH  24  30
ENDBRANCH  10  24
BRANCH   7  62
ATOM     62  C23 YA1 d   1       6.156   4.245  58.117  0.00  0.00    -0.068 C 
ATOM     63  H   YA1 d   1       5.119   3.917  57.955  0.00  0.00     0.028 H 
ATOM     64  H   YA1 d   1       6.846   3.489  57.715  0.00  0.00     0.028 H 
ATOM     65  H   YA1 d   1       6.323   5.203  57.603  0.00  0.00     0.028 H 
ENDBRANCH   7  62
BRANCH   1  66
ATOM     66  C10 YA1 d   1       9.383   7.439  57.504  0.00  0.00    -0.080 C 
ATOM     67  C5  YA1 d   1      10.001   7.468  56.324  0.00  0.00    -0.074 C 
ATOM     68  C6  YA1 d   1      10.443   6.207  55.617  0.00  0.00    -0.017 C 
ATOM     69  C4  YA1 d   1      10.152   8.794  55.631  0.00  0.00    -0.017 C 
ATOM     70  C1  YA1 d   1      11.665   6.365  54.765  0.00  0.00     0.062 C 
ATOM     71  H   YA1 d   1      10.653   5.442  56.379  0.00  0.00     0.043 H 
ATOM     72  H   YA1 d   1       9.618   5.867  54.974  0.00  0.00     0.043 H 
ATOM     73  C2  YA1 d   1      11.646   7.660  54.068  0.00  0.00    -0.032 C 
ATOM     74  H   YA1 d   1      12.548   6.338  55.421  0.00  0.00     0.090 H 
ATOM     75  C3  YA1 d   1      11.481   8.899  54.907  0.00  0.00     0.062 C 
ATOM     76  C9  YA1 d   1      11.850   7.820  52.810  0.00  0.00    -0.114 C 
ATOM     77  H   YA1 d   1      11.479   9.794  54.268  0.00  0.00     0.090 H 
ATOM     78  H   YA1 d   1      11.975   6.952  52.164  0.00  0.00     0.067 H 
ATOM     79  H   YA1 d   1      11.898   8.823  52.389  0.00  0.00     0.067 H 
ATOM     80  H   YA1 d   1       9.338   8.909  54.901  0.00  0.00     0.043 H 
ATOM     81  H   YA1 d   1      10.089   9.597  56.380  0.00  0.00     0.043 H 
ATOM     82  H   YA1 d   1       9.046   8.383  57.930  0.00  0.00     0.083 H 
BRANCH  70  83
ATOM     83  O1  YA1 d   1      11.773   5.279  53.815  0.00  0.00    -0.391 OA
ATOM     84  H   YA1 d   1      11.029   5.301  53.224  0.00  0.00     0.210 HD
ENDBRANCH  70  83
BRANCH  75  85
ATOM     85  O2  YA1 d   1      12.599   8.966  55.823  0.00  0.00    -0.391 OA
ATOM     86  H   YA1 d   1      13.409   9.008  55.329  0.00  0.00     0.210 HD
ENDBRANCH  75  85
ENDBRANCH   1  66
TORSDOF 17
