REMARK  18 active torsions:
REMARK  status: ('A' for Active; 'I' for Inactive)
REMARK    1  A    between atoms: O31_1  and  C26_2 
REMARK    2  A    between atoms: C26_2  and  C29_3 
REMARK    3  A    between atoms: C26_2  and  C27_5 
REMARK    4  A    between atoms: C26_2  and  C25_7 
REMARK    5  A    between atoms: C29_3  and  C30_4 
REMARK    6  A    between atoms: C27_5  and  C28_6 
REMARK    7  A    between atoms: C25_7  and  C20_8 
REMARK    8  A    between atoms: C20_8  and  C21_9 
REMARK    9  A    between atoms: C20_8  and  C18_13 
REMARK   10  A    between atoms: C21_9  and  C22_10 
REMARK   11  A    between atoms: C22_10  and  C23_11 
REMARK   12  A    between atoms: C23_11  and  C24_12 
REMARK   13  A    between atoms: C18_13  and  C19_14 
REMARK   14  A    between atoms: C18_13  and  C17_15 
REMARK   15  A    between atoms: C13_18  and  C35_20 
REMARK   16  A    between atoms: C8_25  and  C7_26 
REMARK   17  A    between atoms: C5_30  and  O33_31 
REMARK   18  A    between atoms: C3_34  and  O34_35 
ROOT
ATOM      1  C17 YA2 d   1       5.514   3.746  59.551  0.00  0.00    -0.043 C 
ATOM      2  C16 YA2 d   1       6.635   2.921  58.860  0.00  0.00    -0.060 C 
ATOM      3  C15 YA2 d   1       7.772   3.901  58.509  0.00  0.00    -0.057 C 
ATOM      4  C13 YA2 d   1       5.836   5.200  59.179  0.00  0.00    -0.033 C 
ATOM      5  C14 YA2 d   1       7.351   5.219  59.221  0.00  0.00    -0.025 C 
ATOM      6  C12 YA2 d   1       5.385   6.263  60.138  0.00  0.00    -0.057 C 
ATOM      7  C11 YA2 d   1       5.794   7.645  59.629  0.00  0.00    -0.061 C 
ATOM      8  C10 YA2 d   1       7.287   7.765  59.368  0.00  0.00    -0.044 C 
ATOM      9  C9  YA2 d   1       7.845   6.508  58.669  0.00  0.00    -0.075 C 
ATOM     10  C8  YA2 d   1       8.708   6.539  57.640  0.00  0.00    -0.080 C 
ATOM     11  H   YA2 d   1       5.605   3.641  60.642  0.00  0.00     0.041 H 
ATOM     12  H   YA2 d   1       6.247   2.451  57.944  0.00  0.00     0.033 H 
ATOM     13  H   YA2 d   1       7.006   2.143  59.543  0.00  0.00     0.033 H 
ATOM     14  H   YA2 d   1       7.843   4.048  57.421  0.00  0.00     0.034 H 
ATOM     15  H   YA2 d   1       8.736   3.538  58.893  0.00  0.00     0.034 H 
ATOM     16  H   YA2 d   1       7.695   5.164  60.264  0.00  0.00     0.048 H 
ATOM     17  H   YA2 d   1       5.848   6.086  61.120  0.00  0.00     0.034 H 
ATOM     18  H   YA2 d   1       4.290   6.222  60.236  0.00  0.00     0.034 H 
ATOM     19  H   YA2 d   1       5.509   8.394  60.382  0.00  0.00     0.033 H 
ATOM     20  H   YA2 d   1       5.257   7.846  58.690  0.00  0.00     0.033 H 
ATOM     21  H   YA2 d   1       7.807   7.900  60.328  0.00  0.00     0.039 H 
ATOM     22  H   YA2 d   1       7.468   8.640  58.726  0.00  0.00     0.039 H 
ATOM     23  H   YA2 d   1       9.082   5.606  57.221  0.00  0.00     0.083 H 
ENDROOT
BRANCH   1  24
ATOM     24  C18 YA2 d   1       4.115   3.231  59.169  0.00  0.00    -0.050 C 
ATOM     25  H   YA2 d   1       4.075   3.239  58.070  0.00  0.00     0.040 H 
BRANCH  24  26
ATOM     26  C20 YA2 d   1       3.835   1.793  59.635  0.00  0.00    -0.048 C 
ATOM     27  H   YA2 d   1       2.774   1.775  59.923  0.00  0.00     0.040 H 
BRANCH  26  28
ATOM     28  C25 YA2 d   1       4.000   0.788  58.493  0.00  0.00    -0.033 C 
ATOM     29  H   YA2 d   1       4.398   1.310  57.610  0.00  0.00     0.038 H 
ATOM     30  H   YA2 d   1       4.705   0.003  58.804  0.00  0.00     0.038 H 
BRANCH  28  31
ATOM     31  C26 YA2 d   1       2.642   0.133  58.125  0.00  0.00     0.057 C 
BRANCH  31  32
ATOM     32  O31 YA2 d   1       2.166  -0.610  59.218  0.00  0.00    -0.390 OA
ATOM     33  H   YA2 d   1       2.821  -1.248  59.475  0.00  0.00     0.210 HD
ENDBRANCH  31  32
BRANCH  31  34
ATOM     34  C29 YA2 d   1       2.890  -0.900  57.022  0.00  0.00    -0.040 C 
ATOM     35  H   YA2 d   1       3.601  -1.652  57.396  0.00  0.00     0.036 H 
ATOM     36  H   YA2 d   1       3.323  -0.388  56.150  0.00  0.00     0.036 H 
BRANCH  34  37
ATOM     37  C30 YA2 d   1       1.627  -1.602  56.591  0.00  0.00    -0.074 C 
ATOM     38  H   YA2 d   1       1.863  -2.329  55.800  0.00  0.00     0.027 H 
ATOM     39  H   YA2 d   1       0.909  -0.862  56.206  0.00  0.00     0.027 H 
ATOM     40  H   YA2 d   1       1.187  -2.126  57.452  0.00  0.00     0.027 H 
ENDBRANCH  34  37
ENDBRANCH  31  34
BRANCH  31  41
ATOM     41  C27 YA2 d   1       1.520   1.149  57.786  0.00  0.00    -0.040 C 
ATOM     42  H   YA2 d   1       1.416   1.863  58.616  0.00  0.00     0.036 H 
ATOM     43  H   YA2 d   1       0.573   0.608  57.647  0.00  0.00     0.036 H 
BRANCH  41  44
ATOM     44  C28 YA2 d   1       1.851   1.907  56.517  0.00  0.00    -0.074 C 
ATOM     45  H   YA2 d   1       1.044   2.621  56.295  0.00  0.00     0.027 H 
ATOM     46  H   YA2 d   1       1.953   1.198  55.682  0.00  0.00     0.027 H 
ATOM     47  H   YA2 d   1       2.796   2.453  56.652  0.00  0.00     0.027 H 
ENDBRANCH  41  44
ENDBRANCH  31  41
ENDBRANCH  28  31
ENDBRANCH  26  28
BRANCH  26  48
ATOM     48  C21 YA2 d   1       4.622   1.322  60.881  0.00  0.00    -0.061 C 
ATOM     49  H   YA2 d   1       5.675   1.625  60.786  0.00  0.00     0.033 H 
ATOM     50  H   YA2 d   1       4.561   0.227  60.962  0.00  0.00     0.033 H 
BRANCH  48  51
ATOM     51  C22 YA2 d   1       4.021   1.957  62.123  0.00  0.00    -0.065 C 
ATOM     52  H   YA2 d   1       2.969   1.651  62.217  0.00  0.00     0.033 H 
ATOM     53  H   YA2 d   1       4.078   3.052  62.037  0.00  0.00     0.033 H 
BRANCH  51  54
ATOM     54  C23 YA2 d   1       4.794   1.504  63.363  0.00  0.00    -0.069 C 
ATOM     55  H   YA2 d   1       5.862   1.734  63.233  0.00  0.00     0.032 H 
ATOM     56  H   YA2 d   1       4.667   0.420  63.497  0.00  0.00     0.032 H 
BRANCH  54  57
ATOM     57  C24 YA2 d   1       4.270   2.226  64.584  0.00  0.00    -0.077 C 
ATOM     58  H   YA2 d   1       4.829   1.897  65.472  0.00  0.00     0.027 H 
ATOM     59  H   YA2 d   1       3.203   1.996  64.716  0.00  0.00     0.027 H 
ATOM     60  H   YA2 d   1       4.397   3.311  64.452  0.00  0.00     0.027 H 
ENDBRANCH  54  57
ENDBRANCH  51  54
ENDBRANCH  48  51
ENDBRANCH  26  48
ENDBRANCH  24  26
BRANCH  24  61
ATOM     61  C19 YA2 d   1       2.980   4.085  59.670  0.00  0.00    -0.072 C 
ATOM     62  H   YA2 d   1       3.140   5.128  59.358  0.00  0.00     0.028 H 
ATOM     63  H   YA2 d   1       2.939   4.033  60.768  0.00  0.00     0.028 H 
ATOM     64  H   YA2 d   1       2.032   3.718  59.250  0.00  0.00     0.028 H 
ENDBRANCH  24  61
ENDBRANCH   1  24
BRANCH   4  65
ATOM     65  C35 YA2 d   1       5.315   5.506  57.741  0.00  0.00    -0.068 C 
ATOM     66  H   YA2 d   1       4.215   5.486  57.738  0.00  0.00     0.028 H 
ATOM     67  H   YA2 d   1       5.697   4.747  57.043  0.00  0.00     0.028 H 
ATOM     68  H   YA2 d   1       5.665   6.501  57.428  0.00  0.00     0.028 H 
ENDBRANCH   4  65
BRANCH  10  69
ATOM     69  C7  YA2 d   1       9.148   7.808  57.079  0.00  0.00    -0.080 C 
ATOM     70  C1  YA2 d   1       9.789   7.910  55.897  0.00  0.00    -0.074 C 
ATOM     71  C2  YA2 d   1      10.154   9.275  55.350  0.00  0.00    -0.017 C 
ATOM     72  C6  YA2 d   1      10.144   6.652  55.124  0.00  0.00    -0.017 C 
ATOM     73  C3  YA2 d   1      11.508   9.313  54.648  0.00  0.00     0.062 C 
ATOM     74  H   YA2 d   1      10.176   9.989  56.186  0.00  0.00     0.043 H 
ATOM     75  H   YA2 d   1       9.381   9.578  54.629  0.00  0.00     0.043 H 
ATOM     76  C4  YA2 d   1      11.689   8.062  53.835  0.00  0.00    -0.032 C 
ATOM     77  H   YA2 d   1      11.531  10.184  53.977  0.00  0.00     0.090 H 
ATOM     78  C5  YA2 d   1      11.528   6.730  54.481  0.00  0.00     0.062 C 
ATOM     79  C32 YA2 d   1      11.993   8.126  52.574  0.00  0.00    -0.114 C 
ATOM     80  H   YA2 d   1      12.291   6.634  55.267  0.00  0.00     0.090 H 
ATOM     81  H   YA2 d   1      12.113   9.095  52.091  0.00  0.00     0.067 H 
ATOM     82  H   YA2 d   1      12.128   7.211  51.999  0.00  0.00     0.067 H 
ATOM     83  H   YA2 d   1       9.395   6.502  54.332  0.00  0.00     0.043 H 
ATOM     84  H   YA2 d   1      10.124   5.796  55.815  0.00  0.00     0.043 H 
ATOM     85  H   YA2 d   1       8.950   8.719  57.641  0.00  0.00     0.083 H 
BRANCH  73  86
ATOM     86  O34 YA2 d   1      12.595   9.429  55.592  0.00  0.00    -0.391 OA
ATOM     87  H   YA2 d   1      12.483  10.219  56.107  0.00  0.00     0.210 HD
ENDBRANCH  73  86
BRANCH  78  88
ATOM     88  O33 YA2 d   1      11.703   5.613  53.532  0.00  0.00    -0.391 OA
ATOM     89  H   YA2 d   1      11.039   5.667  52.855  0.00  0.00     0.210 HD
ENDBRANCH  78  88
ENDBRANCH  10  69
TORSDOF 18
