REMARK  3 active torsions:
REMARK  status: ('A' for Active; 'I' for Inactive)
REMARK    1  A    between atoms: C4_7  and  C8_8 
REMARK    2  A    between atoms: C8_8  and  N9_9 
REMARK    3  A    between atoms: N14_14  and  N15_15 
ROOT
ATOM      1  C8  IM4 d   1      31.055 -27.777 -29.091  0.00  0.00     0.041 C 
ATOM      2  H4  IM4 d   1      32.138 -27.595 -29.035  0.00  0.00     0.073 H 
ATOM      3  H5  IM4 d   1      30.872 -28.841 -29.301  0.00  0.00     0.073 H 
ENDROOT
BRANCH   1   4
ATOM      4  C4  IM4 d   1      30.499 -26.961 -30.269  0.00  0.00    -0.022 A 
ATOM      5  C5  IM4 d   1      29.856 -27.602 -31.368  0.00  0.00    -0.071 A 
ATOM      6  C6  IM4 d   1      29.354 -26.825 -32.441  0.00  0.00    -0.043 A 
ATOM      7  H1  IM4 d   1      29.752 -28.681 -31.383  0.00  0.00     0.084 H 
ATOM      8  C1  IM4 d   1      29.509 -25.414 -32.387  0.00  0.00     0.125 A 
ATOM      9  H2  IM4 d   1      28.863 -27.297 -33.284  0.00  0.00     0.088 H 
ATOM     10 CL7  IM4 d   1      28.915 -24.431 -33.693  0.00  0.00    -0.062 Cl
ATOM     11  N2  IM4 d   1      30.120 -24.828 -31.336  0.00  0.00    -0.248 NA
ATOM     12  C3  IM4 d   1      30.606 -25.536 -30.303  0.00  0.00     0.011 A 
ATOM     13  H3  IM4 d   1      31.087 -25.018 -29.481  0.00  0.00     0.115 H 
ENDBRANCH   1   4
BRANCH   1  14
ATOM     14  N9  IM4 d   1      30.475 -27.469 -27.772  0.00  0.00    -0.184 N 
ATOM     15  C13 IM4 d   1      31.047 -26.486 -26.843  0.00  0.00     0.015 A 
ATOM     16  C12 IM4 d   1      30.124 -26.488 -25.604  0.00  0.00     0.036 A 
ATOM     17  H6  IM4 d   1      31.939 -25.880 -26.996  0.00  0.00     0.114 H 
ATOM     18  N11 IM4 d   1      29.078 -27.474 -25.901  0.00  0.00    -0.074 NA
ATOM     19  H7  IM4 d   1      30.227 -25.886 -24.702  0.00  0.00     0.117 H 
ATOM     20  C10 IM4 d   1      29.313 -28.028 -27.179  0.00  0.00     0.725 A 
ATOM     21  N14 IM4 d   1      28.598 -28.922 -27.748  0.00  0.00    -0.070 N 
ATOM     22  H8  IM4 d   1      28.959 -29.190 -28.675  0.00  0.00     0.212 HD
BRANCH  21  23
ATOM     23  N15 IM4 d   1      27.468 -29.600 -27.407  0.00  0.00    -0.024 N 
ATOM     24  O16 IM4 d   1      27.004 -30.459 -28.238  0.00  0.00    -0.516 OA
ATOM     25  O17 IM4 d   1      26.843 -29.421 -26.287  0.00  0.00    -0.516 OA
ENDBRANCH  21  23
ENDBRANCH   1  14
TORSDOF 3
