REMARK  3 active torsions:
REMARK  status: ('A' for Active; 'I' for Inactive)
REMARK    1  A    between atoms: C4_7  and  C8_8 
REMARK    2  A    between atoms: C8_8  and  N9_9 
REMARK    3  A    between atoms: C10_13  and  N14_14 
ROOT
ATOM      1  N14 TH4 d   1      58.300 -14.733 -25.440  0.00  0.00    -0.149 NA
ATOM      2  C15 TH4 d   1      58.415 -15.803 -24.840  0.00  0.00     0.208 C 
ATOM      3  N16 TH4 d   1      58.546 -16.811 -24.267  0.00  0.00    -0.170 NA
ENDROOT
BRANCH   1   4
ATOM      4  C10 TH4 d   1      57.771 -13.653 -24.946  0.00  0.00     0.176 A 
ATOM      5  N9  TH4 d   1      57.663 -12.474 -25.620  0.00  0.00    -0.355 N 
ATOM      6  C13 TH4 d   1      57.049 -11.336 -24.935  0.00  0.00     0.005 A 
ATOM      7  C12 TH4 d   1      56.659 -11.815 -23.539  0.00  0.00    -0.001 A 
ATOM      8  H6  TH4 d   1      56.156 -11.002 -25.483  0.00  0.00     0.065 H 
ATOM      9  H7  TH4 d   1      57.767 -10.506 -24.863  0.00  0.00     0.065 H 
ATOM     10  S11 TH4 d   1      57.134 -13.512 -23.409  0.00  0.00    -0.090 SA
ATOM     11  H8  TH4 d   1      55.572 -11.717 -23.398  0.00  0.00     0.052 H 
ATOM     12  H9  TH4 d   1      57.183 -11.219 -22.777  0.00  0.00     0.052 H 
BRANCH   5  13
ATOM     13  C8  TH4 d   1      58.122 -12.239 -26.980  0.00  0.00     0.022 C 
ATOM     14  H4  TH4 d   1      58.253 -11.155 -27.111  0.00  0.00     0.071 H 
ATOM     15  H5  TH4 d   1      59.092 -12.743 -27.102  0.00  0.00     0.071 H 
BRANCH  13  16
ATOM     16  C4  TH4 d   1      57.196 -12.734 -28.078  0.00  0.00    -0.023 A 
ATOM     17  C5  TH4 d   1      57.737 -13.498 -29.121  0.00  0.00    -0.071 A 
ATOM     18  C6  TH4 d   1      56.917 -13.959 -30.158  0.00  0.00    -0.043 A 
ATOM     19  H1  TH4 d   1      58.795 -13.733 -29.125  0.00  0.00     0.084 H 
ATOM     20  C1  TH4 d   1      55.549 -13.669 -30.128  0.00  0.00     0.125 A 
ATOM     21  H2  TH4 d   1      57.338 -14.534 -30.975  0.00  0.00     0.088 H 
ATOM     22 CL7  TH4 d   1      54.514 -14.256 -31.441  0.00  0.00    -0.062 Cl
ATOM     23  N2  TH4 d   1      55.017 -12.918 -29.100  0.00  0.00    -0.248 NA
ATOM     24  C3  TH4 d   1      55.792 -12.459 -28.080  0.00  0.00     0.011 A 
ATOM     25  H3  TH4 d   1      55.348 -11.888 -27.273  0.00  0.00     0.115 H 
ENDBRANCH  13  16
ENDBRANCH   5  13
ENDBRANCH   1   4
TORSDOF 3
