REMARK WARNING: 32 MAX_TORS EXCEEDED!!!
REMARK  45 active torsions:
REMARK  status: ('A' for Active; 'I' for Inactive)
REMARK    1  A    between atoms: N_1  and  CA_2 
REMARK    2  A    between atoms: CA_2  and  C_3 
REMARK    3  A    between atoms: CA_2  and  CB_5 
REMARK       I    between atoms: C_3  and  N_9 
REMARK    4  A    between atoms: CB_5  and  CG_6 
REMARK    5  A    between atoms: CG_6  and  CD1_7 
REMARK    6  A    between atoms: CG_6  and  CD2_8 
REMARK    7  A    between atoms: N_9  and  CA_10 
REMARK    8  A    between atoms: CA_10  and  C_11 
REMARK    9  A    between atoms: CA_10  and  CB_13 
REMARK       I    between atoms: C_11  and  N_14 
REMARK   10  A    between atoms: N_14  and  CA_15 
REMARK   11  A    between atoms: CA_15  and  C_16 
REMARK   12  A    between atoms: CA_15  and  CB_18 
REMARK       I    between atoms: C_16  and  N_21 
REMARK   13  A    between atoms: CB_18  and  CG1_19 
REMARK   14  A    between atoms: CB_18  and  CG2_20 
REMARK   15  A    between atoms: N_21  and  CA_22 
REMARK   16  A    between atoms: CA_22  and  C_23 
REMARK       I    between atoms: C_23  and  N_25 
REMARK   17  A    between atoms: CA_26  and  C_27 
REMARK       I    between atoms: C_27  and  N_32 
REMARK   18  A    between atoms: CA_33  and  C_34 
REMARK       I    between atoms: C_34  and  N_39 
REMARK   19  A    between atoms: N_39  and  CA_40 
REMARK   20  A    between atoms: CA_40  and  C_41 
REMARK   21  A    between atoms: CA_40  and  CB_43 
REMARK       I    between atoms: C_41  and  N_45 
REMARK   22  A    between atoms: CB_43  and  OG_44 
REMARK   23  A    between atoms: N_45  and  CA_46 
REMARK   24  A    between atoms: CA_46  and  C_47 
REMARK   25  A    between atoms: CA_46  and  CB_49 
REMARK       I    between atoms: C_47  and  N_53 
REMARK   26  A    between atoms: CB_49  and  CG_50 
REMARK   27  A    between atoms: CG_50  and  CD1_51 
REMARK   28  A    between atoms: CG_50  and  CD2_52 
REMARK   29  A    between atoms: N_53  and  CA_54 
REMARK   30  A    between atoms: CA_54  and  C_55 
REMARK   31  A    between atoms: CA_54  and  CB_57 
REMARK       I    between atoms: C_55  and  N_61 
REMARK   32  A    between atoms: CB_57  and  CG_58 
REMARK       I    between atoms: CG_58  and  ND2_60 
REMARK   33  A    between atoms: N_61  and  CA_62 
REMARK   34  A    between atoms: CA_62  and  C_63 
REMARK   35  A    between atoms: CA_62  and  CB_65 
REMARK       I    between atoms: C_63  and  N_73 
REMARK   36  A    between atoms: CB_65  and  CG_66 
REMARK   37  A    between atoms: CZ_71  and  OH_72 
REMARK   38  A    between atoms: N_73  and  CA_74 
REMARK   39  A    between atoms: CA_74  and  C_75 
REMARK   40  A    between atoms: CA_74  and  CB_77 
REMARK       I    between atoms: C_75  and  N_81 
REMARK   41  A    between atoms: CB_77  and  CG1_78 
REMARK   42  A    between atoms: CB_77  and  CG2_79 
REMARK   43  A    between atoms: CG1_78  and  CD1_80 
REMARK   44  A    between atoms: CA_82  and  C_83 
REMARK       I    between atoms: C_83  and  N_88 
REMARK   45  A    between atoms: CA_89  and  C_90 
ROOT
ATOM      1  CA  LEU d   1      26.804  38.907  27.547  0.00  0.00     0.089 C 
ATOM      2  H51 LEU d   1      26.655  39.227  26.505  0.00  0.00     0.087 H 
ENDROOT
BRANCH   1   3
ATOM      3  N   LEU d   1      25.504  38.671  28.154  0.00  0.00    -0.346 N 
ATOM      4  C   SER d   1      24.505  38.154  27.453  0.00  0.00     0.243 C 
ATOM      5  O   SER d   1      24.588  37.890  26.253  0.00  0.00    -0.271 OA
ATOM      6  H50 LEU d   1      25.361  38.903  29.116  0.00  0.00     0.163 HD
BRANCH   4   7
ATOM      7  CA  SER d   1      23.208  37.940  28.198  0.00  0.00     0.109 C 
ATOM      8  H46 SER d   1      22.921  38.874  28.703  0.00  0.00     0.090 H 
BRANCH   7   9
ATOM      9  N   SER d   1      22.185  37.594  27.220  0.00  0.00    -0.344 N 
ATOM     10  C   PRO d   1      20.887  37.768  27.447  0.00  0.00     0.241 C 
ATOM     11  O   PRO d   1      20.426  38.103  28.540  0.00  0.00    -0.271 OA
ATOM     12  H45 SER d   1      22.471  37.210  26.342  0.00  0.00     0.163 HD
BRANCH  10  13
ATOM     13  CA  PRO d   1      19.960  37.510  26.259  0.00  0.00     0.091 C 
ATOM     14  N   PRO d   1      20.657  37.451  24.966  0.00  0.00    -0.337 N 
ATOM     15  C   PRO d   1      21.435  38.425  24.478  0.00  0.00     0.243 C 
ATOM     16  CD  PRO d   1      20.454  36.161  24.284  0.00  0.00    -0.001 C 
ATOM     17  O   PRO d   1      21.696  39.444  25.107  0.00  0.00    -0.271 OA
ATOM     18  CG  PRO d   1      20.094  35.251  25.401  0.00  0.00    -0.048 C 
ATOM     19  H43 PRO d   1      21.375  35.828  23.783  0.00  0.00     0.064 H 
ATOM     20  H44 PRO d   1      19.639  36.226  23.548  0.00  0.00     0.064 H 
ATOM     21  CB  PRO d   1      19.322  36.124  26.375  0.00  0.00    -0.036 C 
ATOM     22  H41 PRO d   1      19.466  34.423  25.040  0.00  0.00     0.035 H 
ATOM     23  H42 PRO d   1      20.998  34.844  25.877  0.00  0.00     0.035 H 
ATOM     24  H39 PRO d   1      18.258  36.164  26.098  0.00  0.00     0.036 H 
ATOM     25  H40 PRO d   1      19.420  35.738  27.401  0.00  0.00     0.036 H 
ATOM     26  H38 PRO d   1      19.189  38.294  26.237  0.00  0.00     0.087 H 
BRANCH  15  27
ATOM     27  CA  PRO d   1      22.023  38.215  23.082  0.00  0.00     0.092 C 
ATOM     28  N   PRO d   1      22.144  39.471  22.340  0.00  0.00    -0.337 N 
ATOM     29  C   GLY d   1      21.099  40.251  22.040  0.00  0.00     0.238 C 
ATOM     30  CD  PRO d   1      23.536  39.745  21.945  0.00  0.00    -0.001 C 
ATOM     31  O   GLY d   1      19.937  39.958  22.330  0.00  0.00    -0.272 OA
ATOM     32  CG  PRO d   1      24.319  38.950  22.934  0.00  0.00    -0.048 C 
ATOM     33  H36 PRO d   1      23.768  40.817  22.026  0.00  0.00     0.064 H 
ATOM     34  H37 PRO d   1      23.732  39.404  20.918  0.00  0.00     0.064 H 
ATOM     35  CB  PRO d   1      23.478  37.725  23.172  0.00  0.00    -0.036 C 
ATOM     36  H34 PRO d   1      25.302  38.675  22.523  0.00  0.00     0.035 H 
ATOM     37  H35 PRO d   1      24.457  39.516  23.867  0.00  0.00     0.035 H 
ATOM     38  H32 PRO d   1      23.678  36.964  22.403  0.00  0.00     0.036 H 
ATOM     39  H33 PRO d   1      23.683  37.303  24.167  0.00  0.00     0.036 H 
ATOM     40  H31 PRO d   1      21.398  37.496  22.531  0.00  0.00     0.087 H 
BRANCH  29  41
ATOM     41  CA  GLY d   1      21.403  41.541  21.311  0.00  0.00     0.069 C 
ATOM     42  H29 GLY d   1      21.910  42.235  21.997  0.00  0.00     0.078 H 
ATOM     43  H30 GLY d   1      22.059  41.328  20.454  0.00  0.00     0.078 H 
BRANCH  41  44
ATOM     44  N   GLY d   1      20.179  42.148  20.836  0.00  0.00    -0.351 N 
ATOM     45  C   VAL d   1      19.833  42.086  19.558  0.00  0.00     0.241 C 
ATOM     46  O   VAL d   1      20.563  41.604  18.688  0.00  0.00    -0.271 OA
ATOM     47  H28 GLY d   1      19.583  42.623  21.483  0.00  0.00     0.163 HD
BRANCH  45  48
ATOM     48  CA  VAL d   1      18.474  42.674  19.205  0.00  0.00     0.092 C 
ATOM     49  H20 VAL d   1      18.075  43.215  20.076  0.00  0.00     0.088 H 
BRANCH  48  50
ATOM     50  N   VAL d   1      18.614  43.603  18.098  0.00  0.00    -0.346 N 
ATOM     51  C   ALA d   1      18.322  44.894  18.218  0.00  0.00     0.240 C 
ATOM     52  O   ALA d   1      17.918  45.407  19.268  0.00  0.00    -0.271 OA
ATOM     53  H19 VAL d   1      18.941  43.261  17.217  0.00  0.00     0.163 HD
BRANCH  51  54
ATOM     54  CA  ALA d   1      18.494  45.723  16.953  0.00  0.00     0.086 C 
ATOM     55  H15 ALA d   1      18.325  45.070  16.084  0.00  0.00     0.086 H 
BRANCH  54  56
ATOM     56  N   ALA d   1      17.505  46.797  16.919  0.00  0.00    -0.346 N 
ATOM     57  C   LEU d   1      16.223  46.564  16.634  0.00  0.00     0.248 C 
ATOM     58  O   LEU d   1      15.822  45.483  16.194  0.00  0.00    -0.271 OA
ATOM     59  H14 ALA d   1      17.797  47.733  17.115  0.00  0.00     0.163 HD
BRANCH  57  60
ATOM     60  CA  LEU d   1      15.244  47.727  16.835  0.00  0.00     0.176 C 
ATOM     61  H4  LEU d   1      15.546  48.547  16.167  0.00  0.00     0.099 H 
BRANCH  60  62
ATOM     62  N   LEU d   1      13.883  47.324  16.481  0.00  0.00    -0.066 N 
ATOM     63  H1  LEU d   1      13.256  48.101  16.620  0.00  0.00     0.275 HD
ATOM     64  H2  LEU d   1      13.598  46.554  17.065  0.00  0.00     0.275 HD
ATOM     65  H3  LEU d   1      13.857  47.040  15.514  0.00  0.00     0.275 HD
ENDBRANCH  60  62
BRANCH  60  66
ATOM     66  CB  LEU d   1      15.288  48.245  18.278  0.00  0.00    -0.028 C 
ATOM     67  H5  LEU d   1      15.229  47.371  18.944  0.00  0.00     0.037 H 
ATOM     68  H6  LEU d   1      14.402  48.880  18.427  0.00  0.00     0.037 H 
BRANCH  66  69
ATOM     69  CG  LEU d   1      16.519  49.064  18.702  0.00  0.00    -0.059 C 
ATOM     70  H7  LEU d   1      17.351  48.356  18.830  0.00  0.00     0.038 H 
BRANCH  69  71
ATOM     71  CD1 LEU d   1      16.927  50.049  17.612  0.00  0.00    -0.073 C 
ATOM     72  H8  LEU d   1      17.808  50.619  17.944  0.00  0.00     0.028 H 
ATOM     73  H9  LEU d   1      16.096  50.742  17.414  0.00  0.00     0.028 H 
ATOM     74  H10 LEU d   1      17.172  49.498  16.692  0.00  0.00     0.028 H 
ENDBRANCH  69  71
BRANCH  69  75
ATOM     75  CD2 LEU d   1      16.315  49.766  20.050  0.00  0.00    -0.073 C 
ATOM     76  H11 LEU d   1      16.022  49.025  20.809  0.00  0.00     0.028 H 
ATOM     77  H12 LEU d   1      15.523  50.523  19.953  0.00  0.00     0.028 H 
ATOM     78  H13 LEU d   1      17.253  50.253  20.356  0.00  0.00     0.028 H 
ENDBRANCH  69  75
ENDBRANCH  66  69
ENDBRANCH  60  66
ENDBRANCH  57  60
ENDBRANCH  54  56
BRANCH  54  79
ATOM     79  CB  ALA d   1      19.905  46.274  16.865  0.00  0.00    -0.049 C 
ATOM     80  H16 ALA d   1      20.625  45.443  16.893  0.00  0.00     0.030 H 
ATOM     81  H17 ALA d   1      20.089  46.948  17.715  0.00  0.00     0.030 H 
ATOM     82  H18 ALA d   1      20.023  46.830  15.924  0.00  0.00     0.030 H 
ENDBRANCH  54  79
ENDBRANCH  51  54
ENDBRANCH  48  50
BRANCH  48  83
ATOM     83  CB  VAL d   1      17.514  41.530  18.843  0.00  0.00    -0.033 C 
ATOM     84  H21 VAL d   1      18.036  40.841  18.163  0.00  0.00     0.042 H 
BRANCH  83  85
ATOM     85  CG1 VAL d   1      17.112  40.755  20.088  0.00  0.00    -0.071 C 
ATOM     86  H22 VAL d   1      16.426  39.942  19.808  0.00  0.00     0.028 H 
ATOM     87  H23 VAL d   1      16.610  41.432  20.795  0.00  0.00     0.028 H 
ATOM     88  H24 VAL d   1      18.010  40.331  20.562  0.00  0.00     0.028 H 
ENDBRANCH  83  85
BRANCH  83  89
ATOM     89  CG2 VAL d   1      16.283  42.082  18.116  0.00  0.00    -0.071 C 
ATOM     90  H25 VAL d   1      16.603  42.637  17.222  0.00  0.00     0.028 H 
ATOM     91  H26 VAL d   1      15.732  42.757  18.788  0.00  0.00     0.028 H 
ATOM     92  H27 VAL d   1      15.630  41.249  17.817  0.00  0.00     0.028 H 
ENDBRANCH  83  89
ENDBRANCH  48  83
ENDBRANCH  45  48
ENDBRANCH  41  44
ENDBRANCH  29  41
ENDBRANCH  15  27
ENDBRANCH  10  13
ENDBRANCH   7   9
BRANCH   7  93
ATOM     93  CB  SER d   1      23.369  36.846  29.254  0.00  0.00     0.044 C 
ATOM     94  H47 SER d   1      22.803  37.129  30.154  0.00  0.00     0.077 H 
ATOM     95  H48 SER d   1      24.435  36.745  29.508  0.00  0.00     0.077 H 
BRANCH  93  96
ATOM     96  OG  SER d   1      22.886  35.600  28.774  0.00  0.00    -0.398 OA
ATOM     97  H49 SER d   1      22.997  34.938  29.447  0.00  0.00     0.209 HD
ENDBRANCH  93  96
ENDBRANCH   7  93
ENDBRANCH   4   7
ENDBRANCH   1   3
BRANCH   1  98
ATOM     98  C   LEU d   1      27.598  37.604  27.540  0.00  0.00     0.241 C 
ATOM     99  O   LEU d   1      28.401  37.356  26.644  0.00  0.00    -0.271 OA
ATOM    100  N   ASN d   1      27.331  36.764  28.534  0.00  0.00    -0.346 N 
ATOM    101  H61 ASN d   1      26.692  37.053  29.247  0.00  0.00     0.163 HD
BRANCH 100 102
ATOM    102  CA  ASN d   1      27.930  35.440  28.629  0.00  0.00     0.097 C 
ATOM    103  H62 ASN d   1      28.726  35.368  27.873  0.00  0.00     0.088 H 
BRANCH 102 104
ATOM    104  C   ASN d   1      26.904  34.344  28.348  0.00  0.00     0.241 C 
ATOM    105  O   ASN d   1      25.728  34.481  28.691  0.00  0.00    -0.271 OA
ATOM    106  N   TYR d   1      27.345  33.259  27.716  0.00  0.00    -0.346 N 
ATOM    107  H67 TYR d   1      28.313  33.172  27.480  0.00  0.00     0.163 HD
BRANCH 106 108
ATOM    108  CA  TYR d   1      26.410  32.201  27.372  0.00  0.00     0.093 C 
ATOM    109  H68 TYR d   1      25.556  32.677  26.868  0.00  0.00     0.088 H 
BRANCH 108 110
ATOM    110  C   TYR d   1      25.883  31.514  28.616  0.00  0.00     0.241 C 
ATOM    111  O   TYR d   1      26.642  31.039  29.458  0.00  0.00    -0.271 OA
ATOM    112  N   ILE d   1      24.566  31.481  28.726  0.00  0.00    -0.346 N 
ATOM    113  H76 ILE d   1      24.005  31.955  28.047  0.00  0.00     0.163 HD
BRANCH 112 114
ATOM    114  CA  ILE d   1      23.922  30.774  29.808  0.00  0.00     0.092 C 
ATOM    115  H77 ILE d   1      24.690  30.342  30.467  0.00  0.00     0.088 H 
BRANCH 114 116
ATOM    116  C   ILE d   1      23.086  29.664  29.216  0.00  0.00     0.243 C 
ATOM    117  O   ILE d   1      22.156  29.922  28.452  0.00  0.00    -0.271 OA
ATOM    118  N   PRO d   1      23.427  28.415  29.553  0.00  0.00    -0.337 N 
ATOM    119  CA  PRO d   1      22.716  27.239  29.046  0.00  0.00     0.092 C 
ATOM    120  CD  PRO d   1      24.536  28.048  30.449  0.00  0.00    -0.001 C 
ATOM    121  CB  PRO d   1      23.476  26.075  29.684  0.00  0.00    -0.036 C 
ATOM    122  H87 PRO d   1      22.753  27.192  27.948  0.00  0.00     0.087 H 
ATOM    123  CG  PRO d   1      24.830  26.648  30.056  0.00  0.00    -0.048 C 
ATOM    124  H88 PRO d   1      23.590  25.248  28.967  0.00  0.00     0.036 H 
ATOM    125  H89 PRO d   1      22.950  25.714  30.580  0.00  0.00     0.036 H 
ATOM    126  H90 PRO d   1      25.515  26.620  29.196  0.00  0.00     0.035 H 
ATOM    127  H91 PRO d   1      25.272  26.092  30.896  0.00  0.00     0.035 H 
ATOM    128  H92 PRO d   1      24.229  28.107  31.504  0.00  0.00     0.064 H 
ATOM    129  H93 PRO d   1      25.409  28.697  30.285  0.00  0.00     0.064 H 
BRANCH 119 130
ATOM    130  C   PRO d   1      21.269  27.233  29.517  0.00  0.00     0.243 C 
ATOM    131  O   PRO d   1      20.989  27.743  30.605  0.00  0.00    -0.271 OA
ATOM    132  N   PRO d   1      20.360  26.671  28.709  0.00  0.00    -0.336 N 
ATOM    133  CA  PRO d   1      18.951  26.525  29.092  0.00  0.00     0.098 C 
ATOM    134  CD  PRO d   1      20.630  26.142  27.360  0.00  0.00    -0.001 C 
ATOM    135  CB  PRO d   1      18.317  25.899  27.845  0.00  0.00    -0.035 C 
ATOM    136  H94 PRO d   1      18.501  27.503  29.317  0.00  0.00     0.089 H 
ATOM    137  CG  PRO d   1      19.462  25.240  27.108  0.00  0.00    -0.048 C 
ATOM    138  H95 PRO d   1      17.850  26.674  27.219  0.00  0.00     0.036 H 
ATOM    139  H96 PRO d   1      17.561  25.153  28.130  0.00  0.00     0.036 H 
ATOM    140  H97 PRO d   1      19.246  25.173  26.032  0.00  0.00     0.035 H 
ATOM    141  H98 PRO d   1      19.654  24.233  27.506  0.00  0.00     0.035 H 
ATOM    142  H99 PRO d   1      21.575  25.579  27.338  0.00  0.00     0.064 H 
ATOM    143 0H10 PRO d   1      20.669  26.953  26.618  0.00  0.00     0.064 H 
BRANCH 133 144
ATOM    144  C   PRO d   1      18.792  25.600  30.303  0.00  0.00     0.196 C 
ATOM    145  O   PRO d   1      19.732  24.853  30.613  0.00  0.00    -0.646 OA
ATOM    146  OXT PRO d   1      17.728  25.624  30.939  0.00  0.00    -0.646 OA
ENDBRANCH 133 144
ENDBRANCH 119 130
ENDBRANCH 114 116
BRANCH 114 147
ATOM    147  CB  ILE d   1      23.034  31.723  30.633  0.00  0.00    -0.030 C 
ATOM    148  H78 ILE d   1      22.309  32.200  29.957  0.00  0.00     0.043 H 
BRANCH 147 149
ATOM    149  CG1 ILE d   1      23.906  32.819  31.248  0.00  0.00    -0.063 C 
ATOM    150  H79 ILE d   1      24.391  33.374  30.431  0.00  0.00     0.033 H 
ATOM    151  H80 ILE d   1      24.674  32.340  31.872  0.00  0.00     0.033 H 
BRANCH 149 152
ATOM    152  CD1 ILE d   1      23.152  33.796  32.097  0.00  0.00    -0.076 C 
ATOM    153  H84 ILE d   1      23.849  34.547  32.499  0.00  0.00     0.027 H 
ATOM    154  H85 ILE d   1      22.669  33.262  32.929  0.00  0.00     0.027 H 
ATOM    155  H86 ILE d   1      22.385  34.296  31.487  0.00  0.00     0.027 H 
ENDBRANCH 149 152
ENDBRANCH 147 149
BRANCH 147 156
ATOM    156  CG2 ILE d   1      22.251  30.947  31.689  0.00  0.00    -0.071 C 
ATOM    157  H81 ILE d   1      21.642  30.173  31.199  0.00  0.00     0.028 H 
ATOM    158  H82 ILE d   1      21.594  31.637  32.239  0.00  0.00     0.028 H 
ATOM    159  H83 ILE d   1      22.953  30.471  32.390  0.00  0.00     0.028 H 
ENDBRANCH 147 156
ENDBRANCH 114 147
ENDBRANCH 112 114
ENDBRANCH 108 110
BRANCH 108 160
ATOM    160  CB  TYR d   1      26.991  31.168  26.399  0.00  0.00    -0.014 C 
ATOM    161  H69 TYR d   1      27.833  30.650  26.882  0.00  0.00     0.043 H 
ATOM    162  H70 TYR d   1      27.347  31.684  25.495  0.00  0.00     0.043 H 
BRANCH 160 163
ATOM    163  CG  TYR d   1      25.939  30.150  26.009  0.00  0.00    -0.056 A 
ATOM    164  CD1 TYR d   1      24.880  30.504  25.180  0.00  0.00    -0.074 A 
ATOM    165  CE1 TYR d   1      23.896  29.598  24.840  0.00  0.00    -0.051 A 
ATOM    166  H71 TYR d   1      24.826  31.515  24.792  0.00  0.00     0.084 H 
ATOM    167  CZ  TYR d   1      23.946  28.317  25.332  0.00  0.00     0.065 A 
ATOM    168  H73 TYR d   1      23.085  29.897  24.186  0.00  0.00     0.087 H 
ATOM    169  CE2 TYR d   1      24.975  27.940  26.171  0.00  0.00    -0.051 A 
ATOM    170  CD2 TYR d   1      25.966  28.860  26.508  0.00  0.00    -0.074 A 
ATOM    171  H74 TYR d   1      25.012  26.931  26.567  0.00  0.00     0.087 H 
ATOM    172  H72 TYR d   1      26.770  28.560  27.171  0.00  0.00     0.084 H 
BRANCH 167 173
ATOM    173  OH  TYR d   1      22.965  27.419  24.982  0.00  0.00    -0.361 OA
ATOM    174  H75 TYR d   1      22.341  27.842  24.404  0.00  0.00     0.217 HD
ENDBRANCH 167 173
ENDBRANCH 160 163
ENDBRANCH 108 160
ENDBRANCH 106 108
ENDBRANCH 102 104
BRANCH 102 175
ATOM    175  CB  ASN d   1      28.555  35.237  30.007  0.00  0.00     0.036 C 
ATOM    176  H63 ASN d   1      28.822  34.176  30.122  0.00  0.00     0.051 H 
ATOM    177  H64 ASN d   1      27.818  35.515  30.774  0.00  0.00     0.051 H 
BRANCH 175 178
ATOM    178  CG  ASN d   1      29.803  36.078  30.202  0.00  0.00     0.217 C 
ATOM    179  OD1 ASN d   1      30.317  36.677  29.253  0.00  0.00    -0.274 OA
ATOM    180  ND2 ASN d   1      30.307  36.116  31.429  0.00  0.00    -0.370 N 
ATOM    181  H65 ASN d   1      31.129  36.654  31.616  0.00  0.00     0.159 HD
ATOM    182  H66 ASN d   1      29.865  35.606  32.167  0.00  0.00     0.159 HD
ENDBRANCH 175 178
ENDBRANCH 102 175
ENDBRANCH 100 102
ENDBRANCH   1  98
BRANCH   1 183
ATOM    183  CB  LEU d   1      27.537  40.027  28.290  0.00  0.00    -0.035 C 
ATOM    184  H52 LEU d   1      28.616  39.821  28.237  0.00  0.00     0.037 H 
ATOM    185  H53 LEU d   1      27.211  40.009  29.340  0.00  0.00     0.037 H 
BRANCH 183 186
ATOM    186  CG  LEU d   1      27.295  41.441  27.741  0.00  0.00    -0.059 C 
ATOM    187  H54 LEU d   1      27.617  42.161  28.508  0.00  0.00     0.038 H 
BRANCH 186 188
ATOM    188  CD1 LEU d   1      28.134  41.662  26.498  0.00  0.00    -0.073 C 
ATOM    189  H55 LEU d   1      27.956  42.676  26.111  0.00  0.00     0.028 H 
ATOM    190  H56 LEU d   1      27.856  40.923  25.732  0.00  0.00     0.028 H 
ATOM    191  H57 LEU d   1      29.199  41.548  26.749  0.00  0.00     0.028 H 
ENDBRANCH 186 188
BRANCH 186 192
ATOM    192  CD2 LEU d   1      25.818  41.709  27.438  0.00  0.00    -0.073 C 
ATOM    193  H58 LEU d   1      25.221  41.545  28.348  0.00  0.00     0.028 H 
ATOM    194  H59 LEU d   1      25.476  41.025  26.647  0.00  0.00     0.028 H 
ATOM    195  H60 LEU d   1      25.695  42.749  27.102  0.00  0.00     0.028 H 
ENDBRANCH 186 192
ENDBRANCH 183 186
ENDBRANCH   1 183
TORSDOF 45
