REMARK WARNING: 32 MAX_TORS EXCEEDED!!!
REMARK  49 active torsions:
REMARK  status: ('A' for Active; 'I' for Inactive)
REMARK    1  A    between atoms: N_1  and  CA_2 
REMARK    2  A    between atoms: CA_2  and  C_3 
REMARK    3  A    between atoms: CA_2  and  CB_5 
REMARK       I    between atoms: C_3  and  N_9 
REMARK    4  A    between atoms: CB_5  and  CG_6 
REMARK    5  A    between atoms: N_9  and  CA_10 
REMARK    6  A    between atoms: CA_10  and  C_11 
REMARK    7  A    between atoms: CA_10  and  CB_13 
REMARK       I    between atoms: C_11  and  N_17 
REMARK    8  A    between atoms: CB_13  and  CG_14 
REMARK    9  A    between atoms: CG_14  and  CD1_15 
REMARK   10  A    between atoms: CG_14  and  CD2_16 
REMARK   11  A    between atoms: N_17  and  CA_18 
REMARK   12  A    between atoms: CA_18  and  C_19 
REMARK   13  A    between atoms: CA_18  and  CB_21 
REMARK       I    between atoms: C_19  and  N_22 
REMARK   14  A    between atoms: N_22  and  CA_23 
REMARK   15  A    between atoms: CA_23  and  C_24 
REMARK   16  A    between atoms: CA_23  and  CB_26 
REMARK       I    between atoms: C_24  and  N_29 
REMARK   17  A    between atoms: CB_26  and  CG1_27 
REMARK   18  A    between atoms: CB_26  and  CG2_28 
REMARK   19  A    between atoms: N_29  and  CA_30 
REMARK   20  A    between atoms: CA_30  and  C_31 
REMARK       I    between atoms: C_31  and  N_33 
REMARK   21  A    between atoms: CA_34  and  C_35 
REMARK       I    between atoms: C_35  and  N_40 
REMARK   22  A    between atoms: CA_41  and  C_42 
REMARK       I    between atoms: C_42  and  N_47 
REMARK   23  A    between atoms: N_47  and  CA_48 
REMARK   24  A    between atoms: CA_48  and  C_49 
REMARK   25  A    between atoms: CA_48  and  CB_51 
REMARK       I    between atoms: C_49  and  N_53 
REMARK   26  A    between atoms: CB_51  and  OG_52 
REMARK   27  A    between atoms: N_53  and  CA_54 
REMARK   28  A    between atoms: CA_54  and  C_55 
REMARK   29  A    between atoms: CA_54  and  CB_57 
REMARK       I    between atoms: C_55  and  N_61 
REMARK   30  A    between atoms: CB_57  and  CG_58 
REMARK   31  A    between atoms: CG_58  and  CD1_59 
REMARK   32  A    between atoms: CG_58  and  CD2_60 
REMARK   33  A    between atoms: N_61  and  CA_62 
REMARK   34  A    between atoms: CA_62  and  C_63 
REMARK   35  A    between atoms: CA_62  and  CB_65 
REMARK       I    between atoms: C_63  and  N_69 
REMARK   36  A    between atoms: CB_65  and  CG_66 
REMARK       I    between atoms: CG_66  and  ND2_68 
REMARK   37  A    between atoms: N_69  and  CA_70 
REMARK   38  A    between atoms: CA_70  and  C_71 
REMARK   39  A    between atoms: CA_70  and  CB_73 
REMARK       I    between atoms: C_71  and  N_81 
REMARK   40  A    between atoms: CB_73  and  CG_74 
REMARK   41  A    between atoms: CZ_79  and  OH_80 
REMARK   42  A    between atoms: CA_82  and  C_83 
REMARK       I    between atoms: C_83  and  N_88 
REMARK   43  A    between atoms: N_88  and  CA_89 
REMARK   44  A    between atoms: CA_89  and  C_90 
REMARK       I    between atoms: C_90  and  N_92 
REMARK   45  A    between atoms: N_92  and  CA_93 
REMARK   46  A    between atoms: CA_93  and  C_94 
REMARK   47  A    between atoms: CA_93  and  CB_96 
REMARK   48  A    between atoms: CB_96  and  CG_97 
REMARK   49  A    between atoms: CZ_102  and  OH_103 
ROOT
ATOM      1  CA  SER d   1     -10.575  36.951 -23.882  0.00  0.00     0.109 C 
ATOM      2  H50 SER d   1     -11.360  37.708 -23.737  0.00  0.00     0.090 H 
ENDROOT
BRANCH   1   3
ATOM      3  N   SER d   1     -11.134  35.858 -24.672  0.00  0.00    -0.344 N 
ATOM      4  C   PRO d   1     -12.377  35.429 -24.479  0.00  0.00     0.241 C 
ATOM      5  O   PRO d   1     -13.096  35.839 -23.569  0.00  0.00    -0.271 OA
ATOM      6  H49 SER d   1     -10.569  35.423 -25.373  0.00  0.00     0.163 HD
BRANCH   4   7
ATOM      7  CA  PRO d   1     -12.913  34.378 -25.449  0.00  0.00     0.091 C 
ATOM      8  N   PRO d   1     -12.389  34.540 -26.811  0.00  0.00    -0.337 N 
ATOM      9  C   PRO d   1     -12.599  35.651 -27.539  0.00  0.00     0.243 C 
ATOM     10  CD  PRO d   1     -11.679  33.336 -27.271  0.00  0.00    -0.001 C 
ATOM     11  O   PRO d   1     -13.271  36.603 -27.138  0.00  0.00    -0.271 OA
ATOM     12  CG  PRO d   1     -11.319  32.658 -25.992  0.00  0.00    -0.048 C 
ATOM     13  H47 PRO d   1     -10.780  33.601 -27.846  0.00  0.00     0.064 H 
ATOM     14  H48 PRO d   1     -12.333  32.701 -27.886  0.00  0.00     0.064 H 
ATOM     15  CB  PRO d   1     -12.430  32.978 -25.047  0.00  0.00    -0.036 C 
ATOM     16  H45 PRO d   1     -11.242  31.571 -26.141  0.00  0.00     0.035 H 
ATOM     17  H46 PRO d   1     -10.364  33.044 -25.608  0.00  0.00     0.035 H 
ATOM     18  H43 PRO d   1     -13.245  32.246 -25.148  0.00  0.00     0.036 H 
ATOM     19  H44 PRO d   1     -12.065  32.980 -24.009  0.00  0.00     0.036 H 
ATOM     20  H42 PRO d   1     -14.012  34.425 -25.454  0.00  0.00     0.087 H 
BRANCH   9  21
ATOM     21  CA  PRO d   1     -11.975  35.708 -28.934  0.00  0.00     0.092 C 
ATOM     22  N   PRO d   1     -12.679  36.658 -29.804  0.00  0.00    -0.337 N 
ATOM     23  C   GLY d   1     -13.891  36.411 -30.320  0.00  0.00     0.238 C 
ATOM     24  CD  PRO d   1     -11.900  37.887 -30.030  0.00  0.00    -0.001 C 
ATOM     25  O   GLY d   1     -14.508  35.370 -30.095  0.00  0.00    -0.272 OA
ATOM     26  CG  PRO d   1     -10.761  37.756 -29.065  0.00  0.00    -0.048 C 
ATOM     27  H40 PRO d   1     -12.502  38.781 -29.810  0.00  0.00     0.064 H 
ATOM     28  H41 PRO d   1     -11.535  37.937 -31.066  0.00  0.00     0.064 H 
ATOM     29  CB  PRO d   1     -10.564  36.293 -28.862  0.00  0.00    -0.036 C 
ATOM     30  H38 PRO d   1      -9.851  38.210 -29.484  0.00  0.00     0.035 H 
ATOM     31  H39 PRO d   1     -11.009  38.245 -28.111  0.00  0.00     0.035 H 
ATOM     32  H36 PRO d   1      -9.927  35.872 -29.654  0.00  0.00     0.036 H 
ATOM     33  H37 PRO d   1     -10.109  36.094 -27.881  0.00  0.00     0.036 H 
ATOM     34  H35 PRO d   1     -11.967  34.700 -29.375  0.00  0.00     0.087 H 
BRANCH  23  35
ATOM     35  CA  GLY d   1     -14.494  37.479 -31.215  0.00  0.00     0.069 C 
ATOM     36  H33 GLY d   1     -14.633  38.401 -30.632  0.00  0.00     0.078 H 
ATOM     37  H34 GLY d   1     -13.810  37.675 -32.054  0.00  0.00     0.078 H 
BRANCH  35  38
ATOM     38  N   GLY d   1     -15.780  37.048 -31.739  0.00  0.00    -0.351 N 
ATOM     39  C   VAL d   1     -16.011  36.908 -33.045  0.00  0.00     0.241 C 
ATOM     40  O   VAL d   1     -15.196  37.222 -33.911  0.00  0.00    -0.271 OA
ATOM     41  H32 GLY d   1     -16.519  36.849 -31.096  0.00  0.00     0.163 HD
BRANCH  39  42
ATOM     42  CA  VAL d   1     -17.369  36.321 -33.430  0.00  0.00     0.092 C 
ATOM     43  H24 VAL d   1     -18.071  36.554 -32.615  0.00  0.00     0.088 H 
BRANCH  42  44
ATOM     44  N   VAL d   1     -17.925  36.888 -34.654  0.00  0.00    -0.346 N 
ATOM     45  C   ALA d   1     -18.862  37.826 -34.602  0.00  0.00     0.240 C 
ATOM     46  O   ALA d   1     -19.141  38.426 -33.565  0.00  0.00    -0.271 OA
ATOM     47  H23 VAL d   1     -17.596  36.566 -35.542  0.00  0.00     0.163 HD
BRANCH  45  48
ATOM     48  CA  ALA d   1     -19.611  38.132 -35.887  0.00  0.00     0.086 C 
ATOM     49  H19 ALA d   1     -19.630  37.255 -36.551  0.00  0.00     0.086 H 
BRANCH  48  50
ATOM     50  N   ALA d   1     -20.947  38.456 -35.413  0.00  0.00    -0.346 N 
ATOM     51  C   LEU d   1     -22.012  38.520 -36.202  0.00  0.00     0.241 C 
ATOM     52  O   LEU d   1     -21.956  38.460 -37.432  0.00  0.00    -0.271 OA
ATOM     53  H18 ALA d   1     -21.070  38.641 -34.438  0.00  0.00     0.163 HD
BRANCH  51  54
ATOM     54  CA  LEU d   1     -23.341  38.685 -35.476  0.00  0.00     0.089 C 
ATOM     55  H8  LEU d   1     -23.185  38.382 -34.430  0.00  0.00     0.087 H 
BRANCH  54  56
ATOM     56  N   LEU d   1     -23.825  40.058 -35.465  0.00  0.00    -0.346 N 
ATOM     57  C   ASP d   1     -24.292  40.616 -34.354  0.00  0.00     0.249 C 
ATOM     58  O   ASP d   1     -24.115  40.132 -33.235  0.00  0.00    -0.271 OA
ATOM     59  H7  LEU d   1     -23.805  40.591 -36.311  0.00  0.00     0.163 HD
BRANCH  57  60
ATOM     60  CA  ASP d   1     -25.041  41.935 -34.520  0.00  0.00     0.185 C 
ATOM     61  H4  ASP d   1     -24.485  42.568 -35.227  0.00  0.00     0.100 H 
BRANCH  60  62
ATOM     62  N   ASP d   1     -26.378  41.705 -35.058  0.00  0.00    -0.066 N 
ATOM     63  H1  ASP d   1     -26.855  42.587 -35.160  0.00  0.00     0.275 HD
ATOM     64  H2  ASP d   1     -26.896  41.113 -34.428  0.00  0.00     0.275 HD
ATOM     65  H3  ASP d   1     -26.306  41.256 -35.958  0.00  0.00     0.275 HD
ENDBRANCH  60  62
BRANCH  60  66
ATOM     66  CB  ASP d   1     -25.121  42.657 -33.177  0.00  0.00     0.050 C 
ATOM     67  H5  ASP d   1     -25.454  41.941 -32.411  0.00  0.00     0.052 H 
ATOM     68  H6  ASP d   1     -25.853  43.474 -33.259  0.00  0.00     0.052 H 
BRANCH  66  69
ATOM     69  CG  ASP d   1     -23.788  43.240 -32.751  0.00  0.00     0.175 C 
ATOM     70  OD1 ASP d   1     -22.762  42.533 -32.847  0.00  0.00    -0.648 OA
ATOM     71  OD2 ASP d   1     -23.763  44.415 -32.331  0.00  0.00    -0.648 OA
ENDBRANCH  66  69
ENDBRANCH  60  66
ENDBRANCH  57  60
ENDBRANCH  54  56
BRANCH  54  72
ATOM     72  CB  LEU d   1     -24.397  37.758 -36.088  0.00  0.00    -0.035 C 
ATOM     73  H9  LEU d   1     -24.508  38.040 -37.145  0.00  0.00     0.037 H 
ATOM     74  H10 LEU d   1     -25.343  37.944 -35.558  0.00  0.00     0.037 H 
BRANCH  72  75
ATOM     75  CG  LEU d   1     -24.137  36.250 -36.043  0.00  0.00    -0.059 C 
ATOM     76  H11 LEU d   1     -23.382  36.008 -36.806  0.00  0.00     0.038 H 
BRANCH  75  77
ATOM     77  CD1 LEU d   1     -23.566  35.884 -34.695  0.00  0.00    -0.073 C 
ATOM     78  H12 LEU d   1     -23.378  34.801 -34.658  0.00  0.00     0.028 H 
ATOM     79  H13 LEU d   1     -24.282  36.158 -33.907  0.00  0.00     0.028 H 
ATOM     80  H14 LEU d   1     -22.622  36.426 -34.537  0.00  0.00     0.028 H 
ENDBRANCH  75  77
BRANCH  75  81
ATOM     81  CD2 LEU d   1     -25.402  35.470 -36.386  0.00  0.00    -0.073 C 
ATOM     82  H15 LEU d   1     -25.767  35.781 -37.376  0.00  0.00     0.028 H 
ATOM     83  H16 LEU d   1     -26.174  35.673 -35.630  0.00  0.00     0.028 H 
ATOM     84  H17 LEU d   1     -25.177  34.393 -36.400  0.00  0.00     0.028 H 
ENDBRANCH  75  81
ENDBRANCH  72  75
ENDBRANCH  54  72
ENDBRANCH  51  54
ENDBRANCH  48  50
BRANCH  48  85
ATOM     85  CB  ALA d   1     -18.992  39.298 -36.615  0.00  0.00    -0.049 C 
ATOM     86  H20 ALA d   1     -17.985  39.022 -36.960  0.00  0.00     0.030 H 
ATOM     87  H21 ALA d   1     -18.923  40.160 -35.935  0.00  0.00     0.030 H 
ATOM     88  H22 ALA d   1     -19.616  39.563 -37.481  0.00  0.00     0.030 H 
ENDBRANCH  48  85
ENDBRANCH  45  48
ENDBRANCH  42  44
BRANCH  42  89
ATOM     89  CB  VAL d   1     -17.262  34.798 -33.540  0.00  0.00    -0.033 C 
ATOM     90  H25 VAL d   1     -16.407  34.548 -34.185  0.00  0.00     0.042 H 
BRANCH  89  91
ATOM     91  CG1 VAL d   1     -17.046  34.188 -32.183  0.00  0.00    -0.071 C 
ATOM     92  H26 VAL d   1     -16.971  33.095 -32.280  0.00  0.00     0.028 H 
ATOM     93  H27 VAL d   1     -17.893  34.441 -31.528  0.00  0.00     0.028 H 
ATOM     94  H28 VAL d   1     -16.116  34.582 -31.748  0.00  0.00     0.028 H 
ENDBRANCH  89  91
BRANCH  89  95
ATOM     95  CG2 VAL d   1     -18.525  34.224 -34.149  0.00  0.00    -0.071 C 
ATOM     96  H29 VAL d   1     -18.687  34.667 -35.142  0.00  0.00     0.028 H 
ATOM     97  H30 VAL d   1     -19.383  34.455 -33.500  0.00  0.00     0.028 H 
ATOM     98  H31 VAL d   1     -18.422  33.133 -34.247  0.00  0.00     0.028 H 
ENDBRANCH  89  95
ENDBRANCH  42  89
ENDBRANCH  39  42
ENDBRANCH  35  38
ENDBRANCH  23  35
ENDBRANCH   9  21
ENDBRANCH   4   7
ENDBRANCH   1   3
BRANCH   1  99
ATOM     99  C   SER d   1      -9.406  37.601 -24.607  0.00  0.00     0.243 C 
ATOM    100  O   SER d   1      -9.133  37.299 -25.769  0.00  0.00    -0.271 OA
ATOM    101  N   LEU d   1      -8.718  38.498 -23.914  0.00  0.00    -0.346 N 
ATOM    102  H54 LEU d   1      -9.011  38.729 -22.986  0.00  0.00     0.163 HD
BRANCH 101 103
ATOM    103  CA  LEU d   1      -7.547  39.153 -24.474  0.00  0.00     0.089 C 
ATOM    104  H55 LEU d   1      -7.513  38.949 -25.554  0.00  0.00     0.087 H 
BRANCH 103 105
ATOM    105  C   LEU d   1      -6.285  38.588 -23.834  0.00  0.00     0.241 C 
ATOM    106  O   LEU d   1      -5.169  38.864 -24.276  0.00  0.00    -0.271 OA
ATOM    107  N   ASN d   1      -6.479  37.791 -22.789  0.00  0.00    -0.346 N 
ATOM    108  H65 ASN d   1      -7.409  37.666 -22.444  0.00  0.00     0.163 HD
BRANCH 107 109
ATOM    109  CA  ASN d   1      -5.385  37.093 -22.129  0.00  0.00     0.097 C 
ATOM    110  H66 ASN d   1      -4.434  37.466 -22.536  0.00  0.00     0.088 H 
BRANCH 109 111
ATOM    111  C   ASN d   1      -5.483  35.600 -22.399  0.00  0.00     0.241 C 
ATOM    112  O   ASN d   1      -6.544  35.101 -22.774  0.00  0.00    -0.271 OA
ATOM    113  N   TYR d   1      -4.381  34.884 -22.206  0.00  0.00    -0.346 N 
ATOM    114  H71 TYR d   1      -3.540  35.339 -21.913  0.00  0.00     0.163 HD
BRANCH 113 115
ATOM    115  CA  TYR d   1      -4.384  33.443 -22.416  0.00  0.00     0.093 C 
ATOM    116  H72 TYR d   1      -5.406  33.148 -22.695  0.00  0.00     0.088 H 
BRANCH 115 117
ATOM    117  C   TYR d   1      -4.016  32.683 -21.135  0.00  0.00     0.243 C 
ATOM    118  O   TYR d   1      -3.040  33.024 -20.464  0.00  0.00    -0.271 OA
ATOM    119  N   PRO d   1      -4.794  31.644 -20.798  0.00  0.00    -0.337 N 
ATOM    120  CA  PRO d   1      -5.960  31.199 -21.565  0.00  0.00     0.091 C 
ATOM    121  CD  PRO d   1      -4.446  30.700 -19.720  0.00  0.00    -0.001 C 
ATOM    122  CB  PRO d   1      -6.012  29.705 -21.264  0.00  0.00    -0.036 C 
ATOM    123  H80 PRO d   1      -5.808  31.384 -22.639  0.00  0.00     0.087 H 
ATOM    124  CG  PRO d   1      -5.462  29.589 -19.879  0.00  0.00    -0.048 C 
ATOM    125  H81 PRO d   1      -5.393  29.142 -21.978  0.00  0.00     0.036 H 
ATOM    126  H82 PRO d   1      -7.047  29.335 -21.305  0.00  0.00     0.036 H 
ATOM    127  H83 PRO d   1      -4.978  28.610 -19.744  0.00  0.00     0.035 H 
ATOM    128  H84 PRO d   1      -6.269  29.704 -19.140  0.00  0.00     0.035 H 
ATOM    129  H85 PRO d   1      -4.538  31.178 -18.734  0.00  0.00     0.064 H 
ATOM    130  H86 PRO d   1      -3.423  30.318 -19.848  0.00  0.00     0.064 H 
BRANCH 120 131
ATOM    131  C   PRO d   1      -7.261  31.858 -21.123  0.00  0.00     0.241 C 
ATOM    132  O   PRO d   1      -8.161  31.992 -21.950  0.00  0.00    -0.271 OA
ATOM    133  N   GLY d   1      -7.366  32.249 -19.853  0.00  0.00    -0.351 N 
ATOM    134  H87 GLY d   1      -6.551  32.252 -19.273  0.00  0.00     0.163 HD
BRANCH 133 135
ATOM    135  CA  GLY d   1      -8.641  32.671 -19.293  0.00  0.00     0.069 C 
ATOM    136  H88 GLY d   1      -9.191  33.255 -20.046  0.00  0.00     0.078 H 
ATOM    137  H89 GLY d   1      -8.457  33.297 -18.407  0.00  0.00     0.078 H 
BRANCH 135 138
ATOM    138  C   GLY d   1      -9.477  31.465 -18.888  0.00  0.00     0.236 C 
ATOM    139  O   GLY d   1     -10.486  31.601 -18.193  0.00  0.00    -0.272 OA
ATOM    140  N   TYR d   1      -9.024  30.289 -19.332  0.00  0.00    -0.345 N 
ATOM    141  H90 TYR d   1      -8.177  30.299 -19.864  0.00  0.00     0.163 HD
BRANCH 140 142
ATOM    142  CA  TYR d   1      -9.659  28.982 -19.108  0.00  0.00     0.100 C 
ATOM    143  H91 TYR d   1      -9.450  28.390 -20.011  0.00  0.00     0.090 H 
BRANCH 142 144
ATOM    144  C   TYR d   1     -11.184  28.999 -18.967  0.00  0.00     0.197 C 
ATOM    145  O   TYR d   1     -11.904  29.178 -19.950  0.00  0.00    -0.646 OA
ATOM    146  OXT TYR d   1     -11.715  28.834 -17.868  0.00  0.00    -0.646 OA
ENDBRANCH 142 144
BRANCH 142 147
ATOM    147  CB  TYR d   1      -8.998  28.241 -17.933  0.00  0.00    -0.013 C 
ATOM    148  H92 TYR d   1      -8.040  28.734 -17.714  0.00  0.00     0.043 H 
ATOM    149  H93 TYR d   1      -8.813  27.203 -18.245  0.00  0.00     0.043 H 
BRANCH 147 150
ATOM    150  CG  TYR d   1      -9.813  28.211 -16.660  0.00  0.00    -0.056 A 
ATOM    151  CD1 TYR d   1     -10.632  27.125 -16.360  0.00  0.00    -0.074 A 
ATOM    152  CE1 TYR d   1     -11.379  27.092 -15.196  0.00  0.00    -0.051 A 
ATOM    153  H94 TYR d   1     -10.685  26.291 -17.051  0.00  0.00     0.084 H 
ATOM    154  CZ  TYR d   1     -11.308  28.149 -14.310  0.00  0.00     0.065 A 
ATOM    155  H96 TYR d   1     -12.016  26.242 -14.981  0.00  0.00     0.087 H 
ATOM    156  CE2 TYR d   1     -10.501  29.236 -14.583  0.00  0.00    -0.051 A 
ATOM    157  CD2 TYR d   1      -9.758  29.261 -15.752  0.00  0.00    -0.074 A 
ATOM    158  H97 TYR d   1     -10.449  30.065 -13.886  0.00  0.00     0.087 H 
ATOM    159  H95 TYR d   1      -9.123  30.114 -15.962  0.00  0.00     0.084 H 
BRANCH 154 160
ATOM    160  OH  TYR d   1     -12.047  28.122 -13.150  0.00  0.00    -0.361 OA
ATOM    161  H98 TYR d   1     -12.545  27.314 -13.112  0.00  0.00     0.217 HD
ENDBRANCH 154 160
ENDBRANCH 147 150
ENDBRANCH 142 147
ENDBRANCH 140 142
ENDBRANCH 135 138
ENDBRANCH 133 135
ENDBRANCH 120 131
ENDBRANCH 115 117
BRANCH 115 162
ATOM    162  CB  TYR d   1      -3.457  33.062 -23.572  0.00  0.00    -0.014 C 
ATOM    163  H73 TYR d   1      -2.417  33.106 -23.217  0.00  0.00     0.043 H 
ATOM    164  H74 TYR d   1      -3.597  33.786 -24.388  0.00  0.00     0.043 H 
BRANCH 162 165
ATOM    165  CG  TYR d   1      -3.725  31.678 -24.106  0.00  0.00    -0.056 A 
ATOM    166  CD1 TYR d   1      -2.954  30.598 -23.705  0.00  0.00    -0.074 A 
ATOM    167  CE1 TYR d   1      -3.199  29.331 -24.185  0.00  0.00    -0.051 A 
ATOM    168  H75 TYR d   1      -2.144  30.754 -23.001  0.00  0.00     0.084 H 
ATOM    169  CZ  TYR d   1      -4.229  29.130 -25.076  0.00  0.00     0.065 A 
ATOM    170  H77 TYR d   1      -2.585  28.497 -23.863  0.00  0.00     0.087 H 
ATOM    171  CE2 TYR d   1      -5.014  30.187 -25.489  0.00  0.00    -0.051 A 
ATOM    172  CD2 TYR d   1      -4.761  31.449 -25.002  0.00  0.00    -0.074 A 
ATOM    173  H78 TYR d   1      -5.824  30.025 -26.191  0.00  0.00     0.087 H 
ATOM    174  H76 TYR d   1      -5.381  32.278 -25.323  0.00  0.00     0.084 H 
BRANCH 169 175
ATOM    175  OH  TYR d   1      -4.476  27.865 -25.553  0.00  0.00    -0.361 OA
ATOM    176  H79 TYR d   1      -5.358  27.605 -25.315  0.00  0.00     0.217 HD
ENDBRANCH 169 175
ENDBRANCH 162 165
ENDBRANCH 115 162
ENDBRANCH 113 115
ENDBRANCH 109 111
BRANCH 109 177
ATOM    177  CB  ASN d   1      -5.406  37.348 -20.619  0.00  0.00     0.036 C 
ATOM    178  H67 ASN d   1      -4.673  36.683 -20.140  0.00  0.00     0.051 H 
ATOM    179  H68 ASN d   1      -6.412  37.120 -20.238  0.00  0.00     0.051 H 
BRANCH 177 180
ATOM    180  CG  ASN d   1      -5.065  38.783 -20.262  0.00  0.00     0.217 C 
ATOM    181  OD1 ASN d   1      -3.902  39.186 -20.307  0.00  0.00    -0.274 OA
ATOM    182  ND2 ASN d   1      -6.078  39.559 -19.891  0.00  0.00    -0.370 N 
ATOM    183  H69 ASN d   1      -5.912  40.514 -19.644  0.00  0.00     0.159 HD
ATOM    184  H70 ASN d   1      -7.006  39.188 -19.858  0.00  0.00     0.159 HD
ENDBRANCH 177 180
ENDBRANCH 109 177
ENDBRANCH 107 109
ENDBRANCH 103 105
BRANCH 103 185
ATOM    185  CB  LEU d   1      -7.632  40.666 -24.271  0.00  0.00    -0.035 C 
ATOM    186  H56 LEU d   1      -6.617  41.030 -24.054  0.00  0.00     0.037 H 
ATOM    187  H57 LEU d   1      -8.280  40.849 -23.401  0.00  0.00     0.037 H 
BRANCH 185 188
ATOM    188  CG  LEU d   1      -8.180  41.493 -25.438  0.00  0.00    -0.059 C 
ATOM    189  H58 LEU d   1      -7.389  41.579 -26.198  0.00  0.00     0.038 H 
BRANCH 188 190
ATOM    190  CD1 LEU d   1      -9.384  40.828 -26.087  0.00  0.00    -0.073 C 
ATOM    191  H59 LEU d   1      -9.745  41.453 -26.917  0.00  0.00     0.028 H 
ATOM    192  H60 LEU d   1     -10.184  40.711 -25.342  0.00  0.00     0.028 H 
ATOM    193  H61 LEU d   1      -9.094  39.839 -26.472  0.00  0.00     0.028 H 
ENDBRANCH 188 190
BRANCH 188 194
ATOM    194  CD2 LEU d   1      -8.538  42.890 -24.957  0.00  0.00    -0.073 C 
ATOM    195  H62 LEU d   1      -7.656  43.355 -24.491  0.00  0.00     0.028 H 
ATOM    196  H63 LEU d   1      -9.352  42.827 -24.220  0.00  0.00     0.028 H 
ATOM    197  H64 LEU d   1      -8.865  43.500 -25.812  0.00  0.00     0.028 H 
ENDBRANCH 188 194
ENDBRANCH 185 188
ENDBRANCH 103 185
ENDBRANCH 101 103
ENDBRANCH   1  99
BRANCH   1 198
ATOM    198  CB  SER d   1     -10.118  36.457 -22.507  0.00  0.00     0.044 C 
ATOM    199  H51 SER d   1     -10.876  35.770 -22.102  0.00  0.00     0.077 H 
ATOM    200  H52 SER d   1     -10.008  37.320 -21.834  0.00  0.00     0.077 H 
BRANCH 198 201
ATOM    201  OG  SER d   1      -8.879  35.778 -22.595  0.00  0.00    -0.398 OA
ATOM    202  H53 SER d   1      -8.220  36.368 -22.941  0.00  0.00     0.209 HD
ENDBRANCH 198 201
ENDBRANCH   1 198
TORSDOF 49
