REMARK WARNING: 32 MAX_TORS EXCEEDED!!!
REMARK  41 active torsions:
REMARK  status: ('A' for Active; 'I' for Inactive)
REMARK    1  A    between atoms: N_1  and  CA_2 
REMARK    2  A    between atoms: CA_2  and  C_3 
REMARK    3  A    between atoms: CA_2  and  CB_5 
REMARK       I    between atoms: C_3  and  N_10 
REMARK    4  A    between atoms: CB_5  and  CG_6 
REMARK    5  A    between atoms: CG_6  and  CD_7 
REMARK       I    between atoms: CD_7  and  NE2_9 
REMARK    6  A    between atoms: N_10  and  CA_11 
REMARK    7  A    between atoms: CA_11  and  C_12 
REMARK    8  A    between atoms: CA_11  and  CB_14 
REMARK       I    between atoms: C_12  and  N_15 
REMARK    9  A    between atoms: N_15  and  CA_16 
REMARK   10  A    between atoms: CA_16  and  C_17 
REMARK   11  A    between atoms: CA_16  and  CB_19 
REMARK       I    between atoms: C_17  and  N_24 
REMARK   12  A    between atoms: CB_19  and  CG_20 
REMARK   13  A    between atoms: CG_20  and  CD_21 
REMARK       I    between atoms: CD_21  and  NE2_23 
REMARK   14  A    between atoms: N_24  and  CA_25 
REMARK   15  A    between atoms: CA_25  and  C_26 
REMARK       I    between atoms: C_26  and  N_28 
REMARK   16  A    between atoms: CA_29  and  C_30 
REMARK       I    between atoms: C_30  and  N_35 
REMARK   17  A    between atoms: CA_36  and  C_37 
REMARK       I    between atoms: C_37  and  N_42 
REMARK   18  A    between atoms: N_42  and  CA_43 
REMARK   19  A    between atoms: CA_43  and  C_44 
REMARK   20  A    between atoms: CA_43  and  CB_46 
REMARK       I    between atoms: C_44  and  N_54 
REMARK   21  A    between atoms: CB_46  and  CG_47 
REMARK   22  A    between atoms: CZ_52  and  OH_53 
REMARK   23  A    between atoms: CA_55  and  C_56 
REMARK       I    between atoms: C_56  and  N_61 
REMARK   24  A    between atoms: N_61  and  CA_62 
REMARK   25  A    between atoms: CA_62  and  C_63 
REMARK   26  A    between atoms: CA_62  and  CB_65 
REMARK       I    between atoms: C_63  and  N_68 
REMARK   27  A    between atoms: CB_65  and  OG1_66 
REMARK   28  A    between atoms: CB_65  and  CG2_67 
REMARK   29  A    between atoms: N_68  and  CA_69 
REMARK   30  A    between atoms: CA_69  and  C_70 
REMARK   31  A    between atoms: CA_69  and  CB_72 
REMARK       I    between atoms: C_70  and  N_80 
REMARK   32  A    between atoms: CB_72  and  CG_73 
REMARK   33  A    between atoms: CZ_78  and  OH_79 
REMARK   34  A    between atoms: N_80  and  CA_81 
REMARK   35  A    between atoms: CA_81  and  C_82 
REMARK   36  A    between atoms: CA_81  and  CB_84 
REMARK       I    between atoms: C_82  and  N_88 
REMARK   37  A    between atoms: CB_84  and  CG1_85 
REMARK   38  A    between atoms: CB_84  and  CG2_86 
REMARK   39  A    between atoms: CG1_85  and  CD1_87 
REMARK   40  A    between atoms: CA_89  and  C_90 
REMARK       I    between atoms: C_90  and  N_95 
REMARK   41  A    between atoms: CA_96  and  C_97 
ROOT
ATOM      1  CA  TYR d   1     -55.761  72.108  72.226  0.00  0.00     0.093 C 
ATOM      2  H42 TYR d   1     -56.608  72.808  72.188  0.00  0.00     0.088 H 
ENDROOT
BRANCH   1   3
ATOM      3  N   TYR d   1     -55.855  71.192  71.091  0.00  0.00    -0.346 N 
ATOM      4  C   PRO d   1     -57.012  70.703  70.652  0.00  0.00     0.241 C 
ATOM      5  O   PRO d   1     -58.095  70.939  71.188  0.00  0.00    -0.271 OA
ATOM      6  H41 TYR d   1     -55.013  70.921  70.624  0.00  0.00     0.163 HD
BRANCH   4   7
ATOM      7  CA  PRO d   1     -56.947  69.803  69.417  0.00  0.00     0.091 C 
ATOM      8  N   PRO d   1     -55.938  70.268  68.460  0.00  0.00    -0.337 N 
ATOM      9  C   PRO d   1     -56.005  71.513  67.968  0.00  0.00     0.243 C 
ATOM     10  CD  PRO d   1     -55.012  69.192  68.065  0.00  0.00    -0.001 C 
ATOM     11  O   PRO d   1     -56.937  72.281  68.209  0.00  0.00    -0.271 OA
ATOM     12  CG  PRO d   1     -55.687  67.956  68.586  0.00  0.00    -0.048 C 
ATOM     13  H39 PRO d   1     -54.025  69.329  68.531  0.00  0.00     0.064 H 
ATOM     14  H40 PRO d   1     -54.899  69.149  66.972  0.00  0.00     0.064 H 
ATOM     15  CB  PRO d   1     -56.442  68.409  69.792  0.00  0.00    -0.036 C 
ATOM     16  H37 PRO d   1     -56.374  67.543  67.832  0.00  0.00     0.035 H 
ATOM     17  H38 PRO d   1     -54.942  67.194  68.859  0.00  0.00     0.035 H 
ATOM     18  H35 PRO d   1     -57.284  67.733  70.002  0.00  0.00     0.036 H 
ATOM     19  H36 PRO d   1     -55.782  68.457  70.671  0.00  0.00     0.036 H 
ATOM     20  H34 PRO d   1     -57.941  69.753  68.948  0.00  0.00     0.087 H 
BRANCH   9  21
ATOM     21  CA  PRO d   1     -54.876  71.974  67.055  0.00  0.00     0.092 C 
ATOM     22  N   PRO d   1     -55.271  73.197  66.351  0.00  0.00    -0.337 N 
ATOM     23  C   GLY d   1     -56.306  73.239  65.502  0.00  0.00     0.238 C 
ATOM     24  CD  PRO d   1     -54.375  74.322  66.658  0.00  0.00    -0.001 C 
ATOM     25  O   GLY d   1     -56.945  72.238  65.178  0.00  0.00    -0.272 OA
ATOM     26  CG  PRO d   1     -53.157  73.638  67.191  0.00  0.00    -0.048 C 
ATOM     27  H32 PRO d   1     -54.819  74.987  67.413  0.00  0.00     0.064 H 
ATOM     28  H33 PRO d   1     -54.140  74.900  65.752  0.00  0.00     0.064 H 
ATOM     29  CB  PRO d   1     -53.675  72.431  67.893  0.00  0.00    -0.036 C 
ATOM     30  H30 PRO d   1     -52.484  73.350  66.370  0.00  0.00     0.035 H 
ATOM     31  H31 PRO d   1     -52.620  74.294  67.892  0.00  0.00     0.035 H 
ATOM     32  H28 PRO d   1     -52.907  71.645  67.930  0.00  0.00     0.036 H 
ATOM     33  H29 PRO d   1     -53.990  72.684  68.916  0.00  0.00     0.036 H 
ATOM     34  H27 PRO d   1     -54.601  71.172  66.354  0.00  0.00     0.087 H 
BRANCH  23  35
ATOM     35  CA  GLY d   1     -56.671  74.596  64.936  0.00  0.00     0.069 C 
ATOM     36  H25 GLY d   1     -56.815  75.310  65.760  0.00  0.00     0.078 H 
ATOM     37  H26 GLY d   1     -55.861  74.950  64.282  0.00  0.00     0.078 H 
BRANCH  35  38
ATOM     38  N   GLY d   1     -57.896  74.489  64.171  0.00  0.00    -0.351 N 
ATOM     39  C   GLN d   1     -57.876  74.229  62.869  0.00  0.00     0.240 C 
ATOM     40  O   GLN d   1     -56.839  74.201  62.208  0.00  0.00    -0.271 OA
ATOM     41  H24 GLY d   1     -58.774  74.613  64.632  0.00  0.00     0.163 HD
BRANCH  39  42
ATOM     42  CA  GLN d   1     -59.226  73.970  62.217  0.00  0.00     0.090 C 
ATOM     43  H17 GLN d   1     -60.007  74.410  62.854  0.00  0.00     0.087 H 
BRANCH  42  44
ATOM     44  N   GLN d   1     -59.315  74.588  60.901  0.00  0.00    -0.346 N 
ATOM     45  C   ALA d   1     -60.280  75.453  60.614  0.00  0.00     0.240 C 
ATOM     46  O   ALA d   1     -61.126  75.805  61.436  0.00  0.00    -0.271 OA
ATOM     47  H16 GLN d   1     -58.638  74.357  60.202  0.00  0.00     0.163 HD
BRANCH  45  48
ATOM     48  CA  ALA d   1     -60.313  75.993  59.190  0.00  0.00     0.086 C 
ATOM     49  H12 ALA d   1     -59.789  75.293  58.523  0.00  0.00     0.086 H 
BRANCH  48  50
ATOM     50  N   ALA d   1     -61.706  76.096  58.784  0.00  0.00    -0.346 N 
ATOM     51  C   GLN d   1     -62.407  75.015  58.465  0.00  0.00     0.248 C 
ATOM     52  O   GLN d   1     -61.895  73.902  58.332  0.00  0.00    -0.271 OA
ATOM     53  H11 ALA d   1     -62.142  76.995  58.745  0.00  0.00     0.163 HD
BRANCH  51  54
ATOM     54  CA  GLN d   1     -63.905  75.218  58.254  0.00  0.00     0.176 C 
ATOM     55  H4  GLN d   1     -64.402  75.124  59.231  0.00  0.00     0.099 H 
BRANCH  54  56
ATOM     56  N   GLN d   1     -64.203  76.544  57.726  0.00  0.00    -0.066 N 
ATOM     57  H1  GLN d   1     -65.199  76.640  57.601  0.00  0.00     0.275 HD
ATOM     58  H2  GLN d   1     -63.739  76.665  56.839  0.00  0.00     0.275 HD
ATOM     59  H3  GLN d   1     -63.877  77.245  58.373  0.00  0.00     0.275 HD
ENDBRANCH  54  56
BRANCH  54  60
ATOM     60  CB  GLN d   1     -64.455  74.132  57.330  0.00  0.00    -0.022 C 
ATOM     61  H5  GLN d   1     -65.544  74.266  57.250  0.00  0.00     0.037 H 
ATOM     62  H6  GLN d   1     -64.238  73.153  57.782  0.00  0.00     0.037 H 
BRANCH  60  63
ATOM     63  CG  GLN d   1     -63.870  74.150  55.930  0.00  0.00     0.011 C 
ATOM     64  H7  GLN d   1     -62.799  74.393  55.996  0.00  0.00     0.047 H 
ATOM     65  H8  GLN d   1     -64.385  74.922  55.340  0.00  0.00     0.047 H 
BRANCH  63  66
ATOM     66  CD  GLN d   1     -64.025  72.818  55.230  0.00  0.00     0.215 C 
ATOM     67  OE1 GLN d   1     -64.779  71.954  55.680  0.00  0.00    -0.274 OA
ATOM     68  NE2 GLN d   1     -63.304  72.637  54.129  0.00  0.00    -0.370 N 
ATOM     69  H9  GLN d   1     -63.367  71.775  53.626  0.00  0.00     0.159 HD
ATOM     70  H10 GLN d   1     -62.698  73.363  53.803  0.00  0.00     0.159 HD
ENDBRANCH  63  66
ENDBRANCH  60  63
ENDBRANCH  54  60
ENDBRANCH  51  54
ENDBRANCH  48  50
BRANCH  48  71
ATOM     71  CB  ALA d   1     -59.630  77.347  59.111  0.00  0.00    -0.049 C 
ATOM     72  H13 ALA d   1     -58.580  77.246  59.422  0.00  0.00     0.030 H 
ATOM     73  H14 ALA d   1     -60.143  78.056  59.777  0.00  0.00     0.030 H 
ATOM     74  H15 ALA d   1     -59.672  77.719  58.077  0.00  0.00     0.030 H 
ENDBRANCH  48  71
ENDBRANCH  45  48
ENDBRANCH  42  44
BRANCH  42  75
ATOM     75  CB  GLN d   1     -59.471  72.462  62.122  0.00  0.00    -0.030 C 
ATOM     76  H18 GLN d   1     -59.437  72.044  63.139  0.00  0.00     0.037 H 
ATOM     77  H19 GLN d   1     -58.665  72.021  61.517  0.00  0.00     0.037 H 
BRANCH  75  78
ATOM     78  CG  GLN d   1     -60.801  72.074  61.495  0.00  0.00     0.011 C 
ATOM     79  H20 GLN d   1     -60.783  72.348  60.430  0.00  0.00     0.047 H 
ATOM     80  H21 GLN d   1     -61.605  72.627  62.002  0.00  0.00     0.047 H 
BRANCH  78  81
ATOM     81  CD  GLN d   1     -61.085  70.587  61.610  0.00  0.00     0.215 C 
ATOM     82  OE1 GLN d   1     -60.267  69.827  62.129  0.00  0.00    -0.274 OA
ATOM     83  NE2 GLN d   1     -62.250  70.167  61.130  0.00  0.00    -0.370 N 
ATOM     84  H22 GLN d   1     -62.491  69.198  61.179  0.00  0.00     0.159 HD
ATOM     85  H23 GLN d   1     -62.886  70.820  60.720  0.00  0.00     0.159 HD
ENDBRANCH  78  81
ENDBRANCH  75  78
ENDBRANCH  42  75
ENDBRANCH  39  42
ENDBRANCH  35  38
ENDBRANCH  23  35
ENDBRANCH   9  21
ENDBRANCH   4   7
ENDBRANCH   1   3
BRANCH   1  86
ATOM     86  C   TYR d   1     -54.459  72.907  72.118  0.00  0.00     0.243 C 
ATOM     87  O   TYR d   1     -53.528  72.471  71.444  0.00  0.00    -0.271 OA
ATOM     88  N   PRO d   1     -54.393  74.084  72.768  0.00  0.00    -0.337 N 
ATOM     89  CA  PRO d   1     -53.226  74.968  72.618  0.00  0.00     0.091 C 
ATOM     90  CD  PRO d   1     -55.433  74.704  73.607  0.00  0.00    -0.001 C 
ATOM     91  CB  PRO d   1     -53.544  76.142  73.560  0.00  0.00    -0.036 C 
ATOM     92  H50 PRO d   1     -53.173  75.321  71.577  0.00  0.00     0.087 H 
ATOM     93  CG  PRO d   1     -54.647  75.654  74.448  0.00  0.00    -0.048 C 
ATOM     94  H51 PRO d   1     -53.874  77.019  72.984  0.00  0.00     0.036 H 
ATOM     95  H52 PRO d   1     -52.659  76.407  74.157  0.00  0.00     0.036 H 
ATOM     96  H53 PRO d   1     -55.279  76.493  74.776  0.00  0.00     0.035 H 
ATOM     97  H54 PRO d   1     -54.235  75.140  75.329  0.00  0.00     0.035 H 
ATOM     98  H55 PRO d   1     -55.943  73.953  74.228  0.00  0.00     0.064 H 
ATOM     99  H56 PRO d   1     -56.174  75.237  72.993  0.00  0.00     0.064 H 
BRANCH  89 100
ATOM    100  C   PRO d   1     -51.867  74.345  72.969  0.00  0.00     0.241 C 
ATOM    101  O   PRO d   1     -50.873  74.708  72.341  0.00  0.00    -0.271 OA
ATOM    102  N   THR d   1     -51.815  73.440  73.943  0.00  0.00    -0.344 N 
ATOM    103  H57 THR d   1     -52.649  73.199  74.439  0.00  0.00     0.163 HD
BRANCH 102 104
ATOM    104  CA  THR d   1     -50.551  72.793  74.297  0.00  0.00     0.113 C 
ATOM    105  H58 THR d   1     -49.747  73.316  73.758  0.00  0.00     0.091 H 
BRANCH 104 106
ATOM    106  C   THR d   1     -50.538  71.331  73.872  0.00  0.00     0.243 C 
ATOM    107  O   THR d   1     -51.553  70.642  73.961  0.00  0.00    -0.271 OA
ATOM    108  N   TYR d   1     -49.384  70.858  73.415  0.00  0.00    -0.346 N 
ATOM    109  H64 TYR d   1     -48.579  71.451  73.393  0.00  0.00     0.163 HD
BRANCH 108 110
ATOM    110  CA  TYR d   1     -49.280  69.483  72.945  0.00  0.00     0.093 C 
ATOM    111  H65 TYR d   1     -50.132  69.299  72.274  0.00  0.00     0.088 H 
BRANCH 110 112
ATOM    112  C   TYR d   1     -49.361  68.478  74.086  0.00  0.00     0.241 C 
ATOM    113  O   TYR d   1     -48.704  68.631  75.115  0.00  0.00    -0.271 OA
ATOM    114  N   ILE d   1     -50.179  67.452  73.889  0.00  0.00    -0.346 N 
ATOM    115  H73 ILE d   1     -50.752  67.441  73.070  0.00  0.00     0.163 HD
BRANCH 114 116
ATOM    116  CA  ILE d   1     -50.269  66.343  74.825  0.00  0.00     0.092 C 
ATOM    117  H74 ILE d   1     -49.496  66.468  75.598  0.00  0.00     0.088 H 
BRANCH 116 118
ATOM    118  C   ILE d   1     -50.019  65.041  74.074  0.00  0.00     0.243 C 
ATOM    119  O   ILE d   1     -50.792  64.674  73.190  0.00  0.00    -0.271 OA
ATOM    120  N   PRO d   1     -48.925  64.346  74.419  0.00  0.00    -0.337 N 
ATOM    121  CA  PRO d   1     -48.521  63.104  73.749  0.00  0.00     0.092 C 
ATOM    122  CD  PRO d   1     -47.988  64.728  75.488  0.00  0.00    -0.001 C 
ATOM    123  CB  PRO d   1     -47.307  62.649  74.564  0.00  0.00    -0.036 C 
ATOM    124  H84 PRO d   1     -48.251  63.293  72.700  0.00  0.00     0.087 H 
ATOM    125  CG  PRO d   1     -46.785  63.889  75.196  0.00  0.00    -0.048 C 
ATOM    126  H85 PRO d   1     -46.547  62.199  73.908  0.00  0.00     0.036 H 
ATOM    127  H86 PRO d   1     -47.607  61.920  75.331  0.00  0.00     0.036 H 
ATOM    128  H87 PRO d   1     -46.108  64.415  74.507  0.00  0.00     0.035 H 
ATOM    129  H88 PRO d   1     -46.249  63.650  76.126  0.00  0.00     0.035 H 
ATOM    130  H89 PRO d   1     -48.402  64.493  76.480  0.00  0.00     0.064 H 
ATOM    131  H90 PRO d   1     -47.745  65.799  75.436  0.00  0.00     0.064 H 
BRANCH 121 132
ATOM    132  C   PRO d   1     -49.612  62.043  73.813  0.00  0.00     0.243 C 
ATOM    133  O   PRO d   1     -50.463  62.100  74.699  0.00  0.00    -0.271 OA
ATOM    134  N   PRO d   1     -49.600  61.090  72.869  0.00  0.00    -0.336 N 
ATOM    135  CA  PRO d   1     -50.561  59.985  72.903  0.00  0.00     0.098 C 
ATOM    136  CD  PRO d   1     -48.758  61.053  71.659  0.00  0.00    -0.001 C 
ATOM    137  CB  PRO d   1     -50.547  59.478  71.462  0.00  0.00    -0.035 C 
ATOM    138  H91 PRO d   1     -51.562  60.335  73.197  0.00  0.00     0.089 H 
ATOM    139  CG  PRO d   1     -49.165  59.763  70.994  0.00  0.00    -0.048 C 
ATOM    140  H92 PRO d   1     -51.286  60.017  70.851  0.00  0.00     0.036 H 
ATOM    141  H93 PRO d   1     -50.758  58.399  71.425  0.00  0.00     0.036 H 
ATOM    142  H94 PRO d   1     -49.148  59.875  69.900  0.00  0.00     0.035 H 
ATOM    143  H95 PRO d   1     -48.486  58.950  71.290  0.00  0.00     0.035 H 
ATOM    144  H96 PRO d   1     -47.690  61.041  71.922  0.00  0.00     0.064 H 
ATOM    145  H97 PRO d   1     -48.966  61.915  71.008  0.00  0.00     0.064 H 
BRANCH 135 146
ATOM    146  C   PRO d   1     -50.098  58.885  73.851  0.00  0.00     0.196 C 
ATOM    147  O   PRO d   1     -50.910  58.046  74.240  0.00  0.00    -0.646 OA
ATOM    148  OXT PRO d   1     -48.921  58.857  74.209  0.00  0.00    -0.646 OA
ENDBRANCH 135 146
ENDBRANCH 121 132
ENDBRANCH 116 118
BRANCH 116 149
ATOM    149  CB  ILE d   1     -51.646  66.292  75.511  0.00  0.00    -0.030 C 
ATOM    150  H75 ILE d   1     -52.422  66.255  74.732  0.00  0.00     0.043 H 
BRANCH 149 151
ATOM    151  CG1 ILE d   1     -51.866  67.554  76.352  0.00  0.00    -0.063 C 
ATOM    152  H76 ILE d   1     -51.618  68.430  75.734  0.00  0.00     0.033 H 
ATOM    153  H77 ILE d   1     -51.191  67.514  77.220  0.00  0.00     0.033 H 
BRANCH 151 154
ATOM    154  CD1 ILE d   1     -53.284  67.713  76.857  0.00  0.00    -0.076 C 
ATOM    155  H81 ILE d   1     -53.361  68.637  77.449  0.00  0.00     0.027 H 
ATOM    156  H82 ILE d   1     -53.548  66.851  77.487  0.00  0.00     0.027 H 
ATOM    157  H83 ILE d   1     -53.974  67.767  76.002  0.00  0.00     0.027 H 
ENDBRANCH 151 154
ENDBRANCH 149 151
BRANCH 149 158
ATOM    158  CG2 ILE d   1     -51.768  65.038  76.367  0.00  0.00    -0.071 C 
ATOM    159  H78 ILE d   1     -51.606  64.149  75.740  0.00  0.00     0.028 H 
ATOM    160  H79 ILE d   1     -52.773  64.994  76.812  0.00  0.00     0.028 H 
ATOM    161  H80 ILE d   1     -51.013  65.065  77.167  0.00  0.00     0.028 H 
ENDBRANCH 149 158
ENDBRANCH 116 149
ENDBRANCH 114 116
ENDBRANCH 110 112
BRANCH 110 162
ATOM    162  CB  TYR d   1     -47.995  69.257  72.146  0.00  0.00    -0.014 C 
ATOM    163  H66 TYR d   1     -47.133  69.463  72.798  0.00  0.00     0.043 H 
ATOM    164  H67 TYR d   1     -47.983  69.951  71.293  0.00  0.00     0.043 H 
BRANCH 162 165
ATOM    165  CG  TYR d   1     -47.880  67.845  71.623  0.00  0.00    -0.056 A 
ATOM    166  CD1 TYR d   1     -48.666  67.415  70.562  0.00  0.00    -0.074 A 
ATOM    167  CE1 TYR d   1     -48.575  66.125  70.081  0.00  0.00    -0.051 A 
ATOM    168  H68 TYR d   1     -49.364  68.106  70.103  0.00  0.00     0.084 H 
ATOM    169  CZ  TYR d   1     -47.689  65.241  70.662  0.00  0.00     0.065 A 
ATOM    170  H70 TYR d   1     -49.196  65.808  69.251  0.00  0.00     0.087 H 
ATOM    171  CE2 TYR d   1     -46.898  65.642  71.719  0.00  0.00    -0.051 A 
ATOM    172  CD2 TYR d   1     -46.999  66.937  72.196  0.00  0.00    -0.074 A 
ATOM    173  H71 TYR d   1     -46.201  64.947  72.173  0.00  0.00     0.087 H 
ATOM    174  H69 TYR d   1     -46.381  67.248  73.030  0.00  0.00     0.084 H 
BRANCH 169 175
ATOM    175  OH  TYR d   1     -47.594  63.953  70.182  0.00  0.00    -0.361 OA
ATOM    176  H72 TYR d   1     -48.201  63.840  69.460  0.00  0.00     0.217 HD
ENDBRANCH 169 175
ENDBRANCH 162 165
ENDBRANCH 110 162
ENDBRANCH 108 110
ENDBRANCH 104 106
BRANCH 104 177
ATOM    177  CB  THR d   1     -50.248  72.878  75.808  0.00  0.00     0.060 C 
ATOM    178  H59 THR d   1     -49.265  72.424  75.999  0.00  0.00     0.086 H 
BRANCH 177 179
ATOM    179  OG1 THR d   1     -51.246  72.161  76.545  0.00  0.00    -0.393 OA
ATOM    180  H60 THR d   1     -51.244  71.250  76.275  0.00  0.00     0.210 HD
ENDBRANCH 177 179
BRANCH 177 181
ATOM    181  CG2 THR d   1     -50.219  74.326  76.267  0.00  0.00    -0.050 C 
ATOM    182  H61 THR d   1     -50.002  74.365  77.345  0.00  0.00     0.031 H 
ATOM    183  H62 THR d   1     -51.196  74.792  76.073  0.00  0.00     0.031 H 
ATOM    184  H63 THR d   1     -49.438  74.870  75.716  0.00  0.00     0.031 H 
ENDBRANCH 177 181
ENDBRANCH 104 177
ENDBRANCH 102 104
ENDBRANCH  89 100
ENDBRANCH   1  86
BRANCH   1 185
ATOM    185  CB  TYR d   1     -55.830  71.338  73.550  0.00  0.00    -0.014 C 
ATOM    186  H43 TYR d   1     -56.822  71.505  73.995  0.00  0.00     0.043 H 
ATOM    187  H44 TYR d   1     -55.055  71.736  74.222  0.00  0.00     0.043 H 
BRANCH 185 188
ATOM    188  CG  TYR d   1     -55.618  69.851  73.411  0.00  0.00    -0.056 A 
ATOM    189  CD1 TYR d   1     -54.340  69.315  73.357  0.00  0.00    -0.074 A 
ATOM    190  CE1 TYR d   1     -54.143  67.956  73.228  0.00  0.00    -0.051 A 
ATOM    191  H45 TYR d   1     -53.482  69.975  73.417  0.00  0.00     0.084 H 
ATOM    192  CZ  TYR d   1     -55.231  67.112  73.151  0.00  0.00     0.065 A 
ATOM    193  H47 TYR d   1     -53.138  67.553  73.187  0.00  0.00     0.087 H 
ATOM    194  CE2 TYR d   1     -56.511  67.619  73.205  0.00  0.00    -0.051 A 
ATOM    195  CD2 TYR d   1     -56.698  68.980  73.335  0.00  0.00    -0.074 A 
ATOM    196  H48 TYR d   1     -57.365  66.954  73.146  0.00  0.00     0.087 H 
ATOM    197  H46 TYR d   1     -57.706  69.377  73.379  0.00  0.00     0.084 H 
BRANCH 192 198
ATOM    198  OH  TYR d   1     -55.037  65.756  73.023  0.00  0.00    -0.361 OA
ATOM    199  H49 TYR d   1     -54.105  65.571  73.001  0.00  0.00     0.217 HD
ENDBRANCH 192 198
ENDBRANCH 185 188
ENDBRANCH   1 185
TORSDOF 41
