REMARK  10 active torsions:
REMARK  status: ('A' for Active; 'I' for Inactive)
REMARK    1  A    between atoms: C13_12  and  C16_21 
REMARK    2  A    between atoms: C9_24  and  C10_13 
REMARK    3  A    between atoms: C27_25  and  C28_14 
REMARK    4  A    between atoms: C30_16  and  O34_34 
REMARK    5  A    between atoms: O7_35  and  C6_17 
REMARK    6  A    between atoms: C22_20  and  C24_22 
REMARK       I    between atoms: C24_22  and  N26_29 
REMARK    7  A    between atoms: O34_34  and  C35_23 
REMARK    8  A    between atoms: C8_26  and  C9_24 
REMARK    9  A    between atoms: N26_29  and  C27_25 
REMARK   10  A    between atoms: C8_26  and  O7_35 
ROOT
ATOM      1  C3  WHH d   1      45.630  -5.551  -7.257  0.00  0.00    -0.051 A 
ATOM      2  C2  WHH d   1      46.437  -6.066  -6.262  0.00  0.00    -0.041 A 
ATOM      3  C5  WHH d   1      47.522  -4.592  -8.352  0.00  0.00     0.097 A 
ATOM      4  C4  WHH d   1      46.154  -4.805  -8.299  0.00  0.00     0.078 A 
ATOM      5  C6  WHH d   1      48.339  -5.112  -7.355  0.00  0.00     0.125 A 
ATOM      6  C1  WHH d   1      47.796  -5.843  -6.318  0.00  0.00     0.150 A 
ATOM      7  C19 WHH d   1      48.085  -3.793  -9.466  0.00  0.00     0.262 A 
ATOM      8  C22 WHH d   1      45.828  -3.632 -10.225  0.00  0.00     0.200 A 
ATOM      9  N23 WHH d   1      45.279  -4.317  -9.272  0.00  0.00    -0.225 NA
ATOM     10  N21 WHH d   1      47.161  -3.336 -10.360  0.00  0.00    -0.303 N 
ATOM     11  O20 WHH d   1      49.282  -3.575  -9.563  0.00  0.00    -0.267 OA
ATOM     12  F36 WHH d   1      48.612  -6.335  -5.366  0.00  0.00    -0.203 F 
ATOM     13  H7  WHH d   1      44.562  -5.735  -7.221  0.00  0.00     0.087 H 
ATOM     14  H9  WHH d   1      46.007  -6.638  -5.448  0.00  0.00     0.088 H 
ATOM     15  H20 WHH d   1      47.462  -2.773 -11.130  0.00  0.00     0.171 HD
ENDROOT
BRANCH   8  16
ATOM     16  C24 WHH d   1      45.017  -3.090 -11.344  0.00  0.00     0.287 C 
ATOM     17  N26 WHH d   1      43.751  -3.585 -11.429  0.00  0.00    -0.350 N 
ATOM     18  H21 WHH d   1      43.347  -4.109 -10.679  0.00  0.00     0.163 HD
ATOM     19  O25 WHH d   1      45.572  -2.386 -12.160  0.00  0.00    -0.264 OA
BRANCH  17  20
ATOM     20  C27 WHH d   1      43.021  -3.327 -12.633  0.00  0.00     0.019 C 
ATOM     21  H16 WHH d   1      41.950  -3.425 -12.403  0.00  0.00     0.071 H 
ATOM     22  H17 WHH d   1      43.237  -2.293 -12.941  0.00  0.00     0.071 H 
BRANCH  20  23
ATOM     23  C28 WHH d   1      43.322  -4.223 -13.798  0.00  0.00    -0.038 A 
ATOM     24  C33 WHH d   1      44.245  -5.241 -13.752  0.00  0.00    -0.075 A 
ATOM     25  C32 WHH d   1      44.484  -6.026 -14.861  0.00  0.00    -0.080 A 
ATOM     26  H4  WHH d   1      44.791  -5.429 -12.835  0.00  0.00     0.084 H 
ATOM     27  C31 WHH d   1      43.792  -5.801 -16.032  0.00  0.00    -0.051 A 
ATOM     28  H1  WHH d   1      45.218  -6.822 -14.812  0.00  0.00     0.083 H 
ATOM     29  C30 WHH d   1      42.862  -4.783 -16.083  0.00  0.00     0.068 A 
ATOM     30  H8  WHH d   1      43.977  -6.418 -16.904  0.00  0.00     0.087 H 
ATOM     31  C29 WHH d   1      42.642  -4.003 -14.978  0.00  0.00    -0.043 A 
ATOM     32  H10 WHH d   1      41.919  -3.197 -15.032  0.00  0.00     0.088 H 
BRANCH  29  33
ATOM     33  O34 WHH d   1      42.100  -4.477 -17.206  0.00  0.00    -0.356 OA
BRANCH  33  34
ATOM     34  C35 WHH d   1      42.464  -5.264 -18.333  0.00  0.00     0.010 C 
ATOM     35  H11 WHH d   1      41.836  -4.986 -19.192  0.00  0.00     0.066 H 
ATOM     36  H12 WHH d   1      42.316  -6.329 -18.100  0.00  0.00     0.066 H 
ATOM     37  H13 WHH d   1      43.521  -5.086 -18.579  0.00  0.00     0.066 H 
ENDBRANCH  33  34
ENDBRANCH  29  33
ENDBRANCH  20  23
ENDBRANCH  17  20
ENDBRANCH   8  16
BRANCH   5  38
ATOM     38  O7  WHH d   1      49.711  -4.934  -7.352  0.00  0.00    -0.347 OA
BRANCH  38  39
ATOM     39  C8  WHH d   1      50.193  -6.213  -7.782  0.00  0.00     0.030 C 
ATOM     40  H18 WHH d   1      50.370  -6.856  -6.907  0.00  0.00     0.075 H 
ATOM     41  H19 WHH d   1      49.450  -6.687  -8.440  0.00  0.00     0.075 H 
BRANCH  39  42
ATOM     42  C9  WHH d   1      51.478  -6.014  -8.531  0.00  0.00    -0.021 C 
ATOM     43  H14 WHH d   1      51.270  -5.376  -9.403  0.00  0.00     0.043 H 
ATOM     44  H15 WHH d   1      52.187  -5.503  -7.863  0.00  0.00     0.043 H 
BRANCH  42  45
ATOM     45  C10 WHH d   1      52.122  -7.271  -9.018  0.00  0.00    -0.056 A 
ATOM     46  C11 WHH d   1      52.107  -7.523 -10.375  0.00  0.00    -0.076 A 
ATOM     47  C12 WHH d   1      52.708  -8.655 -10.880  0.00  0.00    -0.066 A 
ATOM     48  H5  WHH d   1      51.620  -6.826 -11.047  0.00  0.00     0.084 H 
ATOM     49  C13 WHH d   1      53.322  -9.532 -10.012  0.00  0.00     0.040 A 
ATOM     50  H2  WHH d   1      52.698  -8.853 -11.946  0.00  0.00     0.085 H 
ATOM     51  C14 WHH d   1      53.343  -9.301  -8.649  0.00  0.00    -0.066 A 
ATOM     52  C15 WHH d   1      52.742  -8.159  -8.156  0.00  0.00    -0.076 A 
ATOM     53  H3  WHH d   1      53.823 -10.004  -7.978  0.00  0.00     0.085 H 
ATOM     54  H6  WHH d   1      52.756  -7.958  -7.091  0.00  0.00     0.084 H 
BRANCH  49  55
ATOM     55  C16 WHH d   1      53.961 -10.723 -10.582  0.00  0.00     0.209 C 
ATOM     56  O17 WHH d   1      54.388 -10.785 -11.723  0.00  0.00    -0.644 OA
ATOM     57  O18 WHH d   1      54.020 -11.684  -9.640  0.00  0.00    -0.644 OA
ENDBRANCH  49  55
ENDBRANCH  42  45
ENDBRANCH  39  42
ENDBRANCH  38  39
ENDBRANCH   5  38
TORSDOF 10
