REMARK  5 active torsions:
REMARK  status: ('A' for Active; 'I' for Inactive)
REMARK    1  A    between atoms: C2_17  and  C3_10 
REMARK    2  A    between atoms: C5_12  and  O9_23 
REMARK    3  A    between atoms: C11_15  and  C13_14 
REMARK       I    between atoms: N1_20  and  C11_15 
REMARK    4  A    between atoms: O9_23  and  C10_16 
REMARK    5  A    between atoms: C2_17  and  N1_20 
ROOT
ATOM      1  C11 WGG d   1      -8.554 -32.823  45.253  0.00  0.00     0.287 C 
ATOM      2  N1  WGG d   1      -8.649 -32.378  43.966  0.00  0.00    -0.350 N 
ATOM      3  O12 WGG d   1      -9.378 -33.524  45.806  0.00  0.00    -0.264 OA
ATOM      4  H   WGG d   1      -7.904 -31.881  43.520  0.00  0.00     0.163 HD
ENDROOT
BRANCH   2   5
ATOM      5  C2  WGG d   1      -9.880 -32.666  43.294  0.00  0.00     0.019 C 
ATOM      6  H   WGG d   1      -9.712 -32.546  42.214  0.00  0.00     0.071 H 
ATOM      7  H   WGG d   1     -10.147 -33.711  43.510  0.00  0.00     0.071 H 
BRANCH   5   8
ATOM      8  C3  WGG d   1     -11.047 -31.801  43.680  0.00  0.00    -0.038 A 
ATOM      9  C8  WGG d   1     -10.971 -30.788  44.610  0.00  0.00    -0.075 A 
ATOM     10  C7  WGG d   1     -12.083 -30.037  44.914  0.00  0.00    -0.080 A 
ATOM     11  H   WGG d   1     -10.029 -30.581  45.105  0.00  0.00     0.084 H 
ATOM     12  C6  WGG d   1     -13.280 -30.290  44.279  0.00  0.00    -0.051 A 
ATOM     13  H   WGG d   1     -12.018 -29.246  45.653  0.00  0.00     0.083 H 
ATOM     14  C5  WGG d   1     -13.363 -31.301  43.345  0.00  0.00     0.068 A 
ATOM     15  H   WGG d   1     -14.155 -29.695  44.514  0.00  0.00     0.087 H 
ATOM     16  C4  WGG d   1     -12.245 -32.046  43.059  0.00  0.00    -0.043 A 
ATOM     17  H   WGG d   1     -12.311 -32.844  42.328  0.00  0.00     0.088 H 
BRANCH  14  18
ATOM     18  O9  WGG d   1     -14.538 -31.632  42.663  0.00  0.00    -0.356 OA
BRANCH  18  19
ATOM     19  C10 WGG d   1     -15.515 -30.616  42.923  0.00  0.00     0.010 C 
ATOM     20  H   WGG d   1     -16.448 -30.860  42.394  0.00  0.00     0.066 H 
ATOM     21  H   WGG d   1     -15.137 -29.645  42.571  0.00  0.00     0.066 H 
ATOM     22  H   WGG d   1     -15.710 -30.563  44.004  0.00  0.00     0.066 H 
ENDBRANCH  18  19
ENDBRANCH  14  18
ENDBRANCH   5   8
ENDBRANCH   2   5
BRANCH   1  23
ATOM     23  C13 WGG d   1      -7.345 -32.373  46.032  0.00  0.00     0.200 A 
ATOM     24  N14 WGG d   1      -6.401 -31.704  45.456  0.00  0.00    -0.225 NA
ATOM     25  C15 WGG d   1      -5.319 -31.327  46.253  0.00  0.00     0.075 A 
ATOM     26  C16 WGG d   1      -4.282 -30.610  45.692  0.00  0.00    -0.054 A 
ATOM     27  C20 WGG d   1      -5.249 -31.639  47.595  0.00  0.00     0.061 A 
ATOM     28  C17 WGG d   1      -3.201 -30.221  46.458  0.00  0.00    -0.081 A 
ATOM     29  H   WGG d   1      -4.316 -30.350  44.640  0.00  0.00     0.087 H 
ATOM     30  C18 WGG d   1      -3.143 -30.537  47.801  0.00  0.00    -0.082 A 
ATOM     31  H   WGG d   1      -2.391 -29.663  46.002  0.00  0.00     0.083 H 
ATOM     32  C19 WGG d   1      -4.176 -31.250  48.373  0.00  0.00    -0.065 A 
ATOM     33  H   WGG d   1      -2.294 -30.228  48.400  0.00  0.00     0.083 H 
ATOM     34  H   WGG d   1      -4.146 -31.503  49.426  0.00  0.00     0.085 H 
ATOM     35  C21 WGG d   1      -6.344 -32.398  48.214  0.00  0.00     0.259 A 
ATOM     36  N23 WGG d   1      -7.361 -32.733  47.353  0.00  0.00    -0.303 N 
ATOM     37  O22 WGG d   1      -6.294 -32.681  49.402  0.00  0.00    -0.267 OA
ATOM     38  H   WGG d   1      -8.138 -33.257  47.702  0.00  0.00     0.171 HD
ENDBRANCH   1  23
TORSDOF 5
