REMARK  18 active torsions:
REMARK  status: ('A' for Active; 'I' for Inactive)
REMARK    1  A    between atoms: PCC_2  and  CCA_5 
REMARK    2  A    between atoms: CCA_5  and  PCD_6 
REMARK    3  A    between atoms: CCA_5  and  OAA_10 
REMARK    4  A    between atoms: CCA_5  and  CBM_11 
REMARK    5  A    between atoms: CBM_11  and  CBQ_12 
REMARK    6  A    between atoms: CBU_17  and  CBW_18 
REMARK    7  A    between atoms: CBS_23  and  NBO_24 
REMARK    8  A    between atoms: NBO_24  and  SCG_25 
REMARK    9  A    between atoms: SCG_25  and  CBY_28 
REMARK   10  A    between atoms: CBZ_33  and  SCH_34 
REMARK   11  A    between atoms: SCH_34  and  NBP_37 
REMARK   12  A    between atoms: NBP_37  and  CBT_38 
REMARK   13  A    between atoms: CBX_43  and  CBV_44 
REMARK   14  A    between atoms: CBR_49  and  CBN_50 
REMARK   15  A    between atoms: CBN_50  and  CCB_51 
REMARK   16  A    between atoms: CCB_51  and  PCE_52 
REMARK   17  A    between atoms: CCB_51  and  PCF_56 
REMARK   18  A    between atoms: CCB_51  and  OAB_60 
ROOT
ATOM      1  CBY H78 d   1      44.683  36.036  54.264  0.00  0.00     0.081 A 
ATOM      2  CBL H78 d   1      44.298  37.071  53.328  0.00  0.00    -0.038 A 
ATOM      3  CBF H78 d   1      45.912  36.143  54.991  0.00  0.00    -0.060 A 
ATOM      4  CAW H78 d   1      46.779  37.256  54.815  0.00  0.00    -0.080 A 
ATOM      5  CBG H78 d   1      46.399  38.283  53.885  0.00  0.00    -0.060 A 
ATOM      6  CBZ H78 d   1      45.174  38.206  53.141  0.00  0.00     0.081 A 
ATOM      7  H13 H78 d   1      43.368  36.996  52.776  0.00  0.00     0.088 H 
ATOM      8  H14 H78 d   1      46.187  35.360  55.689  0.00  0.00     0.085 H 
ATOM      9  H15 H78 d   1      47.707  37.328  55.371  0.00  0.00     0.083 H 
ATOM     10  H16 H78 d   1      47.053  39.136  53.742  0.00  0.00     0.085 H 
ENDROOT
BRANCH   1  11
ATOM     11  SCG H78 d   1      43.696  34.598  54.579  0.00  0.00     0.263 S 
ATOM     12  OAO H78 d   1      42.538  34.678  53.797  0.00  0.00    -0.200 OA
ATOM     13  OAP H78 d   1      44.322  33.338  54.240  0.00  0.00    -0.200 OA
BRANCH  11  14
ATOM     14  NBO H78 d   1      43.053  34.480  56.248  0.00  0.00    -0.281 N 
ATOM     15  H12 H78 d   1      42.998  33.604  56.727  0.00  0.00     0.179 HD
BRANCH  14  16
ATOM     16  CBS H78 d   1      42.641  35.645  56.835  0.00  0.00     0.043 A 
ATOM     17  CBJ H78 d   1      41.603  36.370  56.154  0.00  0.00    -0.046 A 
ATOM     18  CBW H78 d   1      41.092  37.603  56.686  0.00  0.00    -0.024 A 
ATOM     19  H8  H78 d   1      41.200  35.981  55.226  0.00  0.00     0.088 H 
ATOM     20  CBD H78 d   1      41.626  38.121  57.934  0.00  0.00    -0.072 A 
ATOM     21  CAU H78 d   1      42.663  37.409  58.625  0.00  0.00    -0.080 A 
ATOM     22  H9  H78 d   1      41.240  39.047  58.344  0.00  0.00     0.084 H 
ATOM     23  CAZ H78 d   1      43.160  36.178  58.069  0.00  0.00    -0.057 A 
ATOM     24  H10 H78 d   1      43.067  37.794  59.554  0.00  0.00     0.083 H 
ATOM     25  H11 H78 d   1      43.943  35.639  58.591  0.00  0.00     0.086 H 
BRANCH  18  26
ATOM     26  CBU H78 d   1      40.132  38.461  56.201  0.00  0.00    -0.025 A 
ATOM     27  CBH H78 d   1      40.292  39.910  56.157  0.00  0.00    -0.066 A 
ATOM     28  CBQ H78 d   1      39.288  40.728  55.540  0.00  0.00    -0.053 A 
ATOM     29  H4  H78 d   1      41.172  40.370  56.592  0.00  0.00     0.085 H 
ATOM     30  CAX H78 d   1      38.121  40.101  54.961  0.00  0.00    -0.077 A 
ATOM     31  CAS H78 d   1      37.942  38.677  54.999  0.00  0.00    -0.082 A 
ATOM     32  H5  H78 d   1      37.366  40.719  54.489  0.00  0.00     0.084 H 
ATOM     33  CBB H78 d   1      38.947  37.876  55.620  0.00  0.00    -0.072 A 
ATOM     34  H6  H78 d   1      37.061  38.219  54.565  0.00  0.00     0.083 H 
ATOM     35  H7  H78 d   1      38.817  36.800  55.656  0.00  0.00     0.084 H 
BRANCH  28  36
ATOM     36  CBM H78 d   1      39.423  42.135  55.494  0.00  0.00     0.014 C 
ATOM     37  H2  H78 d   1      40.487  42.370  55.647  0.00  0.00     0.046 H 
ATOM     38  H3  H78 d   1      39.115  42.463  54.490  0.00  0.00     0.046 H 
BRANCH  36  39
ATOM     39  CCA H78 d   1      38.665  42.909  56.456  0.00  0.00     0.289 C 
BRANCH  39  40
ATOM     40  PCC H78 d   1      39.036  44.698  56.344  0.00  0.00     0.310 P 
ATOM     41  OAC H78 d   1      38.831  45.182  54.819  0.00  0.00    -0.637 OA
ATOM     42  OAD H78 d   1      38.595  45.846  57.387  0.00  0.00    -0.637 OA
ATOM     43  OAE H78 d   1      40.615  44.521  56.497  0.00  0.00    -0.637 OA
ENDBRANCH  39  40
BRANCH  39  44
ATOM     44  PCD H78 d   1      36.894  43.192  56.327  0.00  0.00     0.310 P 
ATOM     45  OAG H78 d   1      36.468  44.226  57.456  0.00  0.00    -0.637 OA
ATOM     46  OAH H78 d   1      36.447  43.682  54.863  0.00  0.00    -0.637 OA
ATOM     47  OAF H78 d   1      36.176  41.802  56.662  0.00  0.00    -0.637 OA
ENDBRANCH  39  44
BRANCH  39  48
ATOM     48  OAA H78 d   1      39.008  42.403  57.776  0.00  0.00    -0.365 OA
ATOM     49  H1  H78 d   1      39.935  42.538  57.935  0.00  0.00     0.212 HD
ENDBRANCH  39  48
ENDBRANCH  36  39
ENDBRANCH  28  36
ENDBRANCH  18  26
ENDBRANCH  14  16
ENDBRANCH  11  14
ENDBRANCH   1  11
BRANCH   6  50
ATOM     50  SCH H78 d   1      44.725  39.376  52.072  0.00  0.00     0.263 S 
ATOM     51  OAQ H78 d   1      45.943  40.228  51.660  0.00  0.00    -0.200 OA
ATOM     52  OAR H78 d   1      44.157  38.639  50.859  0.00  0.00    -0.200 OA
BRANCH  50  53
ATOM     53  NBP H78 d   1      43.552  40.292  52.776  0.00  0.00    -0.281 N 
ATOM     54  H17 H78 d   1      42.630  40.042  52.480  0.00  0.00     0.179 HD
BRANCH  53  55
ATOM     55  CBT H78 d   1      43.564  41.296  53.656  0.00  0.00     0.043 A 
ATOM     56  CBK H78 d   1      44.256  41.199  54.899  0.00  0.00    -0.046 A 
ATOM     57  CBX H78 d   1      44.250  42.293  55.820  0.00  0.00    -0.024 A 
ATOM     58  H18 H78 d   1      44.791  40.289  55.148  0.00  0.00     0.088 H 
ATOM     59  CBE H78 d   1      43.541  43.510  55.491  0.00  0.00    -0.072 A 
ATOM     60  CAV H78 d   1      42.845  43.628  54.251  0.00  0.00    -0.080 A 
ATOM     61  H21 H78 d   1      43.538  44.338  56.191  0.00  0.00     0.084 H 
ATOM     62  CBA H78 d   1      42.862  42.511  53.338  0.00  0.00    -0.057 A 
ATOM     63  H20 H78 d   1      42.314  44.539  54.000  0.00  0.00     0.083 H 
ATOM     64  H19 H78 d   1      42.335  42.589  52.394  0.00  0.00     0.086 H 
BRANCH  57  65
ATOM     65  CBV H78 d   1      44.949  42.046  56.956  0.00  0.00    -0.025 A 
ATOM     66  CBI H78 d   1      45.708  43.092  57.585  0.00  0.00    -0.066 A 
ATOM     67  CBR H78 d   1      46.393  42.832  58.824  0.00  0.00    -0.053 A 
ATOM     68  H22 H78 d   1      45.764  44.073  57.128  0.00  0.00     0.085 H 
ATOM     69  CAY H78 d   1      46.323  41.528  59.427  0.00  0.00    -0.077 A 
ATOM     70  CAT H78 d   1      45.573  40.471  58.808  0.00  0.00    -0.082 A 
ATOM     71  H25 H78 d   1      46.843  41.341  60.360  0.00  0.00     0.084 H 
ATOM     72  CBC H78 d   1      44.883  40.730  57.573  0.00  0.00    -0.072 A 
ATOM     73  H24 H78 d   1      45.528  39.490  59.266  0.00  0.00     0.083 H 
ATOM     74  H23 H78 d   1      44.311  39.941  57.099  0.00  0.00     0.084 H 
BRANCH  67  75
ATOM     75  CBN H78 d   1      47.117  43.892  59.426  0.00  0.00     0.014 C 
ATOM     76  H26 H78 d   1      47.495  44.417  58.537  0.00  0.00     0.046 H 
ATOM     77  H27 H78 d   1      47.940  43.338  59.903  0.00  0.00     0.046 H 
BRANCH  75  78
ATOM     78  CCB H78 d   1      46.996  44.732  60.129  0.00  0.00     0.289 C 
BRANCH  78  79
ATOM     79  PCE H78 d   1      46.909  44.373  61.873  0.00  0.00     0.310 P 
ATOM     80  OAJ H78 d   1      48.253  43.988  62.653  0.00  0.00    -0.637 OA
ATOM     81  OAK H78 d   1      46.142  45.564  62.597  0.00  0.00    -0.637 OA
ATOM     82  OAI H78 d   1      45.921  43.132  62.013  0.00  0.00    -0.637 OA
ENDBRANCH  78  79
BRANCH  78  83
ATOM     83  PCF H78 d   1      48.294  45.866  60.602  0.00  0.00     0.310 P 
ATOM     84  OAM H78 d   1      48.361  46.910  59.408  0.00  0.00    -0.637 OA
ATOM     85  OAN H78 d   1      48.399  46.822  61.888  0.00  0.00    -0.637 OA
ATOM     86  OAL H78 d   1      49.684  45.064  60.491  0.00  0.00    -0.637 OA
ENDBRANCH  78  83
BRANCH  78  87
ATOM     87  OAB H78 d   1      45.796  45.436  59.698  0.00  0.00    -0.365 OA
ATOM     88  H28 H78 d   1      45.034  44.894  59.866  0.00  0.00     0.212 HD
ENDBRANCH  78  87
ENDBRANCH  75  78
ENDBRANCH  67  75
ENDBRANCH  57  65
ENDBRANCH  53  55
ENDBRANCH  50  53
ENDBRANCH   6  50
TORSDOF 18
