REMARK  4 active torsions:
REMARK  status: ('A' for Active; 'I' for Inactive)
REMARK    1  A    between atoms: C21_12  and  C22_20 
REMARK    2  A    between atoms: N8_23  and  C9_13 
REMARK    3  A    between atoms: N16_24  and  C17_14 
REMARK    4  A    between atoms: C3_18  and  C4_15 
ROOT
ATOM      1  C28 3KG d   1       5.289  -3.953 -20.115  0.00  0.00    -0.015 A 
ATOM      2  C27 3KG d   1       6.022  -3.651 -21.186  0.00  0.00     0.008 A 
ATOM      3  C3  3KG d   1       7.297  -2.944 -18.912  0.00  0.00     0.156 A 
ATOM      4  C2  3KG d   1       5.939  -3.588 -18.844  0.00  0.00     0.205 A 
ATOM      5  N15 3KG d   1       7.906  -2.721 -20.030  0.00  0.00    -0.162 NA
ATOM      6  N16 3KG d   1       7.263  -3.070 -21.172  0.00  0.00    -0.244 N 
ATOM      7  O1  3KG d   1       5.413  -3.790 -17.761  0.00  0.00    -0.286 OA
ATOM      8  H   3KG d   1       4.308  -4.422 -20.173  0.00  0.00     0.091 H 
ATOM      9  H   3KG d   1       5.596  -3.887 -22.160  0.00  0.00     0.115 H 
ENDROOT
BRANCH   3  10
ATOM     10  C4  3KG d   1       7.974  -2.616 -17.697  0.00  0.00     0.095 A 
ATOM     11  C5  3KG d   1       7.954  -3.272 -16.485  0.00  0.00    -0.034 A 
ATOM     12  C6  3KG d   1       8.842  -2.550 -15.655  0.00  0.00     0.024 A 
ATOM     13  H   3KG d   1       7.377  -4.158 -16.223  0.00  0.00     0.089 H 
ATOM     14  N7  3KG d   1       9.394  -1.521 -16.305  0.00  0.00    -0.179 NA
ATOM     15  H   3KG d   1       9.050  -2.801 -14.616  0.00  0.00     0.117 H 
ATOM     16  N8  3KG d   1       8.856  -1.576 -17.536  0.00  0.00    -0.232 N 
BRANCH  16  17
ATOM     17  C9  3KG d   1       9.205  -0.618 -18.489  0.00  0.00     0.059 A 
ATOM     18  C10 3KG d   1       8.381   0.475 -18.682  0.00  0.00    -0.055 A 
ATOM     19  C11 3KG d   1       8.723   1.431 -19.617  0.00  0.00    -0.081 A 
ATOM     20  H   3KG d   1       7.471   0.581 -18.102  0.00  0.00     0.087 H 
ATOM     21  C12 3KG d   1       9.885   1.282 -20.345  0.00  0.00    -0.083 A 
ATOM     22  H   3KG d   1       8.084   2.292 -19.778  0.00  0.00     0.083 H 
ATOM     23  C13 3KG d   1      10.700   0.183 -20.145  0.00  0.00    -0.081 A 
ATOM     24  H   3KG d   1      10.161   2.031 -21.078  0.00  0.00     0.083 H 
ATOM     25  C14 3KG d   1      10.367  -0.779 -19.213  0.00  0.00    -0.055 A 
ATOM     26  H   3KG d   1      11.609   0.076 -20.726  0.00  0.00     0.083 H 
ATOM     27  H   3KG d   1      11.005  -1.641 -19.054  0.00  0.00     0.087 H 
ENDBRANCH  16  17
ENDBRANCH   3  10
BRANCH   6  28
ATOM     28  C17 3KG d   1       7.999  -2.840 -22.349  0.00  0.00     0.058 A 
ATOM     29  C18 3KG d   1       8.797  -1.726 -22.494  0.00  0.00    -0.055 A 
ATOM     30  C19 3KG d   1       9.530  -1.520 -23.642  0.00  0.00    -0.080 A 
ATOM     31  H   3KG d   1       8.849  -1.000 -21.691  0.00  0.00     0.087 H 
ATOM     32  C20 3KG d   1       9.479  -2.442 -24.663  0.00  0.00    -0.068 A 
ATOM     33  H   3KG d   1      10.146  -0.633 -23.741  0.00  0.00     0.083 H 
ATOM     34  C21 3KG d   1       8.687  -3.562 -24.531  0.00  0.00     0.050 A 
ATOM     35  H   3KG d   1      10.059  -2.288 -25.566  0.00  0.00     0.084 H 
ATOM     36  C26 3KG d   1       7.955  -3.751 -23.378  0.00  0.00    -0.041 A 
ATOM     37  H   3KG d   1       7.333  -4.634 -23.281  0.00  0.00     0.088 H 
BRANCH  34  38
ATOM     38  C22 3KG d   1       8.617  -4.567 -25.633  0.00  0.00     0.417 C 
ATOM     39  F23 3KG d   1       9.829  -5.132 -25.912  0.00  0.00    -0.166 F 
ATOM     40  F24 3KG d   1       7.772  -5.608 -25.374  0.00  0.00    -0.166 F 
ATOM     41  F25 3KG d   1       8.143  -4.008 -26.783  0.00  0.00    -0.166 F 
ENDBRANCH  34  38
ENDBRANCH   6  28
TORSDOF 4
