REMARK  6 active torsions:
REMARK  status: ('A' for Active; 'I' for Inactive)
REMARK    1  A    between atoms: C8_12  and  C9_21 
REMARK    2  A    between atoms: N22_24  and  C23_13 
REMARK    3  A    between atoms: N5_25  and  C6_14 
REMARK    4  A    between atoms: C17_17  and  C18_15 
REMARK    5  A    between atoms: C3_18  and  O2_27 
REMARK    6  A    between atoms: O2_27  and  C1_20 
ROOT
ATOM      1  C4  3KB d   1       6.325  -3.322 -21.459  0.00  0.00     0.040 A 
ATOM      2  C17 3KB d   1       7.552  -2.633 -19.140  0.00  0.00     0.159 A 
ATOM      3  C3  3KB d   1       5.599  -3.662 -20.391  0.00  0.00     0.138 A 
ATOM      4  C29 3KB d   1       6.216  -3.314 -19.117  0.00  0.00     0.239 A 
ATOM      5  N16 3KB d   1       8.171  -2.356 -20.240  0.00  0.00    -0.161 NA
ATOM      6  N5  3KB d   1       7.551  -2.705 -21.408  0.00  0.00    -0.242 N 
ATOM      7  O30 3KB d   1       5.662  -3.568 -18.064  0.00  0.00    -0.283 OA
ATOM      8  H   3KB d   1       5.915  -3.550 -22.442  0.00  0.00     0.119 H 
ENDROOT
BRANCH   2   9
ATOM      9  C18 3KB d   1       8.154  -2.277 -17.901  0.00  0.00     0.095 A 
ATOM     10  C19 3KB d   1       8.073  -2.873 -16.662  0.00  0.00    -0.034 A 
ATOM     11  C20 3KB d   1       8.906  -2.095 -15.826  0.00  0.00     0.024 A 
ATOM     12  H   3KB d   1       7.493  -3.753 -16.386  0.00  0.00     0.089 H 
ATOM     13  N21 3KB d   1       9.480  -1.078 -16.476  0.00  0.00    -0.179 NA
ATOM     14  H   3KB d   1       9.063  -2.302 -14.768  0.00  0.00     0.117 H 
ATOM     15  N22 3KB d   1       9.004  -1.212 -17.731  0.00  0.00    -0.232 N 
BRANCH  15  16
ATOM     16  C23 3KB d   1       9.315  -0.229 -18.666  0.00  0.00     0.059 A 
ATOM     17  C24 3KB d   1       8.370   0.715 -18.990  0.00  0.00    -0.055 A 
ATOM     18  C25 3KB d   1       8.689   1.700 -19.899  0.00  0.00    -0.081 A 
ATOM     19  H   3KB d   1       7.386   0.685 -18.536  0.00  0.00     0.087 H 
ATOM     20  C26 3KB d   1       9.947   1.729 -20.458  0.00  0.00    -0.083 A 
ATOM     21  H   3KB d   1       7.954   2.448 -20.173  0.00  0.00     0.083 H 
ATOM     22  C27 3KB d   1      10.886   0.773 -20.122  0.00  0.00    -0.081 A 
ATOM     23  H   3KB d   1      10.203   2.508 -21.167  0.00  0.00     0.083 H 
ATOM     24  C28 3KB d   1      10.573  -0.219 -19.220  0.00  0.00    -0.055 A 
ATOM     25  H   3KB d   1      11.873   0.804 -20.570  0.00  0.00     0.083 H 
ATOM     26  H   3KB d   1      11.302  -0.975 -18.953  0.00  0.00     0.087 H 
ENDBRANCH  15  16
ENDBRANCH   2   9
BRANCH   3  27
ATOM     27  O2  3KB d   1       4.368  -4.277 -20.304  0.00  0.00    -0.351 OA
BRANCH  27  28
ATOM     28  C1  3KB d   1       3.980  -4.836 -21.560  0.00  0.00     0.011 C 
ATOM     29  H   3KB d   1       2.997  -5.318 -21.459  0.00  0.00     0.067 H 
ATOM     30  H   3KB d   1       4.724  -5.583 -21.875  0.00  0.00     0.067 H 
ATOM     31  H   3KB d   1       3.921  -4.037 -22.314  0.00  0.00     0.067 H 
ENDBRANCH  27  28
ENDBRANCH   3  27
BRANCH   6  32
ATOM     32  C6  3KB d   1       8.274  -2.355 -22.557  0.00  0.00     0.059 A 
ATOM     33  C15 3KB d   1       8.924  -1.140 -22.622  0.00  0.00    -0.055 A 
ATOM     34  C14 3KB d   1       9.640  -0.777 -23.736  0.00  0.00    -0.080 A 
ATOM     35  H   3KB d   1       8.869  -0.460 -21.779  0.00  0.00     0.087 H 
ATOM     36  C13 3KB d   1       9.703  -1.640 -24.804  0.00  0.00    -0.068 A 
ATOM     37  H   3KB d   1      10.150   0.179 -23.773  0.00  0.00     0.083 H 
ATOM     38  C8  3KB d   1       9.057  -2.857 -24.742  0.00  0.00     0.050 A 
ATOM     39  H   3KB d   1      10.259  -1.365 -25.693  0.00  0.00     0.084 H 
ATOM     40  C7  3KB d   1       8.349  -3.210 -23.622  0.00  0.00    -0.041 A 
ATOM     41  H   3KB d   1       7.847  -4.170 -23.581  0.00  0.00     0.088 H 
BRANCH  38  42
ATOM     42  C9  3KB d   1       9.093  -3.832 -25.871  0.00  0.00     0.417 C 
ATOM     43  F10 3KB d   1       9.872  -3.433 -26.927  0.00  0.00    -0.166 F 
ATOM     44  F11 3KB d   1       9.559  -5.061 -25.472  0.00  0.00    -0.166 F 
ATOM     45  F12 3KB d   1       7.832  -4.029 -26.368  0.00  0.00    -0.166 F 
ENDBRANCH  38  42
ENDBRANCH   6  32
TORSDOF 6
