REMARK  6 active torsions:
REMARK  status: ('A' for Active; 'I' for Inactive)
REMARK    1  A    between atoms: N8_28  and  C9_14 
REMARK    2  A    between atoms: C20_15  and  N21_27 
REMARK    3  A    between atoms: N16_29  and  C17_16 
REMARK    4  A    between atoms: C3_20  and  C4_18 
REMARK    5  A    between atoms: C30_21  and  O31_31 
REMARK    6  A    between atoms: O31_31  and  C32_23 
ROOT
ATOM      1  C29 3K9 d   1       6.824  -3.356 -21.501  0.00  0.00     0.041 A 
ATOM      2  C3  3K9 d   1       7.862  -2.652 -19.085  0.00  0.00     0.159 A 
ATOM      3  C30 3K9 d   1       6.046  -3.742 -20.480  0.00  0.00     0.138 A 
ATOM      4  C2  3K9 d   1       6.546  -3.375 -19.150  0.00  0.00     0.239 A 
ATOM      5  N15 3K9 d   1       8.528  -2.343 -20.145  0.00  0.00    -0.161 NA
ATOM      6  N16 3K9 d   1       8.011  -2.676 -21.354  0.00  0.00    -0.239 N 
ATOM      7  O1  3K9 d   1       5.940  -3.641 -18.120  0.00  0.00    -0.283 OA
ATOM      8  H   3K9 d   1       6.496  -3.596 -22.511  0.00  0.00     0.119 H 
ENDROOT
BRANCH   2   9
ATOM      9  C4  3K9 d   1       8.424  -2.346 -17.795  0.00  0.00     0.095 A 
ATOM     10  C5  3K9 d   1       8.286  -3.027 -16.605  0.00  0.00    -0.034 A 
ATOM     11  C6  3K9 d   1       9.084  -2.321 -15.675  0.00  0.00     0.024 A 
ATOM     12  H   3K9 d   1       7.689  -3.919 -16.420  0.00  0.00     0.089 H 
ATOM     13  N7  3K9 d   1       9.698  -1.281 -16.252  0.00  0.00    -0.179 NA
ATOM     14  H   3K9 d   1       9.186  -2.589 -14.624  0.00  0.00     0.117 H 
ATOM     15  N8  3K9 d   1       9.284  -1.307 -17.532  0.00  0.00    -0.232 N 
BRANCH  15  16
ATOM     16  C9  3K9 d   1       9.602  -0.240 -18.392  0.00  0.00     0.059 A 
ATOM     17  C10 3K9 d   1       8.624   0.661 -18.760  0.00  0.00    -0.055 A 
ATOM     18  C11 3K9 d   1       8.937   1.714 -19.602  0.00  0.00    -0.081 A 
ATOM     19  H   3K9 d   1       7.612   0.544 -18.390  0.00  0.00     0.087 H 
ATOM     20  C12 3K9 d   1      10.233   1.858 -20.055  0.00  0.00    -0.083 A 
ATOM     21  H   3K9 d   1       8.171   2.420 -19.903  0.00  0.00     0.083 H 
ATOM     22  C13 3K9 d   1      11.211   0.959 -19.680  0.00  0.00    -0.081 A 
ATOM     23  H   3K9 d   1      10.485   2.684 -20.711  0.00  0.00     0.083 H 
ATOM     24  C14 3K9 d   1      10.894  -0.097 -18.847  0.00  0.00    -0.055 A 
ATOM     25  H   3K9 d   1      12.227   1.081 -20.039  0.00  0.00     0.083 H 
ATOM     26  H   3K9 d   1      11.658  -0.808 -18.553  0.00  0.00     0.087 H 
ENDBRANCH  15  16
ENDBRANCH   2   9
BRANCH   3  27
ATOM     27  O31 3K9 d   1       4.846  -4.428 -20.517  0.00  0.00    -0.351 OA
BRANCH  27  28
ATOM     28  C32 3K9 d   1       4.492  -4.727 -21.871  0.00  0.00     0.011 C 
ATOM     29  H   3K9 d   1       3.537  -5.272 -21.888  0.00  0.00     0.067 H 
ATOM     30  H   3K9 d   1       5.277  -5.348 -22.327  0.00  0.00     0.067 H 
ATOM     31  H   3K9 d   1       4.390  -3.790 -22.439  0.00  0.00     0.067 H 
ENDBRANCH  27  28
ENDBRANCH   3  27
BRANCH   6  32
ATOM     32  C17 3K9 d   1       8.873  -2.254 -22.390  0.00  0.00     0.096 A 
ATOM     33  C27 3K9 d   1       9.553  -1.061 -22.231  0.00  0.00    -0.050 A 
ATOM     34  C26 3K9 d   1      10.452  -0.622 -23.176  0.00  0.00    -0.053 A 
ATOM     35  H   3K9 d   1       9.375  -0.461 -21.346  0.00  0.00     0.087 H 
ATOM     36  C20 3K9 d   1      10.682  -1.392 -24.296  0.00  0.00     0.061 A 
ATOM     37  H   3K9 d   1      10.973   0.319 -23.041  0.00  0.00     0.087 H 
ATOM     38  C19 3K9 d   1      10.003  -2.578 -24.490  0.00  0.00    -0.016 A 
ATOM     39  C18 3K9 d   1       9.110  -2.992 -23.527  0.00  0.00     0.147 A 
ATOM     40  H   3K9 d   1      10.169  -3.171 -25.382  0.00  0.00     0.091 H 
ATOM     41  F28 3K9 d   1       8.471  -4.150 -23.698  0.00  0.00    -0.204 F 
BRANCH  36  42
ATOM     42  N21 3K9 d   1      11.629  -0.969 -25.238  0.00  0.00    -0.245 N 
ATOM     43  C22 3K9 d   1      12.199   0.272 -25.300  0.00  0.00     0.006 A 
ATOM     44  C23 3K9 d   1      13.111   0.221 -26.329  0.00  0.00    -0.048 A 
ATOM     45  H   3K9 d   1      11.976   1.127 -24.664  0.00  0.00     0.114 H 
ATOM     46  C24 3K9 d   1      13.031  -1.102 -26.833  0.00  0.00     0.023 A 
ATOM     47  H   3K9 d   1      13.756   1.025 -26.681  0.00  0.00     0.087 H 
ATOM     48  N25 3K9 d   1      12.128  -1.823 -26.158  0.00  0.00    -0.180 NA
ATOM     49  H   3K9 d   1      13.627  -1.482 -27.662  0.00  0.00     0.117 H 
ENDBRANCH  36  42
ENDBRANCH   6  32
TORSDOF 6
