REMARK  8 active torsions:
REMARK  status: ('A' for Active; 'I' for Inactive)
REMARK    1  A    between atoms: C22_3  and  O_4 
REMARK    2  A    between atoms: O_4  and  C21_5 
REMARK    3  A    between atoms: C4_6  and  C2_7 
REMARK    4  A    between atoms: N_11  and  C_12 
REMARK    5  A    between atoms: C7_14  and  N2_17 
REMARK    6  A    between atoms: N2_17  and  C8_18 
REMARK    7  A    between atoms: C13_20  and  N4_26 
REMARK    8  A    between atoms: N4_26  and  C14_27 
ROOT
ATOM      1  N6  O38 d   1     -33.200 -20.984  -4.682  0.00  0.00    -0.195 NA
ATOM      2  C23 O38 d   1     -33.409 -19.848  -4.809  0.00  0.00     0.085 C 
ATOM      3  C22 O38 d   1     -33.655 -18.404  -4.959  0.00  0.00     0.104 C 
ATOM      4  H1  O38 d   1     -33.513 -17.906  -3.989  0.00  0.00     0.097 H 
ATOM      5  H2  O38 d   1     -34.686 -18.242  -5.307  0.00  0.00     0.097 H 
ENDROOT
BRANCH   3   6
ATOM      6  O   O38 d   1     -32.739 -17.858  -5.914  0.00  0.00    -0.337 OA
BRANCH   6   7
ATOM      7  C21 O38 d   1     -33.211 -17.604  -7.177  0.00  0.00     0.083 A 
ATOM      8  C4  O38 d   1     -33.257 -16.325  -7.715  0.00  0.00     0.011 A 
ATOM      9  C5  O38 d   1     -33.774 -16.187  -9.009  0.00  0.00    -0.067 A 
ATOM     10  C6  O38 d   1     -34.241 -17.285  -9.723  0.00  0.00    -0.056 A 
ATOM     11  H10 O38 d   1     -33.811 -15.204  -9.464  0.00  0.00     0.085 H 
ATOM     12  C7  O38 d   1     -34.195 -18.562  -9.173  0.00  0.00     0.036 A 
ATOM     13  H9  O38 d   1     -34.645 -17.144 -10.719  0.00  0.00     0.086 H 
ATOM     14  C20 O38 d   1     -33.678 -18.693  -7.907  0.00  0.00    -0.024 A 
ATOM     15  H8  O38 d   1     -33.632 -19.680  -7.461  0.00  0.00     0.091 H 
BRANCH   8  16
ATOM     16  C2  O38 d   1     -32.792 -15.217  -6.993  0.00  0.00     0.013 A 
ATOM     17  C1  O38 d   1     -32.779 -13.897  -7.440  0.00  0.00     0.010 A 
ATOM     18  N   O38 d   1     -32.251 -13.157  -6.458  0.00  0.00    -0.285 N 
ATOM     19  H3  O38 d   1     -33.132 -13.536  -8.405  0.00  0.00     0.115 H 
ATOM     20  N1  O38 d   1     -31.904 -13.957  -5.361  0.00  0.00    -0.185 NA
ATOM     21  C3  O38 d   1     -32.242 -15.220  -5.704  0.00  0.00     0.034 A 
ATOM     22  H4  O38 d   1     -32.108 -16.101  -5.078  0.00  0.00     0.118 H 
BRANCH  18  23
ATOM     23  C   O38 d   1     -31.984 -11.699  -6.313  0.00  0.00     0.002 C 
ATOM     24  H5  O38 d   1     -31.532 -11.505  -5.329  0.00  0.00     0.059 H 
ATOM     25  H6  O38 d   1     -32.929 -11.143  -6.398  0.00  0.00     0.059 H 
ATOM     26  H7  O38 d   1     -31.294 -11.372  -7.105  0.00  0.00     0.059 H 
ENDBRANCH  18  23
ENDBRANCH   8  16
BRANCH  12  27
ATOM     27  N2  O38 d   1     -34.668 -19.700  -9.753  0.00  0.00    -0.341 N 
ATOM     28  H11 O38 d   1     -34.368 -20.596  -9.342  0.00  0.00     0.167 HD
BRANCH  27  29
ATOM     29  C8  O38 d   1     -35.506 -19.759 -10.833  0.00  0.00     0.130 A 
ATOM     30  N5  O38 d   1     -35.896 -18.650 -11.499  0.00  0.00    -0.212 NA
ATOM     31  C13 O38 d   1     -36.710 -18.714 -12.560  0.00  0.00     0.147 A 
ATOM     32  C11 O38 d   1     -37.194 -19.953 -13.014  0.00  0.00     0.090 A 
ATOM     33  C12 O38 d   1     -37.992 -20.035 -14.022  0.00  0.00     0.103 C 
ATOM     34  C10 O38 d   1     -36.815 -21.114 -12.359  0.00  0.00    -0.056 A 
ATOM     35  N3  O38 d   1     -38.778 -20.072 -14.881  0.00  0.00    -0.191 NA
ATOM     36  C9  O38 d   1     -35.972 -21.011 -11.257  0.00  0.00    -0.037 A 
ATOM     37  H12 O38 d   1     -37.168 -22.081 -12.698  0.00  0.00     0.086 H 
ATOM     38  H13 O38 d   1     -35.673 -21.905 -10.722  0.00  0.00     0.089 H 
BRANCH  31  39
ATOM     39  N4  O38 d   1     -37.066 -17.557 -13.166  0.00  0.00    -0.369 N 
ATOM     40  H14 O38 d   1     -37.623 -17.620 -14.030  0.00  0.00     0.161 HD
BRANCH  39  41
ATOM     41  C14 O38 d   1     -36.716 -16.228 -12.680  0.00  0.00     0.011 C 
ATOM     42  C19 O38 d   1     -37.995 -15.391 -12.585  0.00  0.00    -0.046 C 
ATOM     43  C18 O38 d   1     -37.746 -13.892 -12.455  0.00  0.00    -0.063 C 
ATOM     44  H16 O38 d   1     -38.563 -15.725 -11.704  0.00  0.00     0.035 H 
ATOM     45  H17 O38 d   1     -38.591 -15.565 -13.493  0.00  0.00     0.035 H 
ATOM     46  C17 O38 d   1     -36.737 -13.379 -13.474  0.00  0.00    -0.065 C 
ATOM     47  H18 O38 d   1     -37.364 -13.684 -11.445  0.00  0.00     0.033 H 
ATOM     48  H19 O38 d   1     -38.698 -13.362 -12.604  0.00  0.00     0.033 H 
ATOM     49  C16 O38 d   1     -35.422 -14.135 -13.364  0.00  0.00    -0.063 C 
ATOM     50  H20 O38 d   1     -36.554 -12.310 -13.293  0.00  0.00     0.033 H 
ATOM     51  H21 O38 d   1     -37.147 -13.514 -14.486  0.00  0.00     0.033 H 
ATOM     52  C15 O38 d   1     -35.673 -15.614 -13.618  0.00  0.00    -0.046 C 
ATOM     53  H22 O38 d   1     -35.004 -14.001 -12.356  0.00  0.00     0.033 H 
ATOM     54  H23 O38 d   1     -34.712 -13.749 -14.110  0.00  0.00     0.033 H 
ATOM     55  H24 O38 d   1     -36.023 -15.735 -14.654  0.00  0.00     0.035 H 
ATOM     56  H25 O38 d   1     -34.725 -16.155 -13.486  0.00  0.00     0.035 H 
ATOM     57  H15 O38 d   1     -36.276 -16.311 -11.675  0.00  0.00     0.072 H 
ENDBRANCH  39  41
ENDBRANCH  31  39
ENDBRANCH  27  29
ENDBRANCH  12  27
ENDBRANCH   6   7
ENDBRANCH   3   6
TORSDOF 8
