REMARK  12 active torsions:
REMARK  status: ('A' for Active; 'I' for Inactive)
REMARK    1  A    between atoms: C28_3  and  O2_4 
REMARK    2  A    between atoms: O2_4  and  C27_5 
REMARK    3  A    between atoms: C6_6  and  C5_7 
REMARK    4  A    between atoms: C4_8  and  C3_9 
REMARK       I    between atoms: C3_9  and  N_11 
REMARK    5  A    between atoms: N_11  and  C2_12 
REMARK    6  A    between atoms: C2_12  and  C1_13 
REMARK    7  A    between atoms: C1_13  and  O_14 
REMARK    8  A    between atoms: O_14  and  C_15 
REMARK    9  A    between atoms: C9_17  and  N1_20 
REMARK   10  A    between atoms: N1_20  and  C10_21 
REMARK   11  A    between atoms: C12_27  and  N2_28 
REMARK   12  A    between atoms: N4_30  and  C16_31 
ROOT
ATOM      1  N6  O17 d   1     -32.962 -17.413  -2.269  0.00  0.00    -0.195 NA
ATOM      2  C29 O17 d   1     -33.447 -17.664  -3.299  0.00  0.00     0.085 C 
ATOM      3  C28 O17 d   1     -34.067 -17.982  -4.601  0.00  0.00     0.104 C 
ATOM      4  H1  O17 d   1     -34.895 -17.281  -4.783  0.00  0.00     0.097 H 
ATOM      5  H2  O17 d   1     -34.457 -19.010  -4.569  0.00  0.00     0.097 H 
ENDROOT
BRANCH   3   6
ATOM      6  O2  O17 d   1     -33.120 -17.875  -5.678  0.00  0.00    -0.337 OA
BRANCH   6   7
ATOM      7  C27 O17 d   1     -33.525 -17.662  -6.984  0.00  0.00     0.082 A 
ATOM      8  C6  O17 d   1     -33.590 -16.277  -7.534  0.00  0.00    -0.003 A 
ATOM      9  C7  O17 d   1     -34.016 -16.081  -8.852  0.00  0.00    -0.068 A 
ATOM     10  C8  O17 d   1     -34.338 -17.189  -9.643  0.00  0.00    -0.056 A 
ATOM     11  H15 O17 d   1     -34.096 -15.079  -9.257  0.00  0.00     0.085 H 
ATOM     12  C9  O17 d   1     -34.271 -18.498  -9.139  0.00  0.00     0.036 A 
ATOM     13  H14 O17 d   1     -34.647 -17.033 -10.670  0.00  0.00     0.086 H 
ATOM     14  C26 O17 d   1     -33.856 -18.727  -7.823  0.00  0.00    -0.024 A 
ATOM     15  H13 O17 d   1     -33.791 -19.743  -7.451  0.00  0.00     0.091 H 
BRANCH   8  16
ATOM     16  C5  O17 d   1     -33.297 -15.149  -6.623  0.00  0.00    -0.065 C 
ATOM     17  C4  O17 d   1     -34.370 -15.051  -5.828  0.00  0.00    -0.017 C 
ATOM     18  H4  O17 d   1     -35.157 -15.774  -6.037  0.00  0.00     0.092 H 
ATOM     19  H3  O17 d   1     -32.401 -14.531  -6.603  0.00  0.00     0.085 H 
BRANCH  17  20
ATOM     20  C3  O17 d   1     -34.664 -14.129  -4.718  0.00  0.00     0.241 C 
ATOM     21  O1  O17 d   1     -33.950 -14.155  -3.727  0.00  0.00    -0.269 OA
ATOM     22  N   O17 d   1     -35.738 -13.337  -4.818  0.00  0.00    -0.356 N 
ATOM     23  H5  O17 d   1     -36.558 -13.573  -4.296  0.00  0.00     0.162 HD
BRANCH  22  24
ATOM     24  C2  O17 d   1     -35.762 -12.146  -5.656  0.00  0.00     0.015 C 
ATOM     25  H6  O17 d   1     -35.789 -12.455  -6.711  0.00  0.00     0.067 H 
ATOM     26  H7  O17 d   1     -34.849 -11.562  -5.468  0.00  0.00     0.067 H 
BRANCH  24  27
ATOM     27  C1  O17 d   1     -36.979 -11.266  -5.368  0.00  0.00     0.034 C 
ATOM     28  H8  O17 d   1     -37.714 -11.839  -4.784  0.00  0.00     0.076 H 
ATOM     29  H9  O17 d   1     -37.433 -10.948  -6.318  0.00  0.00     0.076 H 
BRANCH  27  30
ATOM     30  O   O17 d   1     -36.576 -10.110  -4.622  0.00  0.00    -0.394 OA
BRANCH  30  31
ATOM     31  C   O17 d   1     -37.357  -8.947  -4.928  0.00  0.00     0.004 C 
ATOM     32  H10 O17 d   1     -37.001  -8.098  -4.327  0.00  0.00     0.066 H 
ATOM     33  H11 O17 d   1     -38.414  -9.143  -4.695  0.00  0.00     0.066 H 
ATOM     34  H12 O17 d   1     -37.255  -8.708  -5.997  0.00  0.00     0.066 H 
ENDBRANCH  30  31
ENDBRANCH  27  30
ENDBRANCH  24  27
ENDBRANCH  22  24
ENDBRANCH  17  20
ENDBRANCH   8  16
BRANCH  12  35
ATOM     35  N1  O17 d   1     -34.564 -19.594  -9.892  0.00  0.00    -0.341 N 
ATOM     36  H16 O17 d   1     -34.056 -20.453  -9.636  0.00  0.00     0.167 HD
BRANCH  35  37
ATOM     37  C10 O17 d   1     -35.437 -19.720 -10.941  0.00  0.00     0.132 A 
ATOM     38  N5  O17 d   1     -35.904 -18.652 -11.654  0.00  0.00    -0.212 NA
ATOM     39  C15 O17 d   1     -36.757 -18.779 -12.706  0.00  0.00     0.149 A 
ATOM     40  C13 O17 d   1     -37.206 -20.137 -13.103  0.00  0.00     0.116 A 
ATOM     41  N4  O17 d   1     -37.218 -17.718 -13.422  0.00  0.00    -0.364 N 
ATOM     42  C14 O17 d   1     -38.016 -20.312 -14.089  0.00  0.00     0.105 C 
ATOM     43  C12 O17 d   1     -36.690 -21.281 -12.329  0.00  0.00     0.054 A 
ATOM     44  N3  O17 d   1     -38.757 -20.486 -14.964  0.00  0.00    -0.191 NA
ATOM     45  C11 O17 d   1     -35.822 -21.023 -11.277  0.00  0.00    -0.012 A 
ATOM     46  H19 O17 d   1     -35.432 -21.853 -10.700  0.00  0.00     0.092 H 
ATOM     47  H20 O17 d   1     -37.828 -17.921 -14.227  0.00  0.00     0.162 HD
BRANCH  43  48
ATOM     48  N2  O17 d   1     -37.060 -22.545 -12.642  0.00  0.00    -0.398 N 
ATOM     49  H17 O17 d   1     -36.695 -23.339 -12.096  0.00  0.00     0.156 HD
ATOM     50  H18 O17 d   1     -37.707 -22.713 -13.426  0.00  0.00     0.156 HD
ENDBRANCH  43  48
BRANCH  41  51
ATOM     51  C16 O17 d   1     -36.923 -16.323 -13.147  0.00  0.00     0.033 C 
ATOM     52  C25 O17 d   1     -37.317 -15.501 -14.387  0.00  0.00    -0.038 C 
ATOM     53  C20 O17 d   1     -37.074 -13.999 -14.148  0.00  0.00    -0.051 C 
ATOM     54  H21 O17 d   1     -38.383 -15.664 -14.604  0.00  0.00     0.037 H 
ATOM     55  H22 O17 d   1     -36.714 -15.832 -15.245  0.00  0.00     0.037 H 
ATOM     56  C19 O17 d   1     -35.593 -13.750 -13.840  0.00  0.00    -0.058 C 
ATOM     57  C21 O17 d   1     -37.917 -13.573 -12.939  0.00  0.00    -0.058 C 
ATOM     58  H23 O17 d   1     -37.370 -13.424 -15.038  0.00  0.00     0.040 H 
ATOM     59  C18 O17 d   1     -35.187 -14.574 -12.612  0.00  0.00    -0.051 C 
ATOM     60  H24 O17 d   1     -35.435 -12.681 -13.634  0.00  0.00     0.034 H 
ATOM     61  H25 O17 d   1     -34.982 -14.052 -14.704  0.00  0.00     0.034 H 
ATOM     62  C23 O17 d   1     -36.038 -14.149 -11.402  0.00  0.00    -0.058 C 
ATOM     63  C17 O17 d   1     -35.427 -16.068 -12.893  0.00  0.00    -0.038 C 
ATOM     64  H33 O17 d   1     -34.122 -14.406 -12.392  0.00  0.00     0.040 H 
ATOM     65  C22 O17 d   1     -37.528 -14.373 -11.686  0.00  0.00    -0.051 C 
ATOM     66  H31 O17 d   1     -35.743 -14.745 -10.525  0.00  0.00     0.034 H 
ATOM     67  H32 O17 d   1     -35.865 -13.082 -11.195  0.00  0.00     0.034 H 
ATOM     68  C24 O17 d   1     -37.745 -15.869 -11.931  0.00  0.00    -0.038 C 
ATOM     69  H28 O17 d   1     -38.132 -14.041 -10.829  0.00  0.00     0.040 H 
ATOM     70  H29 O17 d   1     -37.426 -16.434 -11.043  0.00  0.00     0.037 H 
ATOM     71  H30 O17 d   1     -38.812 -16.057 -12.121  0.00  0.00     0.037 H 
ATOM     72  H34 O17 d   1     -34.851 -16.369 -13.780  0.00  0.00     0.037 H 
ATOM     73  H35 O17 d   1     -35.099 -16.659 -12.025  0.00  0.00     0.037 H 
ATOM     74  H26 O17 d   1     -38.980 -13.748 -13.162  0.00  0.00     0.034 H 
ATOM     75  H27 O17 d   1     -37.755 -12.502 -12.747  0.00  0.00     0.034 H 
ENDBRANCH  41  51
ENDBRANCH  35  37
ENDBRANCH  12  35
ENDBRANCH   6   7
ENDBRANCH   3   6
TORSDOF 12
