REMARK  8 active torsions:
REMARK  status: ('A' for Active; 'I' for Inactive)
REMARK       I    between atoms: C02_2  and  N03_3 
REMARK    1  A    between atoms: C02_2  and  C07_7 
REMARK    2  A    between atoms: N03_3  and  C04_4 
REMARK    3  A    between atoms: C10_10  and  C13_13 
REMARK    4  A    between atoms: C19_19  and  N20_20 
REMARK    5  A    between atoms: N20_20  and  C21_21 
REMARK    6  A    between atoms: C28_28  and  N29_29 
REMARK    7  A    between atoms: N29_29  and  C30_30 
REMARK    8  A    between atoms: C30_30  and  C31_31 
ROOT
ATOM      1  C13 O43 d   1     -36.458 -21.731 -11.513  0.00  0.00     0.088 A 
ATOM      2  C14 O43 d   1     -36.127 -22.822 -10.759  0.00  0.00     0.033 A 
ATOM      3  N15 O43 d   1     -35.422 -22.370  -9.698  0.00  0.00    -0.237 NA
ATOM      4  C16 O43 d   1     -35.322 -20.988  -9.819  0.00  0.00     0.177 A 
ATOM      5  N17 O43 d   1     -35.957 -20.604 -10.936  0.00  0.00    -0.209 N 
ATOM      6  N18 O43 d   1     -36.039 -19.269 -11.374  0.00  0.00    -0.147 NA
ATOM      7  C19 O43 d   1     -35.449 -18.295 -10.601  0.00  0.00     0.146 A 
ATOM      8  C27 O43 d   1     -34.762 -18.665  -9.392  0.00  0.00    -0.008 A 
ATOM      9  C28 O43 d   1     -34.696 -19.998  -9.004  0.00  0.00     0.080 A 
ATOM     10  H11 O43 d   1     -36.383 -23.859 -10.973  0.00  0.00     0.118 H 
ATOM     11  H24 O43 d   1     -34.292 -17.898  -8.779  0.00  0.00     0.093 H 
ENDROOT
BRANCH   1  12
ATOM     12  C10 O43 d   1     -37.255 -21.719 -12.822  0.00  0.00    -0.006 A 
ATOM     13  C09 O43 d   1     -37.241 -22.846 -13.652  0.00  0.00    -0.070 A 
ATOM     14  C08 O43 d   1     -37.985 -22.793 -14.845  0.00  0.00    -0.067 A 
ATOM     15  H8  O43 d   1     -36.675 -23.731 -13.384  0.00  0.00     0.084 H 
ATOM     16  C07 O43 d   1     -38.709 -21.644 -15.162  0.00  0.00     0.032 A 
ATOM     17  H7  O43 d   1     -37.995 -23.644 -15.517  0.00  0.00     0.085 H 
ATOM     18  C12 O43 d   1     -38.711 -20.533 -14.328  0.00  0.00    -0.067 A 
ATOM     19  C11 O43 d   1     -37.980 -20.567 -13.134  0.00  0.00    -0.070 A 
ATOM     20  H10 O43 d   1     -39.274 -19.647 -14.599  0.00  0.00     0.085 H 
ATOM     21  H9  O43 d   1     -37.977 -19.715 -12.464  0.00  0.00     0.084 H 
BRANCH  16  22
ATOM     22  C02 O43 d   1     -39.507 -21.605 -16.479  0.00  0.00     0.252 C 
ATOM     23  O01 O43 d   1     -40.555 -21.002 -16.560  0.00  0.00    -0.268 OA
ATOM     24  N03 O43 d   1     -38.986 -22.297 -17.652  0.00  0.00    -0.352 N 
ATOM     25  H1  O43 d   1     -38.121 -22.798 -17.631  0.00  0.00     0.163 HD
BRANCH  24  26
ATOM     26  C04 O43 d   1     -39.801 -22.215 -18.858  0.00  0.00     0.012 A 
ATOM     27  C05 O43 d   1     -40.814 -23.329 -18.946  0.00  0.00    -0.044 A 
ATOM     28  C06 O43 d   1     -39.600 -23.336 -19.857  0.00  0.00    -0.044 A 
ATOM     29  H3  O43 d   1     -41.813 -23.132 -19.363  0.00  0.00     0.036 H 
ATOM     30  H4  O43 d   1     -40.895 -24.064 -18.132  0.00  0.00     0.036 H 
ATOM     31  H5  O43 d   1     -38.800 -24.075 -19.703  0.00  0.00     0.036 H 
ATOM     32  H6  O43 d   1     -39.718 -23.142 -20.933  0.00  0.00     0.036 H 
ATOM     33  H2  O43 d   1     -40.011 -21.180 -19.167  0.00  0.00     0.072 H 
ENDBRANCH  24  26
ENDBRANCH  16  22
ENDBRANCH   1  12
BRANCH   9  34
ATOM     34  N29 O43 d   1     -34.002 -20.399  -7.763  0.00  0.00    -0.386 N 
ATOM     35  H25 O43 d   1     -33.854 -21.391  -7.529  0.00  0.00     0.159 HD
BRANCH  34  36
ATOM     36  C30 O43 d   1     -33.525 -19.312  -6.863  0.00  0.00    -0.004 C 
ATOM     37  H26 O43 d   1     -33.421 -18.390  -7.454  0.00  0.00     0.064 H 
ATOM     38  H27 O43 d   1     -32.544 -19.600  -6.457  0.00  0.00     0.064 H 
BRANCH  36  39
ATOM     39  C31 O43 d   1     -34.484 -19.032  -5.680  0.00  0.00    -0.035 C 
ATOM     40  C32 O43 d   1     -34.093 -19.951  -4.574  0.00  0.00    -0.040 C 
ATOM     41  C33 O43 d   1     -34.426 -19.492  -3.160  0.00  0.00     0.020 C 
ATOM     42  H29 O43 d   1     -33.004 -20.098  -4.630  0.00  0.00     0.036 H 
ATOM     43  H30 O43 d   1     -34.602 -20.912  -4.742  0.00  0.00     0.036 H 
ATOM     44  O34 O43 d   1     -34.156 -18.054  -2.977  0.00  0.00    -0.391 OA
ATOM     45  H31 O43 d   1     -33.815 -20.063  -2.446  0.00  0.00     0.074 H 
ATOM     46  H32 O43 d   1     -35.492 -19.683  -2.965  0.00  0.00     0.074 H 
ATOM     47  C35 O43 d   1     -34.779 -17.183  -3.998  0.00  0.00     0.020 C 
ATOM     48  C36 O43 d   1     -34.366 -17.580  -5.411  0.00  0.00    -0.040 C 
ATOM     49  H33 O43 d   1     -34.469 -16.143  -3.816  0.00  0.00     0.074 H 
ATOM     50  H34 O43 d   1     -35.873 -17.260  -3.912  0.00  0.00     0.074 H 
ATOM     51  H35 O43 d   1     -35.007 -17.041  -6.124  0.00  0.00     0.036 H 
ATOM     52  H36 O43 d   1     -33.318 -17.283  -5.563  0.00  0.00     0.036 H 
ATOM     53  H28 O43 d   1     -35.524 -19.254  -5.963  0.00  0.00     0.042 H 
ENDBRANCH  36  39
ENDBRANCH  34  36
ENDBRANCH   9  34
BRANCH   7  54
ATOM     54  N20 O43 d   1     -35.452 -16.904 -10.946  0.00  0.00    -0.369 N 
ATOM     55  H12 O43 d   1     -34.639 -16.369 -10.608  0.00  0.00     0.161 HD
BRANCH  54  56
ATOM     56  C21 O43 d   1     -36.429 -16.129 -11.702  0.00  0.00     0.011 C 
ATOM     57  C22 O43 d   1     -37.644 -16.907 -12.173  0.00  0.00    -0.046 C 
ATOM     58  C23 O43 d   1     -38.619 -15.882 -12.720  0.00  0.00    -0.063 C 
ATOM     59  H14 O43 d   1     -38.097 -17.453 -11.332  0.00  0.00     0.035 H 
ATOM     60  H15 O43 d   1     -37.358 -17.619 -12.961  0.00  0.00     0.035 H 
ATOM     61  C24 O43 d   1     -38.020 -14.977 -13.806  0.00  0.00    -0.065 C 
ATOM     62  H16 O43 d   1     -38.959 -15.248 -11.888  0.00  0.00     0.033 H 
ATOM     63  H17 O43 d   1     -39.480 -16.416 -13.149  0.00  0.00     0.033 H 
ATOM     64  C25 O43 d   1     -36.608 -14.438 -13.543  0.00  0.00    -0.063 C 
ATOM     65  H18 O43 d   1     -38.690 -14.114 -13.929  0.00  0.00     0.033 H 
ATOM     66  H19 O43 d   1     -37.989 -15.553 -14.742  0.00  0.00     0.033 H 
ATOM     67  C26 O43 d   1     -35.712 -15.480 -12.894  0.00  0.00    -0.046 C 
ATOM     68  H20 O43 d   1     -36.679 -13.566 -12.876  0.00  0.00     0.033 H 
ATOM     69  H21 O43 d   1     -36.161 -14.132 -14.500  0.00  0.00     0.033 H 
ATOM     70  H22 O43 d   1     -35.462 -16.255 -13.633  0.00  0.00     0.035 H 
ATOM     71  H23 O43 d   1     -34.788 -14.997 -12.543  0.00  0.00     0.035 H 
ATOM     72  H13 O43 d   1     -36.796 -15.329 -11.042  0.00  0.00     0.072 H 
ENDBRANCH  54  56
ENDBRANCH   7  54
TORSDOF 8
