REMARK  5 active torsions:
REMARK  status: ('A' for Active; 'I' for Inactive)
REMARK       I    between atoms: C_2  and  N_3 
REMARK    1  A    between atoms: C_2  and  C4_7 
REMARK    2  A    between atoms: N_3  and  C1_4 
REMARK    3  A    between atoms: C7_10  and  C10_13 
REMARK    4  A    between atoms: N4_22  and  C16_23 
REMARK    5  A    between atoms: C16_23  and  C17_24 
ROOT
ATOM      1  C10 O23 d   1       1.243 -33.692 -11.512  0.00  0.00     0.066 A 
ATOM      2  N2  O23 d   1       0.705 -34.813 -10.979  0.00  0.00    -0.302 N 
ATOM      3  C13 O23 d   1       0.690 -36.128 -11.317  0.00  0.00     0.004 A 
ATOM      4  C14 O23 d   1       0.026 -37.087 -10.524  0.00  0.00     0.020 A 
ATOM      5  N3  O23 d   1      -0.626 -36.736  -9.388  0.00  0.00    -0.239 NA
ATOM      6  C15 O23 d   1      -0.637 -35.436  -9.007  0.00  0.00     0.168 A 
ATOM      7  C12 O23 d   1       0.064 -34.421  -9.856  0.00  0.00     0.159 A 
ATOM      8  N1  O23 d   1       0.185 -33.079  -9.704  0.00  0.00    -0.347 N 
ATOM      9  C11 O23 d   1       0.923 -32.593 -10.731  0.00  0.00     0.006 A 
ATOM     10  N4  O23 d   1      -1.274 -35.014  -7.894  0.00  0.00    -0.367 N 
ATOM     11  H   O23 d   1       1.201 -36.449 -12.218  0.00  0.00     0.114 H 
ATOM     12  H   O23 d   1       0.037 -38.127 -10.829  0.00  0.00     0.117 H 
ATOM     13  H   O23 d   1       1.206 -31.556 -10.906  0.00  0.00     0.115 H 
ATOM     14  H   O23 d   1      -1.313 -34.004  -7.696  0.00  0.00     0.161 HD
ATOM     15  H1  O23 d   1      -0.217 -32.522  -8.936  0.00  0.00     0.167 HD
ENDROOT
BRANCH   1  16
ATOM     16  C7  O23 d   1       2.029 -33.758 -12.792  0.00  0.00    -0.007 A 
ATOM     17  C8  O23 d   1       1.962 -32.674 -13.669  0.00  0.00    -0.070 A 
ATOM     18  C9  O23 d   1       2.679 -32.680 -14.873  0.00  0.00    -0.067 A 
ATOM     19  H   O23 d   1       1.348 -31.817 -13.416  0.00  0.00     0.084 H 
ATOM     20  C4  O23 d   1       3.476 -33.777 -15.205  0.00  0.00     0.032 A 
ATOM     21  H   O23 d   1       2.615 -31.833 -15.546  0.00  0.00     0.085 H 
ATOM     22  C5  O23 d   1       3.557 -34.861 -14.327  0.00  0.00    -0.067 A 
ATOM     23  C6  O23 d   1       2.844 -34.843 -13.122  0.00  0.00    -0.070 A 
ATOM     24  H   O23 d   1       4.173 -35.717 -14.579  0.00  0.00     0.085 H 
ATOM     25  H   O23 d   1       2.925 -35.680 -12.438  0.00  0.00     0.084 H 
BRANCH  20  26
ATOM     26  C   O23 d   1       4.252 -33.788 -16.498  0.00  0.00     0.252 C 
ATOM     27  O   O23 d   1       5.313 -34.404 -16.548  0.00  0.00    -0.268 OA
ATOM     28  N   O23 d   1       3.790 -33.134 -17.571  0.00  0.00    -0.352 N 
ATOM     29  H   O23 d   1       2.885 -32.710 -17.553  0.00  0.00     0.163 HD
BRANCH  28  30
ATOM     30  C1  O23 d   1       4.620 -33.047 -18.765  0.00  0.00     0.012 A 
ATOM     31  C3  O23 d   1       4.278 -31.832 -19.625  0.00  0.00    -0.044 A 
ATOM     32  C2  O23 d   1       5.478 -31.793 -18.680  0.00  0.00    -0.044 A 
ATOM     33  H   O23 d   1       3.382 -31.234 -19.402  0.00  0.00     0.036 H 
ATOM     34  H   O23 d   1       4.435 -31.866 -20.713  0.00  0.00     0.036 H 
ATOM     35  H   O23 d   1       6.499 -31.797 -19.088  0.00  0.00     0.036 H 
ATOM     36  H   O23 d   1       5.446 -31.166 -17.777  0.00  0.00     0.036 H 
ATOM     37  H   O23 d   1       4.952 -34.013 -19.173  0.00  0.00     0.072 H 
ENDBRANCH  28  30
ENDBRANCH  20  26
ENDBRANCH   1  16
BRANCH  10  38
ATOM     38  C16 O23 d   1      -1.905 -35.934  -6.969  0.00  0.00     0.024 C 
ATOM     39  H   O23 d   1      -2.299 -36.795  -7.529  0.00  0.00     0.072 H 
ATOM     40  H   O23 d   1      -2.732 -35.420  -6.458  0.00  0.00     0.072 H 
BRANCH  38  41
ATOM     41  C17 O23 d   1      -0.914 -36.426  -5.937  0.00  0.00     0.000 A 
ATOM     42  S   O23 d   1      -0.275 -35.242  -4.835  0.00  0.00    -0.105 SA
ATOM     43  C20 O23 d   1       0.715 -36.382  -3.976  0.00  0.00    -0.044 A 
ATOM     44  C19 O23 d   1       0.519 -37.631  -4.577  0.00  0.00    -0.076 A 
ATOM     45  H   O23 d   1       1.365 -36.166  -3.130  0.00  0.00     0.095 H 
ATOM     46  C18 O23 d   1      -0.372 -37.676  -5.657  0.00  0.00    -0.068 A 
ATOM     47  H   O23 d   1       1.034 -38.523  -4.223  0.00  0.00     0.084 H 
ATOM     48  H   O23 d   1      -0.612 -38.582  -6.212  0.00  0.00     0.085 H 
ENDBRANCH  38  41
ENDBRANCH  10  38
TORSDOF 5
