REMARK  12 active torsions:
REMARK  status: ('A' for Active; 'I' for Inactive)
REMARK    1  A    between atoms: CAV_2  and  CAU_4 
REMARK    2  A    between atoms: CAU_4  and  CAT_5 
REMARK    3  A    between atoms: CAT_5  and  CAS_6 
REMARK    4  A    between atoms: CAS_6  and  CAR_7 
REMARK    5  A    between atoms: CAR_7  and  CAQ_8 
REMARK    6  A    between atoms: CAQ_8  and  NAO_9 
REMARK       I    between atoms: NAO_9  and  CAN_10 
REMARK    7  A    between atoms: CAN_10  and  CAM_12 
REMARK    8  A    between atoms: CAM_12  and  CAL_13 
REMARK    9  A    between atoms: CAL_13  and  CAK_14 
REMARK   10  A    between atoms: CAK_14  and  CAI_15 
REMARK   11  A    between atoms: CAI_15  and  CAH_16 
REMARK   12  A    between atoms: CAA_22  and  NAJ_23 
ROOT
ATOM      1  CAL ZOF d   1      25.413  -6.976  31.075  0.00  0.00    -0.057 C 
ATOM      2  H14 ZOF d   1      24.404  -7.216  30.709  0.00  0.00     0.033 H 
ATOM      3  H15 ZOF d   1      25.707  -7.705  31.844  0.00  0.00     0.033 H 
ENDROOT
BRANCH   1   4
ATOM      4  CAM ZOF d   1      25.419  -5.565  31.676  0.00  0.00     0.009 C 
ATOM      5  H12 ZOF d   1      25.169  -4.856  30.873  0.00  0.00     0.047 H 
ATOM      6  H13 ZOF d   1      24.642  -5.527  32.453  0.00  0.00     0.047 H 
BRANCH   4   7
ATOM      7  CAN ZOF d   1      26.751  -5.107  32.315  0.00  0.00     0.217 C 
ATOM      8  NAO ZOF d   1      27.237  -3.893  32.003  0.00  0.00    -0.361 N 
ATOM      9  H11 ZOF d   1      26.799  -3.361  31.278  0.00  0.00     0.162 HD
ATOM     10  OAP ZOF d   1      27.316  -5.834  33.127  0.00  0.00    -0.274 OA
BRANCH   8  11
ATOM     11  CAQ ZOF d   1      28.389  -3.338  32.700  0.00  0.00    -0.005 C 
ATOM     12  H9  ZOF d   1      28.354  -2.240  32.640  0.00  0.00     0.064 H 
ATOM     13  H10 ZOF d   1      28.358  -3.649  33.755  0.00  0.00     0.064 H 
BRANCH  11  14
ATOM     14  CAR ZOF d   1      29.694  -3.838  32.063  0.00  0.00    -0.050 C 
ATOM     15  H7  ZOF d   1      29.721  -4.938  32.081  0.00  0.00     0.035 H 
ATOM     16  H8  ZOF d   1      29.761  -3.487  31.023  0.00  0.00     0.035 H 
BRANCH  14  17
ATOM     17  CAS ZOF d   1      30.847  -3.282  32.868  0.00  0.00    -0.063 C 
ATOM     18  H5  ZOF d   1      30.864  -2.186  32.774  0.00  0.00     0.033 H 
ATOM     19  H6  ZOF d   1      30.721  -3.557  33.925  0.00  0.00     0.033 H 
BRANCH  17  20
ATOM     20  CAT ZOF d   1      32.157  -3.854  32.350  0.00  0.00    -0.056 C 
ATOM     21  H3  ZOF d   1      32.148  -4.944  32.494  0.00  0.00     0.033 H 
ATOM     22  H4  ZOF d   1      32.242  -3.627  31.277  0.00  0.00     0.033 H 
BRANCH  20  23
ATOM     23  CAU ZOF d   1      33.379  -3.268  33.079  0.00  0.00     0.016 C 
ATOM     24  H1  ZOF d   1      33.444  -2.190  32.871  0.00  0.00     0.049 H 
ATOM     25  H2  ZOF d   1      33.267  -3.427  34.162  0.00  0.00     0.049 H 
BRANCH  23  26
ATOM     26  CAV ZOF d   1      34.684  -3.967  32.588  0.00  0.00     0.172 C 
ATOM     27  OAW ZOF d   1      34.946  -5.049  33.203  0.00  0.00    -0.648 OA
ATOM     28  OAX ZOF d   1      35.465  -3.365  31.763  0.00  0.00    -0.648 OA
ENDBRANCH  23  26
ENDBRANCH  20  23
ENDBRANCH  17  20
ENDBRANCH  14  17
ENDBRANCH  11  14
ENDBRANCH   8  11
ENDBRANCH   4   7
ENDBRANCH   1   4
BRANCH   1  29
ATOM     29  CAK ZOF d   1      26.408  -7.029  29.910  0.00  0.00    -0.064 C 
ATOM     30  H16 ZOF d   1      27.411  -6.783  30.289  0.00  0.00     0.033 H 
ATOM     31  H17 ZOF d   1      26.109  -6.287  29.155  0.00  0.00     0.033 H 
BRANCH  29  32
ATOM     32  CAI ZOF d   1      26.454  -8.406  29.255  0.00  0.00    -0.051 C 
ATOM     33  H18 ZOF d   1      25.459  -8.664  28.864  0.00  0.00     0.034 H 
ATOM     34  H19 ZOF d   1      26.764  -9.158  29.995  0.00  0.00     0.034 H 
BRANCH  32  35
ATOM     35  CAH ZOF d   1      27.467  -8.366  28.103  0.00  0.00     0.013 C 
ATOM     36  SAG ZOF d   1      26.860  -7.569  26.596  0.00  0.00    -0.160 SA
ATOM     37  CAF ZOF d   1      28.376  -8.083  25.728  0.00  0.00    -0.002 C 
ATOM     38  CAC ZOF d   1      28.664  -9.485  26.196  0.00  0.00     0.055 C 
ATOM     39  H21 ZOF d   1      29.210  -7.414  25.986  0.00  0.00     0.052 H 
ATOM     40  H22 ZOF d   1      28.218  -8.068  24.640  0.00  0.00     0.052 H 
ATOM     41  CAD ZOF d   1      27.980  -9.761  27.584  0.00  0.00     0.059 C 
ATOM     42  NAB ZOF d   1      28.006 -10.395  25.266  0.00  0.00    -0.219 N 
ATOM     43  H23 ZOF d   1      29.748  -9.663  26.246  0.00  0.00     0.077 H 
ATOM     44  NAE ZOF d   1      26.930 -10.716  27.212  0.00  0.00    -0.219 N 
ATOM     45  H24 ZOF d   1      28.669 -10.204  28.318  0.00  0.00     0.078 H 
ATOM     46  CAA ZOF d   1      26.979 -10.975  25.889  0.00  0.00     0.668 C 
ATOM     47  H25 ZOF d   1      26.252 -11.130  27.868  0.00  0.00     0.178 HD
ATOM     48  H28 ZOF d   1      28.288 -10.562  24.290  0.00  0.00     0.178 HD
ATOM     49  H20 ZOF d   1      28.331  -7.798  28.477  0.00  0.00     0.059 H 
BRANCH  46  50
ATOM     50  NAJ ZOF d   1      26.165 -11.832  25.287  0.00  0.00    -0.235 N 
ATOM     51  H26 ZOF d   1      26.245 -11.993  24.273  0.00  0.00     0.174 HD
ATOM     52  H27 ZOF d   1      25.453 -12.337  25.834  0.00  0.00     0.174 HD
ENDBRANCH  46  50
ENDBRANCH  32  35
ENDBRANCH  29  32
ENDBRANCH   1  29
TORSDOF 12
