REMARK  12 active torsions:
REMARK  status: ('A' for Active; 'I' for Inactive)
REMARK    1  A    between atoms: CAV_2  and  CAU_4 
REMARK    2  A    between atoms: CAU_4  and  CAT_5 
REMARK    3  A    between atoms: CAT_5  and  CAS_6 
REMARK    4  A    between atoms: CAS_6  and  CAR_7 
REMARK    5  A    between atoms: CAR_7  and  CAQ_8 
REMARK    6  A    between atoms: CAQ_8  and  NAO_9 
REMARK       I    between atoms: NAO_9  and  CAN_10 
REMARK    7  A    between atoms: CAN_10  and  CAM_12 
REMARK    8  A    between atoms: CAM_12  and  CAL_13 
REMARK    9  A    between atoms: CAL_13  and  CAK_14 
REMARK   10  A    between atoms: CAK_14  and  CAI_15 
REMARK   11  A    between atoms: CAI_15  and  CAH_16 
REMARK   12  A    between atoms: CAA_22  and  NAJ_23 
ROOT
ATOM      1  CAL ZOF d   1      12.910  -1.084   9.983  0.00  0.00    -0.057 C 
ATOM      2  H14 ZOF d   1      12.488  -0.139  10.355  0.00  0.00     0.033 H 
ATOM      3  H15 ZOF d   1      13.782  -0.871   9.347  0.00  0.00     0.033 H 
ENDROOT
BRANCH   1   4
ATOM      4  CAM ZOF d   1      11.841  -1.839   9.159  0.00  0.00     0.009 C 
ATOM      5  H12 ZOF d   1      11.108  -2.282   9.849  0.00  0.00     0.047 H 
ATOM      6  H13 ZOF d   1      11.334  -1.123   8.495  0.00  0.00     0.047 H 
BRANCH   4   7
ATOM      7  CAN ZOF d   1      12.454  -2.952   8.309  0.00  0.00     0.217 C 
ATOM      8  NAO ZOF d   1      11.648  -4.046   8.139  0.00  0.00    -0.361 N 
ATOM      9  H11 ZOF d   1      10.757  -4.047   8.593  0.00  0.00     0.162 HD
ATOM     10  OAP ZOF d   1      13.581  -2.812   7.820  0.00  0.00    -0.274 OA
BRANCH   8  11
ATOM     11  CAQ ZOF d   1      12.012  -5.218   7.331  0.00  0.00    -0.005 C 
ATOM     12  H9  ZOF d   1      11.157  -5.909   7.291  0.00  0.00     0.064 H 
ATOM     13  H10 ZOF d   1      12.266  -4.889   6.312  0.00  0.00     0.064 H 
BRANCH  11  14
ATOM     14  CAR ZOF d   1      13.218  -5.944   7.941  0.00  0.00    -0.050 C 
ATOM     15  H7  ZOF d   1      14.126  -5.350   7.762  0.00  0.00     0.035 H 
ATOM     16  H8  ZOF d   1      13.062  -6.058   9.024  0.00  0.00     0.035 H 
BRANCH  14  17
ATOM     17  CAS ZOF d   1      13.387  -7.321   7.311  0.00  0.00    -0.063 C 
ATOM     18  H5  ZOF d   1      13.152  -8.099   8.053  0.00  0.00     0.033 H 
ATOM     19  H6  ZOF d   1      12.710  -7.419   6.449  0.00  0.00     0.033 H 
BRANCH  17  20
ATOM     20  CAT ZOF d   1      14.833  -7.473   6.848  0.00  0.00    -0.056 C 
ATOM     21  H3  ZOF d   1      15.125  -6.592   6.258  0.00  0.00     0.033 H 
ATOM     22  H4  ZOF d   1      15.492  -7.563   7.724  0.00  0.00     0.033 H 
BRANCH  20  23
ATOM     23  CAU ZOF d   1      14.955  -8.737   5.980  0.00  0.00     0.016 C 
ATOM     24  H1  ZOF d   1      14.179  -9.460   6.271  0.00  0.00     0.049 H 
ATOM     25  H2  ZOF d   1      14.829  -8.470   4.920  0.00  0.00     0.049 H 
BRANCH  23  26
ATOM     26  CAV ZOF d   1      16.341  -9.358   6.192  0.00  0.00     0.172 C 
ATOM     27  OAW ZOF d   1      17.310  -8.831   5.571  0.00  0.00    -0.648 OA
ATOM     28  OAX ZOF d   1      16.399 -10.340   6.983  0.00  0.00    -0.648 OA
ENDBRANCH  23  26
ENDBRANCH  20  23
ENDBRANCH  17  20
ENDBRANCH  14  17
ENDBRANCH  11  14
ENDBRANCH   8  11
ENDBRANCH   4   7
ENDBRANCH   1   4
BRANCH   1  29
ATOM     29  CAK ZOF d   1      13.345  -1.966  11.182  0.00  0.00    -0.064 C 
ATOM     30  H16 ZOF d   1      13.763  -2.915  10.815  0.00  0.00     0.033 H 
ATOM     31  H17 ZOF d   1      12.478  -2.172  11.827  0.00  0.00     0.033 H 
BRANCH  29  32
ATOM     32  CAI ZOF d   1      14.419  -1.195  11.979  0.00  0.00    -0.051 C 
ATOM     33  H18 ZOF d   1      14.025  -0.223  12.310  0.00  0.00     0.034 H 
ATOM     34  H19 ZOF d   1      15.314  -1.037  11.360  0.00  0.00     0.034 H 
BRANCH  32  35
ATOM     35  CAH ZOF d   1      14.769  -2.106  13.235  0.00  0.00     0.013 C 
ATOM     36  SAG ZOF d   1      13.585  -2.091  14.605  0.00  0.00    -0.160 SA
ATOM     37  CAF ZOF d   1      14.741  -2.955  15.671  0.00  0.00    -0.002 C 
ATOM     38  CAC ZOF d   1      16.112  -2.210  15.405  0.00  0.00     0.055 A 
ATOM     39  H21 ZOF d   1      14.811  -4.018  15.396  0.00  0.00     0.052 H 
ATOM     40  H22 ZOF d   1      14.444  -2.868  16.727  0.00  0.00     0.052 H 
ATOM     41  CAD ZOF d   1      16.134  -1.747  13.933  0.00  0.00     0.059 A 
ATOM     42  NAB ZOF d   1      16.232  -0.968  16.173  0.00  0.00    -0.219 N 
ATOM     43  H23 ZOF d   1      16.952  -2.885  15.627  0.00  0.00     0.077 H 
ATOM     44  NAE ZOF d   1      16.287  -0.271  14.010  0.00  0.00    -0.219 N 
ATOM     45  H24 ZOF d   1      16.971  -2.205  13.385  0.00  0.00     0.078 H 
ATOM     46  CAA ZOF d   1      16.346   0.073  15.310  0.00  0.00     0.668 A 
ATOM     47  H25 ZOF d   1      16.339   0.375  13.210  0.00  0.00     0.178 HD
ATOM     48  H28 ZOF d   1      16.230  -0.897  17.201  0.00  0.00     0.178 HD
ATOM     49  H20 ZOF d   1      14.833  -3.135  12.852  0.00  0.00     0.059 H 
BRANCH  46  50
ATOM     50  NAJ ZOF d   1      16.465   1.355  15.693  0.00  0.00    -0.235 N 
ATOM     51  H26 ZOF d   1      16.508   1.591  16.695  0.00  0.00     0.174 HD
ATOM     52  H27 ZOF d   1      16.513   2.102  14.985  0.00  0.00     0.174 HD
ENDBRANCH  46  50
ENDBRANCH  32  35
ENDBRANCH  29  32
ENDBRANCH   1  29
TORSDOF 12
