REMARK  6 active torsions:
REMARK  status: ('A' for Active; 'I' for Inactive)
REMARK    1  A    between atoms: C11_3  and  O46_23 
REMARK    2  A    between atoms: C15_5  and  O48_24 
REMARK    3  A    between atoms: C24_11  and  O42_21 
REMARK    4  A    between atoms: C31_13  and  C62_26 
REMARK    5  A    between atoms: C39_16  and  O44_22 
REMARK    6  A    between atoms: O48_24  and  C59_25 
ROOT
ATOM      1  C2  1FM d   1     -10.108 -15.206   1.295  0.00  0.00     0.083 A 
ATOM      2  C3  1FM d   1     -10.763 -15.146  -0.058  0.00  0.00    -0.015 A 
ATOM      3  C11 1FM d   1     -10.715 -16.161   2.248  0.00  0.00     0.085 A 
ATOM      4  C14 1FM d   1     -11.856 -15.967  -0.343  0.00  0.00    -0.040 A 
ATOM      5  C15 1FM d   1     -12.373 -16.853   0.602  0.00  0.00     0.071 A 
ATOM      6  O15 1FM d   1      -7.828 -14.966   2.583  0.00  0.00    -0.312 OA
ATOM      7  C16 1FM d   1     -11.811 -16.936   1.874  0.00  0.00    -0.018 A 
ATOM      8  C17 1FM d   1     -10.315 -14.511  -2.428  0.00  0.00    -0.100 C 
ATOM      9  C18 1FM d   1      -5.502 -14.600   1.917  0.00  0.00    -0.040 C 
ATOM     10  C23 1FM d   1     -10.265 -14.244  -1.117  0.00  0.00    -0.075 C 
ATOM     11  C24 1FM d   1      -8.213 -13.348  -3.084  0.00  0.00     0.070 C 
ATOM     12  C26 1FM d   1      -8.919 -14.371   1.785  0.00  0.00     0.297 C 
ATOM     13  C31 1FM d   1      -6.671 -14.130   2.792  0.00  0.00     0.045 C 
ATOM     14  C34 1FM d   1      -9.724 -13.485  -3.363  0.00  0.00    -0.023 C 
ATOM     15  O38 1FM d   1      -8.858 -13.159   1.579  0.00  0.00    -0.259 OA
ATOM     16  C39 1FM d   1      -7.855 -12.676  -1.721  0.00  0.00     0.117 C 
ATOM     17  C40 1FM d   1      -6.383 -12.642  -1.331  0.00  0.00     0.158 C 
ATOM     18  O40 1FM d   1      -5.519 -12.382  -2.153  0.00  0.00    -0.295 OA
ATOM     19  C41 1FM d   1      -5.961 -12.890   0.106  0.00  0.00    -0.007 C 
ATOM     20  C42 1FM d   1      -5.682 -14.373   0.406  0.00  0.00    -0.057 C 
ATOM     21  H1  1FM d   1     -12.314 -15.914  -1.324  0.00  0.00     0.089 H 
ATOM     22  H2  1FM d   1     -12.239 -17.624   2.594  0.00  0.00     0.092 H 
ATOM     23  H3  1FM d   1     -10.763 -15.430  -2.804  0.00  0.00     0.076 H 
ATOM     24  H4  1FM d   1      -5.363 -15.678   2.085  0.00  0.00     0.036 H 
ATOM     25  H5  1FM d   1      -4.599 -14.060   2.237  0.00  0.00     0.036 H 
ATOM     26  H6  1FM d   1      -9.827 -13.296  -0.810  0.00  0.00     0.084 H 
ATOM     27  H7  1FM d   1      -7.783 -12.717  -3.876  0.00  0.00     0.087 H 
ATOM     28  H8  1FM d   1      -6.933 -13.102   2.500  0.00  0.00     0.083 H 
ATOM     29  H9  1FM d   1     -10.216 -12.515  -3.202  0.00  0.00     0.042 H 
ATOM     30  H10 1FM d   1      -9.877 -13.806  -4.404  0.00  0.00     0.042 H 
ATOM     31  H11 1FM d   1      -8.369 -13.266  -0.948  0.00  0.00     0.099 H 
ATOM     32  H12 1FM d   1      -6.765 -12.543   0.772  0.00  0.00     0.044 H 
ATOM     33  H13 1FM d   1      -5.045 -12.314   0.306  0.00  0.00     0.044 H 
ATOM     34  H14 1FM d   1      -6.528 -14.979   0.049  0.00  0.00     0.033 H 
ATOM     35  H15 1FM d   1      -4.764 -14.680  -0.117  0.00  0.00     0.033 H 
ENDROOT
BRANCH   5  36
ATOM     36  O48 1FM d   1     -13.454 -17.653   0.318  0.00  0.00    -0.356 OA
BRANCH  36  37
ATOM     37  C59 1FM d   1     -13.920 -17.881  -1.009  0.00  0.00     0.010 C 
ATOM     38  H19 1FM d   1     -14.792 -18.551  -0.981  0.00  0.00     0.066 H 
ATOM     39  H20 1FM d   1     -13.120 -18.345  -1.604  0.00  0.00     0.066 H 
ATOM     40  H21 1FM d   1     -14.208 -16.923  -1.466  0.00  0.00     0.066 H 
ENDBRANCH  36  37
ENDBRANCH   5  36
BRANCH   3  41
ATOM     41  O46 1FM d   1     -10.191 -16.265   3.498  0.00  0.00    -0.360 OA
ATOM     42  H18 1FM d   1      -9.455 -15.670   3.582  0.00  0.00     0.217 HD
ENDBRANCH   3  41
BRANCH  13  43
ATOM     43  C62 1FM d   1      -6.255 -14.119   4.263  0.00  0.00    -0.052 C 
ATOM     44  H22 1FM d   1      -5.373 -13.475   4.390  0.00  0.00     0.030 H 
ATOM     45  H23 1FM d   1      -6.010 -15.143   4.582  0.00  0.00     0.030 H 
ATOM     46  H24 1FM d   1      -7.083 -13.732   4.875  0.00  0.00     0.030 H 
ENDBRANCH  13  43
BRANCH  11  47
ATOM     47  O42 1FM d   1      -7.634 -14.658  -3.184  0.00  0.00    -0.392 OA
ATOM     48  H16 1FM d   1      -7.867 -15.043  -4.021  0.00  0.00     0.210 HD
ENDBRANCH  11  47
BRANCH  16  49
ATOM     49  O44 1FM d   1      -8.369 -11.334  -1.661  0.00  0.00    -0.385 OA
ATOM     50  H17 1FM d   1      -7.884 -10.783  -2.264  0.00  0.00     0.210 HD
ENDBRANCH  16  49
TORSDOF 6
