REMARK  11 active torsions:
REMARK  status: ('A' for Active; 'I' for Inactive)
REMARK    1  A    between atoms: N3B_8  and  PG_1 
REMARK    2  A    between atoms: PB_5  and  N3B_8 
REMARK    3  A    between atoms: O3A_12  and  PB_5 
REMARK    4  A    between atoms: PA_9  and  O3A_12 
REMARK    5  A    between atoms: PA_9  and  O5'_13 
REMARK    6  A    between atoms: O5'_13  and  C5'_14 
REMARK    7  A    between atoms: C5'_14  and  C4'_15 
REMARK    8  A    between atoms: C3'_17  and  O3'_18 
REMARK    9  A    between atoms: C2'_19  and  O2'_20 
REMARK   10  A    between atoms: C1'_21  and  N9_22 
REMARK   11  A    between atoms: C6_26  and  N6_27 
ROOT
ATOM      1  C4' ANP d   1     -21.368 -15.427 -22.012  0.00  0.00     0.089 C 
ATOM      2  O4' ANP d   1     -21.472 -15.045 -20.560  0.00  0.00    -0.353 OA
ATOM      3  C3' ANP d   1     -21.360 -17.048 -21.977  0.00  0.00     0.091 C 
ATOM      4  C2' ANP d   1     -22.014 -17.338 -20.983  0.00  0.00     0.105 C 
ATOM      5  C1' ANP d   1     -21.791 -16.132 -19.888  0.00  0.00     0.139 C 
ATOM      6  H4  ANP d   1     -20.397 -15.076 -22.391  0.00  0.00     0.090 H 
ATOM      7  H5  ANP d   1     -21.831 -17.475 -22.875  0.00  0.00     0.091 H 
ATOM      8  H7  ANP d   1     -23.071 -17.341 -21.288  0.00  0.00     0.093 H 
ATOM      9  H9  ANP d   1     -20.971 -16.401 -19.206  0.00  0.00     0.122 H 
ENDROOT
BRANCH   1  10
ATOM     10  C5' ANP d   1     -22.345 -14.889 -22.872  0.00  0.00     0.058 C 
ATOM     11  H2  ANP d   1     -22.325 -13.792 -22.799  0.00  0.00     0.079 H 
ATOM     12  H3  ANP d   1     -22.123 -15.192 -23.906  0.00  0.00     0.079 H 
BRANCH  10  13
ATOM     13  O5' ANP d   1     -23.646 -15.360 -22.514  0.00  0.00    -0.287 OA
BRANCH  13  14
ATOM     14  PA  ANP d   1     -24.962 -15.235 -23.508  0.00  0.00     0.417 P 
ATOM     15  O1A ANP d   1     -24.607 -15.645 -24.996  0.00  0.00    -0.624 OA
ATOM     16  O2A ANP d   1     -25.584 -13.852 -23.447  0.00  0.00    -0.624 OA
BRANCH  14  17
ATOM     17  O3A ANP d   1     -26.065 -16.181 -22.873  0.00  0.00    -0.186 OA
BRANCH  17  18
ATOM     18  PB  ANP d   1     -26.516 -17.528 -23.503  0.00  0.00     0.379 P 
ATOM     19  O1B ANP d   1     -27.699 -17.252 -24.462  0.00  0.00    -0.629 OA
ATOM     20  O2B ANP d   1     -25.350 -18.200 -24.286  0.00  0.00    -0.629 OA
BRANCH  18  21
ATOM     21  N3B ANP d   1     -26.986 -18.504 -22.281  0.00  0.00    -0.218 N 
ATOM     22  H1  ANP d   1     -26.395 -19.261 -22.003  0.00  0.00     0.179 HD
BRANCH  21  23
ATOM     23  PG  ANP d   1     -28.444 -18.261 -21.482  0.00  0.00     0.381 P 
ATOM     24  O1G ANP d   1     -29.435 -17.417 -22.320  0.00  0.00    -0.622 OA
ATOM     25  O2G ANP d   1     -29.064 -19.673 -21.152  0.00  0.00    -0.622 OA
ATOM     26  O3G ANP d   1     -28.116 -17.507 -20.163  0.00  0.00    -0.622 OA
ENDBRANCH  21  23
ENDBRANCH  18  21
ENDBRANCH  17  18
ENDBRANCH  14  17
ENDBRANCH  13  14
ENDBRANCH  10  13
ENDBRANCH   1  10
BRANCH   3  27
ATOM     27  O3' ANP d   1     -19.919 -17.467 -21.916  0.00  0.00    -0.390 OA
ATOM     28  H6  ANP d   1     -19.867 -18.415 -21.894  0.00  0.00     0.210 HD
ENDBRANCH   3  27
BRANCH   5  29
ATOM     29  N9  ANP d   1     -22.948 -15.915 -19.141  0.00  0.00    -0.294 N 
ATOM     30  C8  ANP d   1     -24.256 -15.758 -19.270  0.00  0.00     0.071 A 
ATOM     31  N7  ANP d   1     -24.766 -15.545 -18.040  0.00  0.00    -0.236 NA
ATOM     32  H10 ANP d   1     -24.819 -15.794 -20.202  0.00  0.00     0.144 H 
ATOM     33  C5  ANP d   1     -23.760 -15.560 -17.145  0.00  0.00     0.149 A 
ATOM     34  C6  ANP d   1     -23.790 -15.381 -15.741  0.00  0.00     0.155 A 
ATOM     35  C4  ANP d   1     -22.608 -15.787 -17.808  0.00  0.00     0.167 A 
ATOM     36  N1  ANP d   1     -22.656 -15.435 -15.044  0.00  0.00    -0.222 NA
ATOM     37  C2  ANP d   1     -21.468 -15.673 -15.713  0.00  0.00     0.091 A 
ATOM     38  N3  ANP d   1     -21.420 -15.848 -17.088  0.00  0.00    -0.222 NA
ATOM     39  H13 ANP d   1     -20.546 -15.724 -15.145  0.00  0.00     0.146 H 
BRANCH  34  40
ATOM     40  N6  ANP d   1     -24.909 -15.133 -14.886  0.00  0.00    -0.382 N 
ATOM     41  H11 ANP d   1     -24.768 -15.024 -13.871  0.00  0.00     0.157 HD
ATOM     42  H12 ANP d   1     -25.856 -15.063 -15.285  0.00  0.00     0.157 HD
ENDBRANCH  34  40
ENDBRANCH   5  29
BRANCH   4  43
ATOM     43  O2' ANP d   1     -21.755 -18.693 -20.321  0.00  0.00    -0.388 OA
ATOM     44  H8  ANP d   1     -20.848 -18.740 -20.042  0.00  0.00     0.210 HD
ENDBRANCH   4  43
TORSDOF 11
