REMARK  7 active torsions:
REMARK  status: ('A' for Active; 'I' for Inactive)
REMARK    1  A    between atoms: C17_7  and  C21_10 
REMARK    2  A    between atoms: C21_10  and  C1_11 
REMARK    3  A    between atoms: C21_10  and  O27_12 
REMARK    4  A    between atoms: O27_12  and  C15_13 
REMARK    5  A    between atoms: C19_15  and  N22_16 
REMARK    6  A    between atoms: C14_19  and  C16_20 
REMARK    7  A    between atoms: N26_23  and  C20_25 
ROOT
ATOM      1  C15 VGH d   1      42.016  19.472   7.031  0.00  0.00     0.116 A 
ATOM      2  C4  VGH d   1      42.967  19.776   6.004  0.00  0.00    -0.035 A 
ATOM      3  C19 VGH d   1      42.443  18.505   8.006  0.00  0.00     0.154 A 
ATOM      4  N23 VGH d   1      43.668  17.894   7.986  0.00  0.00    -0.240 NA
ATOM      5  C5  VGH d   1      44.548  18.214   6.979  0.00  0.00     0.015 A 
ATOM      6  C14 VGH d   1      44.246  19.158   5.951  0.00  0.00    -0.003 A 
ATOM      7  H7  VGH d   1      42.703  20.501   5.242  0.00  0.00     0.089 H 
ATOM      8  H10 VGH d   1      45.516  17.727   6.965  0.00  0.00     0.116 H 
ENDROOT
BRANCH   6   9
ATOM      9  C16 VGH d   1      45.193  19.529   4.829  0.00  0.00     0.012 A 
ATOM     10  C6  VGH d   1      46.631  19.294   4.693  0.00  0.00     0.034 A 
ATOM     11  N24 VGH d   1      47.019  19.790   3.561  0.00  0.00    -0.184 NA
ATOM     12  H11 VGH d   1      47.266  18.789   5.419  0.00  0.00     0.118 H 
ATOM     13  N26 VGH d   1      46.003  20.318   2.954  0.00  0.00    -0.276 N 
ATOM     14  C7  VGH d   1      44.837  20.196   3.675  0.00  0.00     0.011 A 
ATOM     15  H12 VGH d   1      43.846  20.550   3.395  0.00  0.00     0.115 H 
BRANCH  13  16
ATOM     16  C20 VGH d   1      46.042  20.983   1.634  0.00  0.00     0.037 C 
ATOM     17  C8  VGH d   1      45.770  19.938   0.518  0.00  0.00    -0.022 C 
ATOM     18  C10 VGH d   1      45.805  20.633  -0.863  0.00  0.00     0.084 C 
ATOM     19  H14 VGH d   1      44.780  19.484   0.674  0.00  0.00     0.038 H 
ATOM     20  H15 VGH d   1      46.542  19.155   0.553  0.00  0.00     0.038 H 
ATOM     21  N25 VGH d   1      47.063  21.404  -1.088  0.00  0.00    -0.075 N 
ATOM     22  H16 VGH d   1      44.952  21.324  -0.931  0.00  0.00     0.075 H 
ATOM     23  H17 VGH d   1      45.718  19.865  -1.646  0.00  0.00     0.075 H 
ATOM     24  C11 VGH d   1      47.361  22.376   0.008  0.00  0.00     0.084 C 
ATOM     25  H18 VGH d   1      46.976  21.913  -1.953  0.00  0.00     0.277 HD
ATOM     26  H19 VGH d   1      47.830  20.753  -1.157  0.00  0.00     0.277 HD
ATOM     27  C9  VGH d   1      47.391  21.699   1.399  0.00  0.00    -0.022 C 
ATOM     28  H20 VGH d   1      46.585  23.156   0.010  0.00  0.00     0.075 H 
ATOM     29  H21 VGH d   1      48.342  22.835  -0.183  0.00  0.00     0.075 H 
ATOM     30  H22 VGH d   1      48.210  20.966   1.435  0.00  0.00     0.038 H 
ATOM     31  H23 VGH d   1      47.546  22.461   2.177  0.00  0.00     0.038 H 
ATOM     32  H13 VGH d   1      45.244  21.740   1.604  0.00  0.00     0.076 H 
ENDBRANCH  13  16
ENDBRANCH   6   9
BRANCH   1  33
ATOM     33  O27 VGH d   1      40.753  20.075   7.125  0.00  0.00    -0.338 OA
BRANCH  33  34
ATOM     34  C21 VGH d   1      40.062  20.783   6.011  0.00  0.00     0.070 C 
ATOM     35  H3  VGH d   1      40.713  21.598   5.663  0.00  0.00     0.091 H 
BRANCH  34  36
ATOM     36  C17 VGH d   1      39.723  19.875   4.759  0.00  0.00     0.017 A 
ATOM     37  C13 VGH d   1      40.342  20.151   3.469  0.00  0.00     0.044 A 
ATOM     38 CL   VGH d   1      41.460  21.445   3.206  0.00  0.00    -0.084 Cl
ATOM     39  C3  VGH d   1      40.039  19.339   2.333  0.00  0.00    -0.058 A 
ATOM     40  C2  VGH d   1      39.135  18.258   2.432  0.00  0.00    -0.042 A 
ATOM     41  H1  VGH d   1      40.510  19.556   1.381  0.00  0.00     0.086 H 
ATOM     42  C12 VGH d   1      38.508  17.957   3.669  0.00  0.00     0.138 A 
ATOM     43  H2  VGH d   1      38.919  17.655   1.558  0.00  0.00     0.088 H 
ATOM     44  F   VGH d   1      37.651  16.922   3.727  0.00  0.00    -0.204 F 
ATOM     45  C18 VGH d   1      38.788  18.748   4.836  0.00  0.00     0.083 A 
ATOM     46 CL2  VGH d   1      37.960  18.286   6.305  0.00  0.00    -0.080 Cl
ENDBRANCH  34  36
BRANCH  34  47
ATOM     47  C1  VGH d   1      38.771  21.384   6.608  0.00  0.00    -0.048 C 
ATOM     48  H4  VGH d   1      39.025  22.011   7.475  0.00  0.00     0.031 H 
ATOM     49  H5  VGH d   1      38.102  20.572   6.927  0.00  0.00     0.031 H 
ATOM     50  H6  VGH d   1      38.267  21.998   5.847  0.00  0.00     0.031 H 
ENDBRANCH  34  47
ENDBRANCH  33  34
ENDBRANCH   1  33
BRANCH   3  51
ATOM     51  N22 VGH d   1      41.578  18.149   9.061  0.00  0.00    -0.382 N 
ATOM     52  H8  VGH d   1      41.879  17.457   9.762  0.00  0.00     0.157 HD
ATOM     53  H9  VGH d   1      40.645  18.581   9.130  0.00  0.00     0.157 HD
ENDBRANCH   3  51
TORSDOF 7
