REMARK  6 active torsions:
REMARK  status: ('A' for Active; 'I' for Inactive)
REMARK    1  A    between atoms: N30_8  and  C33_9 
REMARK    2  A    between atoms: C23_11  and  C5_12 
REMARK    3  A    between atoms: C9_19  and  C10_21 
REMARK       I    between atoms: C10_21  and  N12_23 
REMARK    4  A    between atoms: N12_23  and  C13_24 
REMARK    5  A    between atoms: C13_24  and  C22_25 
REMARK    6  A    between atoms: C13_24  and  C14_26 
REMARK       I    between atoms: C14_26  and  N15_28 
ROOT
ATOM      1  C14 VFC d   1      13.630   0.314  43.216  0.00  0.00     0.242 C 
ATOM      2  O21 VFC d   1      13.283  -0.750  42.713  0.00  0.00    -0.271 OA
ATOM      3  N15 VFC d   1      14.819   0.960  42.924  0.00  0.00    -0.348 N 
ATOM      4  C17 VFC d   1      15.428   2.205  43.392  0.00  0.00     0.014 A 
ATOM      5  C18 VFC d   1      16.657   1.908  42.570  0.00  0.00     0.061 A 
ATOM      6  C16 VFC d   1      15.957   0.665  42.064  0.00  0.00     0.014 A 
ATOM      7  C19 VFC d   1      17.846   1.638  43.367  0.00  0.00     0.067 C 
ATOM      8  N20 VFC d   1      18.773   1.405  44.033  0.00  0.00    -0.197 NA
ATOM      9  H15 VFC d   1      15.609   2.237  44.477  0.00  0.00     0.066 H 
ATOM     10  H16 VFC d   1      14.889   3.113  43.083  0.00  0.00     0.066 H 
ATOM     11  H17 VFC d   1      16.887   2.655  41.796  0.00  0.00     0.068 H 
ATOM     12  H18 VFC d   1      15.725   0.686  40.989  0.00  0.00     0.066 H 
ATOM     13  H19 VFC d   1      16.475  -0.274  42.310  0.00  0.00     0.066 H 
ENDROOT
BRANCH   1  14
ATOM     14  C13 VFC d   1      12.721   1.008  44.170  0.00  0.00     0.086 C 
ATOM     15  H11 VFC d   1      13.273   1.771  44.739  0.00  0.00     0.087 H 
BRANCH  14  16
ATOM     16  N12 VFC d   1      12.067   0.081  45.096  0.00  0.00    -0.344 N 
ATOM     17  C10 VFC d   1      12.085   0.187  46.460  0.00  0.00     0.256 C 
ATOM     18  O11 VFC d   1      12.650   1.125  46.985  0.00  0.00    -0.268 OA
ATOM     19  H10 VFC d   1      11.568  -0.690  44.700  0.00  0.00     0.163 HD
BRANCH  17  20
ATOM     20  C9  VFC d   1      11.314  -0.792  47.246  0.00  0.00     0.080 A 
ATOM     21  C8  VFC d   1      11.122  -0.758  48.614  0.00  0.00    -0.004 A 
ATOM     22  N7  VFC d   1      10.316  -1.776  48.960  0.00  0.00    -0.348 N 
ATOM     23  H9  VFC d   1      11.552  -0.028  49.298  0.00  0.00     0.113 H 
ATOM     24  C2  VFC d   1       9.968  -2.438  47.850  0.00  0.00     0.157 A 
ATOM     25  H8  VFC d   1      10.017  -2.008  49.918  0.00  0.00     0.167 HD
ATOM     26  N4  VFC d   1       9.152  -3.538  47.706  0.00  0.00    -0.239 NA
ATOM     27  C1  VFC d   1      10.558  -1.849  46.773  0.00  0.00     0.120 A 
ATOM     28  C6  VFC d   1       8.973  -4.049  46.410  0.00  0.00     0.035 A 
ATOM     29  C5  VFC d   1       9.574  -3.461  45.290  0.00  0.00     0.106 A 
ATOM     30  H7  VFC d   1       8.350  -4.926  46.272  0.00  0.00     0.118 H 
ATOM     31  N3  VFC d   1      10.389  -2.334  45.478  0.00  0.00    -0.240 NA
BRANCH  29  32
ATOM     32  C23 VFC d   1       9.318  -4.041  43.953  0.00  0.00     0.119 A 
ATOM     33  C24 VFC d   1       9.622  -3.544  42.709  0.00  0.00     0.025 A 
ATOM     34  C26 VFC d   1      10.237  -2.375  42.277  0.00  0.00    -0.066 A 
ATOM     35  C25 VFC d   1       9.183  -4.474  41.806  0.00  0.00     0.068 A 
ATOM     36  C28 VFC d   1      10.396  -2.172  40.912  0.00  0.00    -0.045 A 
ATOM     37  H2  VFC d   1      10.585  -1.637  42.990  0.00  0.00     0.085 H 
ATOM     38  C29 VFC d   1       9.940  -3.126  39.999  0.00  0.00     0.118 A 
ATOM     39  H1  VFC d   1      10.876  -1.269  40.553  0.00  0.00     0.088 H 
ATOM     40  F32 VFC d   1      10.112  -2.896  38.710  0.00  0.00    -0.206 F 
ATOM     41  C27 VFC d   1       9.327  -4.297  40.436  0.00  0.00    -0.018 A 
ATOM     42  H3  VFC d   1       8.975  -5.043  39.733  0.00  0.00     0.091 H 
ATOM     43  N30 VFC d   1       8.634  -5.476  42.504  0.00  0.00    -0.273 N 
ATOM     44  N31 VFC d   1       8.717  -5.227  43.744  0.00  0.00    -0.169 NA
BRANCH  43  45
ATOM     45  C33 VFC d   1       8.031  -6.693  41.927  0.00  0.00     0.003 C 
ATOM     46  H4  VFC d   1       7.661  -7.338  42.737  0.00  0.00     0.059 H 
ATOM     47  H5  VFC d   1       8.788  -7.236  41.343  0.00  0.00     0.059 H 
ATOM     48  H6  VFC d   1       7.194  -6.412  41.271  0.00  0.00     0.059 H 
ENDBRANCH  43  45
ENDBRANCH  29  32
ENDBRANCH  17  20
ENDBRANCH  14  16
BRANCH  14  49
ATOM     49  C22 VFC d   1      11.654   1.641  43.292  0.00  0.00    -0.049 C 
ATOM     50  H12 VFC d   1      12.127   2.342  42.588  0.00  0.00     0.030 H 
ATOM     51  H13 VFC d   1      10.935   2.184  43.923  0.00  0.00     0.030 H 
ATOM     52  H14 VFC d   1      11.128   0.855  42.730  0.00  0.00     0.030 H 
ENDBRANCH  14  49
ENDBRANCH   1  14
TORSDOF 6
