REMARK  7 active torsions:
REMARK  status: ('A' for Active; 'I' for Inactive)
REMARK    1  A    between atoms: CAC_2  and  CAD_5 
REMARK    2  A    between atoms: CAI_10  and  CAH_11 
REMARK    3  A    between atoms: CAH_11  and  NAP_12 
REMARK    4  A    between atoms: CAW_16  and  CAV_17 
REMARK    5  A    between atoms: NBB_24  and  CBC_25 
REMARK    6  A    between atoms: CAS_29  and  OAT_30 
REMARK    7  A    between atoms: OAT_30  and  CAU_31 
ROOT
ATOM      1  NAP 4A2 d   1      -3.454  -3.485   9.098  0.00  0.00    -0.175 N 
ATOM      2  CAO 4A2 d   1      -2.789  -3.748   7.993  0.00  0.00     0.081 A 
ATOM      3  CAN 4A2 d   1      -1.726  -4.635   7.743  0.00  0.00    -0.053 A 
ATOM      4  CAM 4A2 d   1      -1.206  -4.704   6.449  0.00  0.00    -0.064 A 
ATOM      5  CAW 4A2 d   1      -1.754  -3.873   5.454  0.00  0.00     0.043 A 
ATOM      6  CAX 4A2 d   1      -2.799  -2.987   5.733  0.00  0.00    -0.036 A 
ATOM      7  CAY 4A2 d   1      -3.334  -2.933   7.013  0.00  0.00     0.104 A 
ATOM      8  NAZ 4A2 d   1      -4.301  -2.194   7.568  0.00  0.00    -0.062 NA
ATOM      9  CBA 4A2 d   1      -4.375  -2.549   8.871  0.00  0.00     0.708 A 
ATOM     10  NBB 4A2 d   1      -5.244  -2.079   9.766  0.00  0.00    -0.190 N 
ATOM     11  H7  4A2 d   1      -1.320  -5.251   8.537  0.00  0.00     0.087 H 
ATOM     12  H8  4A2 d   1      -0.396  -5.385   6.215  0.00  0.00     0.085 H 
ATOM     13  H9  4A2 d   1      -3.190  -2.344   4.952  0.00  0.00     0.088 H 
ATOM     14  H10 4A2 d   1      -5.324  -2.617  10.641  0.00  0.00     0.184 HD
ENDROOT
BRANCH   1  15
ATOM     15  CAH 4A2 d   1      -3.191  -4.174  10.378  0.00  0.00     0.042 C 
ATOM     16  H5  4A2 d   1      -4.114  -4.173  10.976  0.00  0.00     0.073 H 
ATOM     17  H6  4A2 d   1      -2.893  -5.211  10.166  0.00  0.00     0.073 H 
BRANCH  15  18
ATOM     18  CAI 4A2 d   1      -2.062  -3.487  11.200  0.00  0.00    -0.024 A 
ATOM     19  CAD 4A2 d   1      -1.378  -4.169  12.196  0.00  0.00     0.055 A 
ATOM     20  CAE 4A2 d   1      -0.358  -3.526  12.945  0.00  0.00    -0.068 A 
ATOM     21  CAF 4A2 d   1      -0.047  -2.211  12.669  0.00  0.00    -0.082 A 
ATOM     22  H1  4A2 d   1       0.170  -4.062  13.725  0.00  0.00     0.084 H 
ATOM     23  CAK 4A2 d   1      -0.744  -1.543  11.666  0.00  0.00    -0.082 A 
ATOM     24  H2  4A2 d   1       0.732  -1.703  13.227  0.00  0.00     0.083 H 
ATOM     25  CAJ 4A2 d   1      -1.745  -2.160  10.934  0.00  0.00    -0.074 A 
ATOM     26  H3  4A2 d   1      -0.496  -0.510  11.452  0.00  0.00     0.083 H 
ATOM     27  H4  4A2 d   1      -2.275  -1.614  10.162  0.00  0.00     0.084 H 
BRANCH  19  28
ATOM     28  CAC 4A2 d   1      -1.684  -5.642  12.505  0.00  0.00     0.418 C 
ATOM     29  FAA 4A2 d   1      -2.962  -5.818  12.699  0.00  0.00    -0.166 F 
ATOM     30  FAB 4A2 d   1      -1.029  -6.004  13.588  0.00  0.00    -0.166 F 
ATOM     31  FAG 4A2 d   1      -1.332  -6.450  11.495  0.00  0.00    -0.166 F 
ENDBRANCH  19  28
ENDBRANCH  15  18
ENDBRANCH   1  15
BRANCH  10  32
ATOM     32  CBC 4A2 d   1      -6.027  -0.995   9.672  0.00  0.00     0.052 A 
ATOM     33  CBD 4A2 d   1      -5.646   0.095   8.905  0.00  0.00    -0.017 A 
ATOM     34  CBE 4A2 d   1      -6.480   1.205   8.836  0.00  0.00     0.151 A 
ATOM     35  H11 4A2 d   1      -4.707   0.082   8.364  0.00  0.00     0.091 H 
ATOM     36  FBF 4A2 d   1      -6.124   2.271   8.117  0.00  0.00    -0.203 F 
ATOM     37  CAS 4A2 d   1      -7.671   1.272   9.544  0.00  0.00     0.106 A 
ATOM     38  CAR 4A2 d   1      -8.060   0.174  10.302  0.00  0.00    -0.046 A 
ATOM     39  CAQ 4A2 d   1      -7.237  -0.959  10.376  0.00  0.00    -0.054 A 
ATOM     40  H15 4A2 d   1      -9.002   0.194  10.838  0.00  0.00     0.088 H 
ATOM     41  H16 4A2 d   1      -7.538  -1.808  10.979  0.00  0.00     0.087 H 
BRANCH  37  42
ATOM     42  OAT 4A2 d   1      -8.447   2.388   9.450  0.00  0.00    -0.353 OA
BRANCH  42  43
ATOM     43  CAU 4A2 d   1      -9.417   2.572  10.522  0.00  0.00     0.011 C 
ATOM     44  H12 4A2 d   1      -9.986   3.497  10.347  0.00  0.00     0.066 H 
ATOM     45  H13 4A2 d   1      -8.890   2.642  11.485  0.00  0.00     0.066 H 
ATOM     46  H14 4A2 d   1     -10.107   1.716  10.543  0.00  0.00     0.066 H 
ENDBRANCH  42  43
ENDBRANCH  37  42
ENDBRANCH  10  32
BRANCH   5  47
ATOM     47  CAV 4A2 d   1      -1.209  -3.914   4.032  0.00  0.00     0.209 C 
ATOM     48  OAL 4A2 d   1      -1.916  -3.455   3.088  0.00  0.00    -0.644 OA
ATOM     49  OBG 4A2 d   1      -0.098  -4.427   3.811  0.00  0.00    -0.644 OA
ENDBRANCH   5  47
TORSDOF 7
