REMARK  12 active torsions:
REMARK  status: ('A' for Active; 'I' for Inactive)
REMARK       I    between atoms: C1_3  and  N_1 
REMARK    1  A    between atoms: N_1  and  CA_5 
REMARK    2  A    between atoms: CA1_12  and  C1_3 
REMARK    3  A    between atoms: CA_5  and  CB_6 
REMARK    4  A    between atoms: CA_5  and  CC_7 
REMARK    5  A    between atoms: CC_7  and  CD_8 
REMARK    6  A    between atoms: CC_7  and  OB1_14 
REMARK    7  A    between atoms: CB1_13  and  CA1_12 
REMARK    8  A    between atoms: CG1_17  and  CB1_13 
REMARK    9  A    between atoms: CE1_16  and  CD1_15 
REMARK   10  A    between atoms: CD1_15  and  CG1_17 
REMARK   11  A    between atoms: CE1_16  and  CZ1_19 
REMARK   12  A    between atoms: CE1_16  and  NZ1_20 
ROOT
ATOM      1  CA1 TFR d   1      -2.944   0.910  34.979  0.00  0.00     0.009 C 
ATOM      2  H7  TFR d   1      -3.204   1.694  35.705  0.00  0.00     0.047 H 
ATOM      3  H8  TFR d   1      -3.812   0.253  34.823  0.00  0.00     0.047 H 
ENDROOT
BRANCH   1   4
ATOM      4  C1  TFR d   1      -1.760   0.101  35.484  0.00  0.00     0.217 C 
ATOM      5  N   TFR d   1      -1.724  -1.210  35.179  0.00  0.00    -0.354 N 
ATOM      6  H1  TFR d   1      -2.470  -1.613  34.649  0.00  0.00     0.162 HD
ATOM      7  O1  TFR d   1      -0.882   0.661  36.129  0.00  0.00    -0.274 OA
BRANCH   5   8
ATOM      8  CA  TFR d   1      -0.700  -1.984  35.577  0.00  0.00     0.042 C 
ATOM      9  H2  TFR d   1      -0.041  -1.366  36.204  0.00  0.00     0.076 H 
BRANCH   8  10
ATOM     10  CB  TFR d   1       0.075  -2.404  34.356  0.00  0.00    -0.055 C 
ATOM     11  H3  TFR d   1       0.920  -3.040  34.659  0.00  0.00     0.030 H 
ATOM     12  H4  TFR d   1       0.455  -1.511  33.838  0.00  0.00     0.030 H 
ATOM     13  H5  TFR d   1      -0.584  -2.968  33.679  0.00  0.00     0.030 H 
ENDBRANCH   8  10
BRANCH   8  14
ATOM     14  CC  TFR d   1      -1.114  -3.179  36.417  0.00  0.00     0.148 C 
ATOM     15  H6  TFR d   1      -0.244  -3.839  36.547  0.00  0.00     0.100 H 
BRANCH  14  16
ATOM     16  CD  TFR d   1      -1.599  -2.734  37.809  0.00  0.00     0.414 C 
ATOM     17  FE  TFR d   1      -1.918  -3.757  38.612  0.00  0.00    -0.168 F 
ATOM     18  FF  TFR d   1      -0.611  -2.042  38.346  0.00  0.00    -0.168 F 
ATOM     19  FG  TFR d   1      -2.667  -1.959  37.697  0.00  0.00    -0.168 F 
ENDBRANCH  14  16
BRANCH  14  20
ATOM     20  OB1 TFR d   1      -2.146  -3.902  35.724  0.00  0.00    -0.385 OA
ATOM     21  H11 TFR d   1      -2.907  -3.343  35.620  0.00  0.00     0.210 HD
ENDBRANCH  14  20
ENDBRANCH   8  14
ENDBRANCH   5   8
ENDBRANCH   1   4
BRANCH   1  22
ATOM     22  CB1 TFR d   1      -2.517   1.541  33.653  0.00  0.00    -0.057 C 
ATOM     23  H9  TFR d   1      -2.266   0.733  32.950  0.00  0.00     0.033 H 
ATOM     24  H10 TFR d   1      -1.625   2.159  33.835  0.00  0.00     0.033 H 
BRANCH  22  25
ATOM     25  CG1 TFR d   1      -3.584   2.419  33.011  0.00  0.00    -0.062 C 
ATOM     26  H15 TFR d   1      -3.516   3.430  33.440  0.00  0.00     0.033 H 
ATOM     27  H16 TFR d   1      -4.574   1.993  33.231  0.00  0.00     0.033 H 
BRANCH  25  28
ATOM     28  CD1 TFR d   1      -3.416   2.515  31.495  0.00  0.00    -0.029 C 
ATOM     29  H12 TFR d   1      -2.526   3.122  31.275  0.00  0.00     0.036 H 
ATOM     30  H13 TFR d   1      -3.279   1.502  31.089  0.00  0.00     0.036 H 
BRANCH  28  31
ATOM     31  CE1 TFR d   1      -4.630   3.157  30.820  0.00  0.00     0.182 C 
ATOM     32  H14 TFR d   1      -5.021   3.956  31.468  0.00  0.00     0.101 H 
BRANCH  31  33
ATOM     33  CZ1 TFR d   1      -5.718   2.152  30.560  0.00  0.00     0.204 C 
ATOM     34  O   TFR d   1      -5.616   1.403  29.562  0.00  0.00    -0.646 OA
ATOM     35  OH1 TFR d   1      -6.690   2.102  31.343  0.00  0.00    -0.646 OA
ENDBRANCH  31  33
BRANCH  31  36
ATOM     36  NZ1 TFR d   1      -4.219   3.715  29.543  0.00  0.00    -0.065 N 
ATOM     37  H17 TFR d   1      -5.013   4.140  29.091  0.00  0.00     0.275 HD
ATOM     38  H18 TFR d   1      -3.853   2.981  28.958  0.00  0.00     0.275 HD
ATOM     39  H19 TFR d   1      -3.506   4.411  29.694  0.00  0.00     0.275 HD
ENDBRANCH  31  36
ENDBRANCH  28  31
ENDBRANCH  25  28
ENDBRANCH  22  25
ENDBRANCH   1  22
TORSDOF 12
