REMARK  8 active torsions:
REMARK  status: ('A' for Active; 'I' for Inactive)
REMARK    1  A    between atoms: C8_2  and  C7_3 
REMARK    2  A    between atoms: C8_2  and  O2_13 
REMARK    3  A    between atoms: C7_3  and  C6_4 
REMARK    4  A    between atoms: C3_7  and  N_8 
REMARK    5  A    between atoms: C1_10  and  C_11 
REMARK    6  A    between atoms: O2_13  and  C9_14 
REMARK    7  A    between atoms: C9_14  and  C10_15 
REMARK    8  A    between atoms: C10_15  and  C11_16 
ROOT
ATOM      1  O1  SV1 d   1       8.732  -4.676  48.433  0.00  0.00    -0.265 OA
ATOM      2  C8  SV1 d   1       8.957  -4.869  49.605  0.00  0.00     0.263 C 
ENDROOT
BRANCH   2   3
ATOM      3  C7  SV1 d   1      10.131  -5.643  50.145  0.00  0.00     0.041 C 
ATOM      4  H1  SV1 d   1      10.277  -6.547  49.536  0.00  0.00     0.055 H 
ATOM      5  H2  SV1 d   1       9.924  -5.932  51.186  0.00  0.00     0.055 H 
BRANCH   3   6
ATOM      6  C6  SV1 d   1      11.388  -4.811  50.104  0.00  0.00    -0.035 A 
ATOM      7  C5  SV1 d   1      11.264  -3.419  50.175  0.00  0.00    -0.073 A 
ATOM      8  C4  SV1 d   1      12.332  -2.573  49.950  0.00  0.00    -0.057 A 
ATOM      9  H3  SV1 d   1      10.297  -2.990  50.415  0.00  0.00     0.084 H 
ATOM     10  C3  SV1 d   1      13.596  -3.093  49.677  0.00  0.00     0.026 A 
ATOM     11  H4  SV1 d   1      12.187  -1.499  49.986  0.00  0.00     0.086 H 
ATOM     12  C2  SV1 d   1      13.743  -4.479  49.649  0.00  0.00    -0.044 A 
ATOM     13  C1  SV1 d   1      12.672  -5.353  49.867  0.00  0.00     0.010 A 
ATOM     14  H7  SV1 d   1      14.724  -4.896  49.451  0.00  0.00     0.088 H 
BRANCH  10  15
ATOM     15  N   SV1 d   1      14.671  -2.264  49.463  0.00  0.00    -0.399 N 
ATOM     16  H5  SV1 d   1      15.598  -2.665  49.262  0.00  0.00     0.156 HD
ATOM     17  H6  SV1 d   1      14.549  -1.242  49.503  0.00  0.00     0.156 HD
ENDBRANCH  10  15
BRANCH  13  18
ATOM     18  C   SV1 d   1      12.969  -6.832  49.772  0.00  0.00     0.119 C 
ATOM     19  O   SV1 d   1      12.154  -7.705  49.985  0.00  0.00    -0.301 OA
ATOM     20  H8  SV1 d   1      13.978  -7.133  49.495  0.00  0.00     0.151 H 
ENDBRANCH  13  18
ENDBRANCH   3   6
ENDBRANCH   2   3
BRANCH   2  21
ATOM     21  O2  SV1 d   1       8.201  -4.379  50.602  0.00  0.00    -0.321 OA
BRANCH  21  22
ATOM     22  C9  SV1 d   1       7.113  -3.472  50.265  0.00  0.00     0.032 C 
ATOM     23  H9  SV1 d   1       6.286  -3.608  50.977  0.00  0.00     0.075 H 
ATOM     24  H10 SV1 d   1       6.758  -3.686  49.246  0.00  0.00     0.075 H 
BRANCH  22  25
ATOM     25  C10 SV1 d   1       7.614  -2.046  50.338  0.00  0.00    -0.021 C 
ATOM     26  H11 SV1 d   1       8.423  -1.925  49.602  0.00  0.00     0.043 H 
ATOM     27  H12 SV1 d   1       8.009  -1.869  51.349  0.00  0.00     0.043 H 
BRANCH  25  28
ATOM     28  C11 SV1 d   1       6.551  -1.009  50.053  0.00  0.00    -0.056 A 
ATOM     29  C16 SV1 d   1       6.122  -0.767  48.755  0.00  0.00    -0.077 A 
ATOM     30  C15 SV1 d   1       5.150   0.187  48.494  0.00  0.00    -0.082 A 
ATOM     31  H13 SV1 d   1       6.552  -1.331  47.935  0.00  0.00     0.084 H 
ATOM     32  C14 SV1 d   1       4.598   0.915  49.525  0.00  0.00    -0.083 A 
ATOM     33  H14 SV1 d   1       4.823   0.360  47.475  0.00  0.00     0.083 H 
ATOM     34  C13 SV1 d   1       5.013   0.687  50.817  0.00  0.00    -0.082 A 
ATOM     35  H15 SV1 d   1       3.841   1.663  49.320  0.00  0.00     0.083 H 
ATOM     36  C12 SV1 d   1       5.983  -0.269  51.081  0.00  0.00    -0.077 A 
ATOM     37  H16 SV1 d   1       4.580   1.256  51.632  0.00  0.00     0.083 H 
ATOM     38  H17 SV1 d   1       6.301  -0.440  52.103  0.00  0.00     0.084 H 
ENDBRANCH  25  28
ENDBRANCH  22  25
ENDBRANCH  21  22
ENDBRANCH   2  21
TORSDOF 8
