REMARK  8 active torsions:
REMARK  status: ('A' for Active; 'I' for Inactive)
REMARK    1  A    between atoms: C1_1  and  C2_2 
REMARK    2  A    between atoms: C2_2  and  N4_3 
REMARK    3  A    between atoms: C2_2  and  C31_29 
REMARK       I    between atoms: N4_3  and  C5_4 
REMARK    4  A    between atoms: C5_4  and  C7_6 
REMARK    5  A    between atoms: C13_12  and  O16_15 
REMARK    6  A    between atoms: O16_15  and  C17_16 
REMARK    7  A    between atoms: C20_19  and  N22_20 
REMARK       I    between atoms: N22_20  and  C23_21 
REMARK    8  A    between atoms: C23_21  and  C24_22 
ROOT
ATOM      1  C7  1NX d   1      -8.887  -9.643   6.227  0.00  0.00     0.080 A 
ATOM      2  C8  1NX d   1      -9.063  -9.701   4.873  0.00  0.00    -0.004 A 
ATOM      3  N9  1NX d   1      -9.998  -8.796   4.489  0.00  0.00    -0.348 N 
ATOM      4  C10 1NX d   1     -10.476  -8.107   5.581  0.00  0.00     0.157 A 
ATOM      5  N11 1NX d   1     -11.376  -7.141   5.752  0.00  0.00    -0.237 NA
ATOM      6  C12 1NX d   1     -11.630  -6.668   6.967  0.00  0.00     0.056 A 
ATOM      7  C13 1NX d   1     -10.970  -7.161   8.099  0.00  0.00     0.188 A 
ATOM      8  N14 1NX d   1     -10.065  -8.121   7.927  0.00  0.00    -0.218 NA
ATOM      9  C15 1NX d   1      -9.806  -8.606   6.713  0.00  0.00     0.122 A 
ATOM     10  H6  1NX d   1      -8.531 -10.374   4.202  0.00  0.00     0.113 H 
ATOM     11  H7  1NX d   1     -10.307  -8.646   3.518  0.00  0.00     0.167 HD
ATOM     12  H8  1NX d   1     -12.366  -5.881   7.085  0.00  0.00     0.121 H 
ENDROOT
BRANCH   7  13
ATOM     13  O16 1NX d   1     -11.290  -6.623   9.318  0.00  0.00    -0.291 OA
BRANCH  13  14
ATOM     14  C17 1NX d   1     -10.891  -7.048  10.562  0.00  0.00     0.078 A 
ATOM     15  C18 1NX d   1     -10.807  -6.087  11.572  0.00  0.00    -0.042 A 
ATOM     16  C19 1NX d   1     -10.418  -6.433  12.864  0.00  0.00    -0.026 A 
ATOM     17  H9  1NX d   1     -11.049  -5.055  11.347  0.00  0.00     0.088 H 
ATOM     18  C20 1NX d   1     -10.246  -5.587  14.111  0.00  0.00     0.038 C 
ATOM     19  C28 1NX d   1     -10.117  -7.755  13.163  0.00  0.00    -0.050 A 
ATOM     20  C26 1NX d   1      -9.359  -6.437  15.045  0.00  0.00    -0.038 C 
ATOM     21  H10 1NX d   1     -11.221  -5.383  14.578  0.00  0.00     0.080 H 
ATOM     22  C27 1NX d   1      -9.724  -7.874  14.618  0.00  0.00    -0.038 C 
ATOM     23  H15 1NX d   1      -9.607  -6.259  16.102  0.00  0.00     0.036 H 
ATOM     24  H16 1NX d   1      -8.291  -6.230  14.879  0.00  0.00     0.036 H 
ATOM     25  H17 1NX d   1     -10.565  -8.255  15.217  0.00  0.00     0.040 H 
ATOM     26  H18 1NX d   1      -8.859  -8.544  14.732  0.00  0.00     0.040 H 
ATOM     27  C29 1NX d   1     -10.204  -8.722  12.169  0.00  0.00    -0.074 A 
ATOM     28  C30 1NX d   1     -10.593  -8.380  10.883  0.00  0.00    -0.050 A 
ATOM     29  H19 1NX d   1      -9.966  -9.754  12.401  0.00  0.00     0.084 H 
ATOM     30  H20 1NX d   1     -10.667  -9.147  10.121  0.00  0.00     0.087 H 
BRANCH  18  31
ATOM     31  N22 1NX d   1      -9.574  -4.317  13.798  0.00  0.00    -0.353 N 
ATOM     32  C23 1NX d   1     -10.120  -3.098  14.028  0.00  0.00     0.214 C 
ATOM     33  O25 1NX d   1     -11.225  -2.956  14.513  0.00  0.00    -0.274 OA
ATOM     34  H11 1NX d   1      -8.661  -4.355  13.392  0.00  0.00     0.163 HD
BRANCH  32  35
ATOM     35  C24 1NX d   1      -9.324  -1.872  13.665  0.00  0.00    -0.003 C 
ATOM     36  H12 1NX d   1      -9.905  -0.971  13.913  0.00  0.00     0.040 H 
ATOM     37  H13 1NX d   1      -9.106  -1.882  12.587  0.00  0.00     0.040 H 
ATOM     38  H14 1NX d   1      -8.380  -1.867  14.230  0.00  0.00     0.040 H 
ENDBRANCH  32  35
ENDBRANCH  18  31
ENDBRANCH  13  14
ENDBRANCH   7  13
BRANCH   1  39
ATOM     39  C5  1NX d   1      -7.981 -10.451   7.059  0.00  0.00     0.255 C 
ATOM     40  N4  1NX d   1      -8.045 -10.325   8.415  0.00  0.00    -0.352 N 
ATOM     41  H5  1NX d   1      -8.702  -9.673   8.793  0.00  0.00     0.163 HD
ATOM     42  O6  1NX d   1      -7.207 -11.216   6.509  0.00  0.00    -0.268 OA
BRANCH  40  43
ATOM     43  C2  1NX d   1      -7.215 -11.082   9.355  0.00  0.00     0.012 C 
ATOM     44  H4  1NX d   1      -6.499 -11.717   8.813  0.00  0.00     0.072 H 
BRANCH  43  45
ATOM     45  C1  1NX d   1      -6.465 -10.105  10.256  0.00  0.00    -0.057 C 
ATOM     46  H1  1NX d   1      -5.839 -10.667  10.965  0.00  0.00     0.030 H 
ATOM     47  H2  1NX d   1      -7.188  -9.490  10.812  0.00  0.00     0.030 H 
ATOM     48  H3  1NX d   1      -5.827  -9.454   9.640  0.00  0.00     0.030 H 
ENDBRANCH  43  45
BRANCH  43  49
ATOM     49  C31 1NX d   1      -8.162 -11.943  10.193  0.00  0.00    -0.035 A 
ATOM     50  C32 1NX d   1      -8.878 -13.089   9.479  0.00  0.00    -0.059 A 
ATOM     51  C33 1NX d   1      -7.764 -13.390  10.482  0.00  0.00    -0.059 A 
ATOM     52  H22 1NX d   1      -8.711 -13.258   8.405  0.00  0.00     0.033 H 
ATOM     53  H23 1NX d   1      -9.922 -13.326   9.730  0.00  0.00     0.033 H 
ATOM     54  H24 1NX d   1      -8.007 -13.844  11.454  0.00  0.00     0.033 H 
ATOM     55  H25 1NX d   1      -6.796 -13.775  10.130  0.00  0.00     0.033 H 
ATOM     56  H21 1NX d   1      -8.674 -11.335  10.954  0.00  0.00     0.043 H 
ENDBRANCH  43  49
ENDBRANCH  40  43
ENDBRANCH   1  39
TORSDOF 8
