REMARK WARNING: 32 MAX_TORS EXCEEDED!!!
REMARK  34 active torsions:
REMARK  status: ('A' for Active; 'I' for Inactive)
REMARK    1  A    between atoms: N_1  and  CA_2 
REMARK    2  A    between atoms: CA_2  and  C_3 
REMARK       I    between atoms: C_3  and  N_5 
REMARK    3  A    between atoms: N_5  and  CA_6 
REMARK    4  A    between atoms: CA_6  and  C_7 
REMARK       I    between atoms: C_7  and  N_9 
REMARK    5  A    between atoms: N_9  and  CA_10 
REMARK    6  A    between atoms: CA_10  and  C_11 
REMARK    7  A    between atoms: CA_10  and  CB_13 
REMARK       I    between atoms: C_11  and  N_20 
REMARK    8  A    between atoms: CB_13  and  CG_14 
REMARK    9  A    between atoms: CG_14  and  CD_15 
REMARK   10  A    between atoms: CD_15  and  NE_16 
REMARK       I    between atoms: NE_16  and  CZ_17 
REMARK       I    between atoms: CZ_17  and  NH1_18 
REMARK       I    between atoms: CZ_17  and  NH2_19 
REMARK   11  A    between atoms: N_20  and  CA_21 
REMARK   12  A    between atoms: CA_21  and  C_22 
REMARK   13  A    between atoms: CA_21  and  CB_24 
REMARK       I    between atoms: C_22  and  N_31 
REMARK   14  A    between atoms: CB_24  and  CG_25 
REMARK   15  A    between atoms: CG_25  and  CD_26 
REMARK   16  A    between atoms: CD_26  and  NE_27 
REMARK       I    between atoms: NE_27  and  CZ_28 
REMARK       I    between atoms: CZ_28  and  NH1_29 
REMARK   17  A    between atoms: CA_32  and  C_33 
REMARK       I    between atoms: C_33  and  N_38 
REMARK   18  A    between atoms: N_38  and  CA_39 
REMARK   19  A    between atoms: CA_39  and  C_40 
REMARK   20  A    between atoms: CA_39  and  CB_42 
REMARK       I    between atoms: C_40  and  N_50 
REMARK   21  A    between atoms: CB_42  and  CG_43 
REMARK   22  A    between atoms: CZ_48  and  OH_49 
REMARK   23  A    between atoms: N_50  and  CA_51 
REMARK   24  A    between atoms: CA_51  and  C_52 
REMARK   25  A    between atoms: CA_51  and  CB_54 
REMARK       I    between atoms: C_52  and  N_58 
REMARK   26  A    between atoms: CB_54  and  CG1_55 
REMARK   27  A    between atoms: CB_54  and  CG2_56 
REMARK   28  A    between atoms: CG1_55  and  CD1_57 
REMARK   29  A    between atoms: N_58  and  CA_59 
REMARK   30  A    between atoms: CA_59  and  C_60 
REMARK   31  A    between atoms: CA_59  and  CB_62 
REMARK   32  A    between atoms: CB_62  and  CG_63 
REMARK   33  A    between atoms: CG_63  and  CD1_64 
REMARK   34  A    between atoms: CG_63  and  CD2_65 
ROOT
ATOM      1  C   ARG d   1     -12.562 -18.793 -38.600  0.00  0.00     0.243 C 
ATOM      2  O   ARG d   1     -13.517 -18.985 -39.354  0.00  0.00    -0.271 OA
ATOM      3  N   PRO d   1     -12.713 -18.413 -37.322  0.00  0.00    -0.337 N 
ATOM      4  CA  PRO d   1     -14.033 -18.093 -36.770  0.00  0.00     0.091 C 
ATOM      5  CB  PRO d   1     -13.709 -17.616 -35.351  0.00  0.00    -0.036 C 
ATOM      6  CG  PRO d   1     -12.432 -18.300 -35.012  0.00  0.00    -0.048 C 
ATOM      7  CD  PRO d   1     -11.657 -18.355 -36.296  0.00  0.00    -0.001 C 
ATOM      8  H   PRO d   1     -14.683 -18.980 -36.756  0.00  0.00     0.087 H 
ATOM      9  H   PRO d   1     -14.505 -17.909 -34.651  0.00  0.00     0.036 H 
ATOM     10  H   PRO d   1     -13.583 -16.523 -35.327  0.00  0.00     0.036 H 
ATOM     11  H   PRO d   1     -12.627 -19.315 -34.636  0.00  0.00     0.035 H 
ATOM     12  H   PRO d   1     -11.879 -17.728 -34.253  0.00  0.00     0.035 H 
ATOM     13  H   PRO d   1     -11.035 -17.456 -36.420  0.00  0.00     0.064 H 
ATOM     14  H   PRO d   1     -11.020 -19.251 -36.334  0.00  0.00     0.064 H 
ENDROOT
BRANCH   1  15
ATOM     15  CA  ARG d   1     -11.138 -19.004 -39.102  0.00  0.00     0.089 C 
ATOM     16  H   ARG d   1     -10.473 -19.128 -38.234  0.00  0.00     0.087 H 
BRANCH  15  17
ATOM     17  N   ARG d   1     -11.086 -20.221 -39.903  0.00  0.00    -0.346 N 
ATOM     18  C   ARG d   1     -10.346 -21.265 -39.545  0.00  0.00     0.241 C 
ATOM     19  O   ARG d   1      -9.547 -21.234 -38.609  0.00  0.00    -0.271 OA
ATOM     20  H   ARG d   1     -11.622 -20.271 -40.745  0.00  0.00     0.163 HD
BRANCH  18  21
ATOM     21  CA  ARG d   1     -10.532 -22.532 -40.372  0.00  0.00     0.089 C 
ATOM     22  H   ARG d   1     -10.841 -22.245 -41.388  0.00  0.00     0.087 H 
BRANCH  21  23
ATOM     23  N   ARG d   1      -9.307 -23.315 -40.468  0.00  0.00    -0.346 N 
ATOM     24  C   GLY d   1      -8.329 -22.991 -41.307  0.00  0.00     0.236 C 
ATOM     25  O   GLY d   1      -8.355 -21.981 -42.011  0.00  0.00    -0.272 OA
ATOM     26  H   ARG d   1      -9.199 -24.120 -39.885  0.00  0.00     0.163 HD
BRANCH  24  27
ATOM     27  CA  GLY d   1      -7.151 -23.944 -41.351  0.00  0.00     0.069 C 
ATOM     28  H   GLY d   1      -7.052 -24.419 -40.364  0.00  0.00     0.078 H 
ATOM     29  H   GLY d   1      -7.355 -24.714 -42.110  0.00  0.00     0.078 H 
BRANCH  27  30
ATOM     30  N   GLY d   1      -5.893 -23.301 -41.678  0.00  0.00    -0.351 N 
ATOM     31  C   GLY d   1      -4.732 -23.924 -41.505  0.00  0.00     0.243 C 
ATOM     32  O   GLY d   1      -4.648 -25.072 -41.068  0.00  0.00    -0.272 OA
ATOM     33  H   GLY d   1      -5.899 -22.369 -42.041  0.00  0.00     0.163 HD
BRANCH  31  34
ATOM     34  CA  GLY d   1      -3.487 -23.144 -41.876  0.00  0.00     0.152 C 
ATOM     35  H   GLY d   1      -3.279 -23.298 -42.945  0.00  0.00     0.090 H 
ATOM     36  H   GLY d   1      -3.670 -22.076 -41.688  0.00  0.00     0.090 H 
BRANCH  34  37
ATOM     37  N   GLY d   1      -2.328 -23.561 -41.110  0.00  0.00    -0.071 N 
ATOM     38  H   GLY d   1      -1.527 -23.017 -41.390  0.00  0.00     0.274 HD
ATOM     39  H   GLY d   1      -2.147 -24.538 -41.280  0.00  0.00     0.274 HD
ATOM     40  H   GLY d   1      -2.505 -23.418 -40.128  0.00  0.00     0.274 HD
ENDBRANCH  34  37
ENDBRANCH  31  34
ENDBRANCH  27  30
ENDBRANCH  24  27
ENDBRANCH  21  23
BRANCH  21  41
ATOM     41  CB  ARG d   1     -11.635 -23.381 -39.734  0.00  0.00    -0.036 C 
ATOM     42  H   ARG d   1     -12.568 -22.799 -39.751  0.00  0.00     0.036 H 
ATOM     43  H   ARG d   1     -11.349 -23.586 -38.692  0.00  0.00     0.036 H 
BRANCH  41  44
ATOM     44  CG  ARG d   1     -11.895 -24.709 -40.422  0.00  0.00    -0.048 C 
ATOM     45  H   ARG d   1     -10.937 -25.229 -40.573  0.00  0.00     0.035 H 
ATOM     46  H   ARG d   1     -12.368 -24.521 -41.397  0.00  0.00     0.035 H 
BRANCH  44  47
ATOM     47  CD  ARG d   1     -12.814 -25.592 -39.585  0.00  0.00     0.009 C 
ATOM     48  H   ARG d   1     -12.289 -25.863 -38.657  0.00  0.00     0.064 H 
ATOM     49  H   ARG d   1     -13.040 -26.503 -40.158  0.00  0.00     0.064 H 
BRANCH  47  50
ATOM     50  NE  ARG d   1     -14.073 -24.941 -39.232  0.00  0.00    -0.227 N 
ATOM     51  CZ  ARG d   1     -15.022 -25.509 -38.494  0.00  0.00     0.665 C 
ATOM     52  NH1 ARG d   1     -14.852 -26.737 -38.025  0.00  0.00    -0.235 N 
ATOM     53  NH2 ARG d   1     -16.139 -24.849 -38.220  0.00  0.00    -0.235 N 
ATOM     54  H   ARG d   1     -15.588 -27.176 -37.453  0.00  0.00     0.174 HD
ATOM     55  H   ARG d   1     -13.984 -27.252 -38.232  0.00  0.00     0.174 HD
ATOM     56  H   ARG d   1     -16.275 -23.895 -38.582  0.00  0.00     0.174 HD
ATOM     57  H   ARG d   1     -16.870 -25.291 -37.645  0.00  0.00     0.174 HD
ATOM     58  H   ARG d   1     -14.236 -23.984 -39.576  0.00  0.00     0.177 HD
ENDBRANCH  47  50
ENDBRANCH  44  47
ENDBRANCH  41  44
ENDBRANCH  21  41
ENDBRANCH  18  21
ENDBRANCH  15  17
BRANCH  15  59
ATOM     59  CB  ARG d   1     -10.662 -17.787 -39.900  0.00  0.00    -0.036 C 
ATOM     60  H   ARG d   1     -11.174 -17.786 -40.874  0.00  0.00     0.036 H 
ATOM     61  H   ARG d   1      -9.577 -17.874 -40.056  0.00  0.00     0.036 H 
BRANCH  59  62
ATOM     62  CG  ARG d   1     -10.946 -16.462 -39.202  0.00  0.00    -0.048 C 
ATOM     63  H   ARG d   1     -10.510 -16.496 -38.193  0.00  0.00     0.035 H 
ATOM     64  H   ARG d   1     -12.036 -16.331 -39.127  0.00  0.00     0.035 H 
BRANCH  62  65
ATOM     65  CD  ARG d   1     -10.365 -15.274 -39.941  0.00  0.00     0.009 C 
ATOM     66  H   ARG d   1     -10.930 -14.371 -39.667  0.00  0.00     0.064 H 
ATOM     67  H   ARG d   1     -10.454 -15.448 -41.024  0.00  0.00     0.064 H 
BRANCH  65  68
ATOM     68  NE  ARG d   1      -8.959 -15.074 -39.606  0.00  0.00    -0.227 N 
ATOM     69  CZ  ARG d   1      -8.291 -13.948 -39.831  0.00  0.00     0.665 C 
ATOM     70  NH1 ARG d   1      -8.900 -12.914 -40.394  0.00  0.00    -0.235 N 
ATOM     71  NH2 ARG d   1      -7.013 -13.856 -39.497  0.00  0.00    -0.235 N 
ATOM     72  H   ARG d   1      -8.380 -12.042 -40.568  0.00  0.00     0.174 HD
ATOM     73  H   ARG d   1      -9.893 -12.982 -40.658  0.00  0.00     0.174 HD
ATOM     74  H   ARG d   1      -6.536 -14.657 -39.059  0.00  0.00     0.174 HD
ATOM     75  H   ARG d   1      -6.496 -12.983 -39.675  0.00  0.00     0.174 HD
ATOM     76  H   ARG d   1      -8.452 -15.856 -39.167  0.00  0.00     0.177 HD
ENDBRANCH  65  68
ENDBRANCH  62  65
ENDBRANCH  59  62
ENDBRANCH  15  59
ENDBRANCH   1  15
BRANCH   4  77
ATOM     77  C   PRO d   1     -14.706 -16.973 -37.558  0.00  0.00     0.241 C 
ATOM     78  O   PRO d   1     -14.027 -16.052 -38.010  0.00  0.00    -0.271 OA
ATOM     79  N   TYR d   1     -16.020 -17.066 -37.740  0.00  0.00    -0.346 N 
ATOM     80  H   TYR d   1     -16.504 -17.878 -37.412  0.00  0.00     0.163 HD
BRANCH  79  81
ATOM     81  CA  TYR d   1     -16.770 -16.009 -38.408  0.00  0.00     0.093 C 
ATOM     82  H   TYR d   1     -16.055 -15.330 -38.895  0.00  0.00     0.088 H 
BRANCH  81  83
ATOM     83  C   TYR d   1     -17.570 -15.214 -37.382  0.00  0.00     0.241 C 
ATOM     84  O   TYR d   1     -18.124 -14.159 -37.688  0.00  0.00    -0.271 OA
ATOM     85  N   ILE d   1     -17.620 -15.735 -36.159  0.00  0.00    -0.346 N 
ATOM     86  H   ILE d   1     -17.126 -16.585 -35.976  0.00  0.00     0.163 HD
BRANCH  85  87
ATOM     87  CA  ILE d   1     -18.370 -15.109 -35.077  0.00  0.00     0.092 C 
ATOM     88  H   ILE d   1     -19.195 -14.533 -35.521  0.00  0.00     0.088 H 
BRANCH  87  89
ATOM     89  C   ILE d   1     -17.493 -14.150 -34.274  0.00  0.00     0.241 C 
ATOM     90  O   ILE d   1     -16.336 -14.449 -33.980  0.00  0.00    -0.271 OA
ATOM     91  N   LEU d   1     -18.058 -12.999 -33.920  0.00  0.00    -0.345 N 
ATOM     92  H   LEU d   1     -19.009 -12.827 -34.179  0.00  0.00     0.163 HD
BRANCH  91  93
ATOM     93  CA  LEU d   1     -17.338 -11.981 -33.168  0.00  0.00     0.096 C 
ATOM     94  H   LEU d   1     -16.346 -12.374 -32.899  0.00  0.00     0.089 H 
BRANCH  93  95
ATOM     95  C   LEU d   1     -18.096 -11.639 -31.890  0.00  0.00     0.196 C 
ATOM     96  O   LEU d   1     -17.504 -11.278 -30.872  0.00  0.00    -0.646 OA
ATOM     97  OXT LEU d   1     -19.324 -11.725 -31.841  0.00  0.00    -0.646 OA
ENDBRANCH  93  95
BRANCH  93  98
ATOM     98  CB  LEU d   1     -17.157 -10.722 -34.018  0.00  0.00    -0.034 C 
ATOM     99  H   LEU d   1     -18.158 -10.321 -34.237  0.00  0.00     0.037 H 
ATOM    100  H   LEU d   1     -16.669 -11.021 -34.957  0.00  0.00     0.037 H 
BRANCH  98 101
ATOM    101  CG  LEU d   1     -16.328  -9.591 -33.404  0.00  0.00    -0.059 C 
ATOM    102  H   LEU d   1     -16.799  -9.302 -32.453  0.00  0.00     0.038 H 
BRANCH 101 103
ATOM    103  CD1 LEU d   1     -14.912 -10.057 -33.105  0.00  0.00    -0.073 C 
ATOM    104  H   LEU d   1     -14.338  -9.228 -32.666  0.00  0.00     0.028 H 
ATOM    105  H   LEU d   1     -14.429 -10.383 -34.038  0.00  0.00     0.028 H 
ATOM    106  H   LEU d   1     -14.944 -10.897 -32.395  0.00  0.00     0.028 H 
ENDBRANCH 101 103
BRANCH 101 107
ATOM    107  CD2 LEU d   1     -16.315  -8.373 -34.311  0.00  0.00    -0.073 C 
ATOM    108  H   LEU d   1     -17.349  -8.055 -34.513  0.00  0.00     0.028 H 
ATOM    109  H   LEU d   1     -15.818  -8.627 -35.259  0.00  0.00     0.028 H 
ATOM    110  H   LEU d   1     -15.769  -7.555 -33.818  0.00  0.00     0.028 H 
ENDBRANCH 101 107
ENDBRANCH  98 101
ENDBRANCH  93  98
ENDBRANCH  91  93
ENDBRANCH  87  89
BRANCH  87 111
ATOM    111  CB  ILE d   1     -18.972 -16.180 -34.136  0.00  0.00    -0.030 C 
ATOM    112  H   ILE d   1     -18.165 -16.858 -33.823  0.00  0.00     0.043 H 
BRANCH 111 113
ATOM    113  CG1 ILE d   1     -20.033 -16.996 -34.875  0.00  0.00    -0.063 C 
ATOM    114  H   ILE d   1     -19.609 -17.325 -35.835  0.00  0.00     0.033 H 
ATOM    115  H   ILE d   1     -20.901 -16.347 -35.060  0.00  0.00     0.033 H 
BRANCH 113 116
ATOM    116  CD1 ILE d   1     -20.506 -18.219 -34.120  0.00  0.00    -0.076 C 
ATOM    117  H   ILE d   1     -21.264 -18.748 -34.717  0.00  0.00     0.027 H 
ATOM    118  H   ILE d   1     -20.945 -17.910 -33.160  0.00  0.00     0.027 H 
ATOM    119  H   ILE d   1     -19.653 -18.888 -33.935  0.00  0.00     0.027 H 
ENDBRANCH 113 116
ENDBRANCH 111 113
BRANCH 111 120
ATOM    120  CG2 ILE d   1     -19.574 -15.545 -32.890  0.00  0.00    -0.071 C 
ATOM    121  H   ILE d   1     -18.802 -14.961 -32.367  0.00  0.00     0.028 H 
ATOM    122  H   ILE d   1     -19.952 -16.334 -32.223  0.00  0.00     0.028 H 
ATOM    123  H   ILE d   1     -20.402 -14.882 -33.180  0.00  0.00     0.028 H 
ENDBRANCH 111 120
ENDBRANCH  87 111
ENDBRANCH  85  87
ENDBRANCH  81  83
BRANCH  81 124
ATOM    124  CB  TYR d   1     -17.697 -16.584 -39.486  0.00  0.00    -0.014 C 
ATOM    125  H   TYR d   1     -17.072 -17.007 -40.286  0.00  0.00     0.043 H 
ATOM    126  H   TYR d   1     -18.304 -15.761 -39.891  0.00  0.00     0.043 H 
BRANCH 124 127
ATOM    127  CG  TYR d   1     -18.635 -17.667 -38.996  0.00  0.00    -0.056 A 
ATOM    128  CD1 TYR d   1     -19.882 -17.347 -38.471  0.00  0.00    -0.074 A 
ATOM    129  CE1 TYR d   1     -20.745 -18.329 -38.022  0.00  0.00    -0.051 A 
ATOM    130  H   TYR d   1     -20.183 -16.307 -38.413  0.00  0.00     0.084 H 
ATOM    131  CZ  TYR d   1     -20.368 -19.654 -38.098  0.00  0.00     0.065 A 
ATOM    132  H   TYR d   1     -21.712 -18.060 -37.613  0.00  0.00     0.087 H 
ATOM    133  CE2 TYR d   1     -19.137 -20.000 -38.619  0.00  0.00    -0.051 A 
ATOM    134  CD2 TYR d   1     -18.280 -19.008 -39.066  0.00  0.00    -0.074 A 
ATOM    135  H   TYR d   1     -18.843 -21.042 -38.678  0.00  0.00     0.087 H 
ATOM    136  H   TYR d   1     -17.316 -19.283 -39.478  0.00  0.00     0.084 H 
BRANCH 131 137
ATOM    137  OH  TYR d   1     -21.225 -20.636 -37.652  0.00  0.00    -0.361 OA
ATOM    138  H   TYR d   1     -22.022 -20.235 -37.327  0.00  0.00     0.217 HD
ENDBRANCH 131 137
ENDBRANCH 124 127
ENDBRANCH  81 124
ENDBRANCH  79  81
ENDBRANCH   4  77
TORSDOF 34
