REMARK  7 active torsions:
REMARK  status: ('A' for Active; 'I' for Inactive)
REMARK    1  A    between atoms: C_1  and  N_2 
REMARK    2  A    between atoms: C1_4  and  C_1 
REMARK    3  A    between atoms: C_1  and  C17_24 
REMARK    4  A    between atoms: N1_5  and  C1_4 
REMARK    5  A    between atoms: C2_6  and  N1_5 
REMARK    6  A    between atoms: C12_19  and  C3_8 
REMARK    7  A    between atoms: C17_24  and  C18_25 
ROOT
ATOM      1  S   C58 d   1      16.700  18.079   8.565  0.00  0.00    -0.073 SA
ATOM      2  C2  C58 d   1      17.348  17.215  12.346  0.00  0.00     0.139 A 
ATOM      3  N2  C58 d   1      17.465  18.440  12.885  0.00  0.00    -0.210 NA
ATOM      4  C3  C58 d   1      17.365  19.522  12.105  0.00  0.00     0.163 A 
ATOM      5  N3  C58 d   1      17.111  19.520  10.790  0.00  0.00    -0.220 NA
ATOM      6  C4  C58 d   1      17.001  18.301  10.265  0.00  0.00     0.115 A 
ATOM      7  C5  C58 d   1      17.122  17.087  10.942  0.00  0.00     0.053 A 
ATOM      8  C6  C58 d   1      16.989  15.954  10.030  0.00  0.00    -0.028 A 
ATOM      9  C7  C58 d   1      16.757  16.350   8.759  0.00  0.00    -0.008 A 
ATOM     10  C8  C58 d   1      16.550  15.451   7.579  0.00  0.00    -0.034 C 
ATOM     11  C9  C58 d   1      16.992  14.039   7.911  0.00  0.00    -0.061 C 
ATOM     12  C10 C58 d   1      16.536  13.628   9.294  0.00  0.00    -0.061 C 
ATOM     13  C11 C58 d   1      17.125  14.505  10.384  0.00  0.00    -0.039 C 
ATOM     14  H8  C58 d   1      17.140  15.826   6.729  0.00  0.00     0.040 H 
ATOM     15  H9  C58 d   1      15.483  15.444   7.311  0.00  0.00     0.040 H 
ATOM     16  H10 C58 d   1      18.090  13.988   7.866  0.00  0.00     0.033 H 
ATOM     17  H11 C58 d   1      16.562  13.347   7.172  0.00  0.00     0.033 H 
ATOM     18  H12 C58 d   1      16.845  12.588   9.473  0.00  0.00     0.033 H 
ATOM     19  H13 C58 d   1      15.439  13.698   9.339  0.00  0.00     0.033 H 
ATOM     20  H14 C58 d   1      16.594  14.313  11.328  0.00  0.00     0.040 H 
ATOM     21  H15 C58 d   1      18.191  14.262  10.506  0.00  0.00     0.040 H 
ENDROOT
BRANCH   2  22
ATOM     22  N1  C58 d   1      17.415  16.150  13.155  0.00  0.00    -0.372 N 
ATOM     23  H7  C58 d   1      17.374  15.205  12.748  0.00  0.00     0.161 HD
BRANCH  22  24
ATOM     24  C1  C58 d   1      17.544  16.300  14.598  0.00  0.00     0.021 C 
ATOM     25  H5  C58 d   1      17.807  15.326  15.037  0.00  0.00     0.067 H 
ATOM     26  H6  C58 d   1      18.342  17.026  14.812  0.00  0.00     0.067 H 
BRANCH  24  27
ATOM     27  C   C58 d   1      16.210  16.805  15.243  0.00  0.00     0.118 C 
ATOM     28  H1  C58 d   1      16.011  17.835  14.913  0.00  0.00     0.086 H 
BRANCH  27  29
ATOM     29  N   C58 d   1      15.099  15.950  14.799  0.00  0.00    -0.073 N 
ATOM     30  H2  C58 d   1      15.026  15.989  13.794  0.00  0.00     0.274 HD
ATOM     31  H3  C58 d   1      14.239  16.276  15.211  0.00  0.00     0.274 HD
ATOM     32  H4  C58 d   1      15.271  14.999  15.087  0.00  0.00     0.274 HD
ENDBRANCH  27  29
BRANCH  27  33
ATOM     33  C17 C58 d   1      16.390  16.801  16.779  0.00  0.00    -0.013 C 
ATOM     34  H20 C58 d   1      16.657  15.785  17.106  0.00  0.00     0.043 H 
ATOM     35  H21 C58 d   1      15.443  17.101  17.251  0.00  0.00     0.043 H 
BRANCH  33  36
ATOM     36  C18 C58 d   1      17.476  17.756  17.207  0.00  0.00    -0.056 A 
ATOM     37  C19 C58 d   1      18.800  17.354  17.248  0.00  0.00    -0.077 A 
ATOM     38  C20 C58 d   1      19.796  18.232  17.642  0.00  0.00    -0.082 A 
ATOM     39  H22 C58 d   1      19.060  16.340  16.968  0.00  0.00     0.084 H 
ATOM     40  C21 C58 d   1      19.479  19.522  17.998  0.00  0.00    -0.083 A 
ATOM     41  H23 C58 d   1      20.828  17.902  17.670  0.00  0.00     0.083 H 
ATOM     42  C22 C58 d   1      18.168  19.936  17.962  0.00  0.00    -0.082 A 
ATOM     43  H24 C58 d   1      20.259  20.209  18.305  0.00  0.00     0.083 H 
ATOM     44  C23 C58 d   1      17.172  19.059  17.570  0.00  0.00    -0.077 A 
ATOM     45  H25 C58 d   1      17.914  20.952  18.241  0.00  0.00     0.083 H 
ATOM     46  H26 C58 d   1      16.142  19.395  17.547  0.00  0.00     0.084 H 
ENDBRANCH  33  36
ENDBRANCH  27  33
ENDBRANCH  24  27
ENDBRANCH  22  24
ENDBRANCH   2  22
BRANCH   4  47
ATOM     47  C12 C58 d   1      17.631  20.838  12.739  0.00  0.00     0.015 A 
ATOM     48  C13 C58 d   1      17.565  22.019  12.009  0.00  0.00    -0.052 A 
ATOM     49  C14 C58 d   1      17.858  23.214  12.634  0.00  0.00     0.003 A 
ATOM     50  H16 C58 d   1      17.287  22.002  10.961  0.00  0.00     0.087 H 
ATOM     51  N4  C58 d   1      18.201  23.314  13.920  0.00  0.00    -0.273 NA
ATOM     52  H17 C58 d   1      17.807  24.124  12.047  0.00  0.00     0.114 H 
ATOM     53  C15 C58 d   1      18.254  22.177  14.617  0.00  0.00     0.003 A 
ATOM     54  C16 C58 d   1      17.983  20.935  14.080  0.00  0.00    -0.052 A 
ATOM     55  H18 C58 d   1      18.526  22.232  15.665  0.00  0.00     0.114 H 
ATOM     56  H19 C58 d   1      18.044  20.046  14.697  0.00  0.00     0.087 H 
ENDBRANCH   4  47
TORSDOF 7
