REMARK  32 active torsions:
REMARK  status: ('A' for Active; 'I' for Inactive)
REMARK    1  A    between atoms: C_1  and  CH3_3 
REMARK       I    between atoms: C_1  and  N_4 
REMARK    2  A    between atoms: CA_5  and  C_6 
REMARK       I    between atoms: C_6  and  N_11 
REMARK    3  A    between atoms: CA_12  and  C_13 
REMARK       I    between atoms: C_13  and  N_18 
REMARK    4  A    between atoms: N_18  and  CA_19 
REMARK    5  A    between atoms: CA_19  and  C_20 
REMARK       I    between atoms: C_20  and  N_22 
REMARK    6  A    between atoms: CA_23  and  C_24 
REMARK       I    between atoms: C_24  and  N_29 
REMARK    7  A    between atoms: CA_30  and  C_31 
REMARK       I    between atoms: C_31  and  N_36 
REMARK    8  A    between atoms: N_36  and  CA_37 
REMARK    9  A    between atoms: CA_37  and  C_38 
REMARK       I    between atoms: C_38  and  N_40 
REMARK   10  A    between atoms: CA_41  and  C_42 
REMARK       I    between atoms: C_42  and  N_47 
REMARK   11  A    between atoms: N_47  and  CA_48 
REMARK   12  A    between atoms: CA_48  and  C_49 
REMARK   13  A    between atoms: CA_48  and  CB_51 
REMARK       I    between atoms: C_49  and  N_54 
REMARK   14  A    between atoms: CB_51  and  OG1_52 
REMARK   15  A    between atoms: CB_51  and  CG2_53 
REMARK   16  A    between atoms: N_54  and  CA_55 
REMARK   17  A    between atoms: CA_55  and  C_56 
REMARK       I    between atoms: C_56  and  N_58 
REMARK   18  A    between atoms: CA_59  and  C_60 
REMARK       I    between atoms: C_60  and  N_65 
REMARK   19  A    between atoms: N_65  and  CA_66 
REMARK   20  A    between atoms: CA_66  and  C_67 
REMARK   21  A    between atoms: CA_66  and  CB_69 
REMARK       I    between atoms: C_67  and  N_76 
REMARK   22  A    between atoms: CB_69  and  CG_70 
REMARK   23  A    between atoms: CG_70  and  CD_71 
REMARK   24  A    between atoms: CD_71  and  NE_72 
REMARK       I    between atoms: NE_72  and  CZ_73 
REMARK       I    between atoms: CZ_73  and  NH1_74 
REMARK   25  A    between atoms: N_76  and  CA_77 
REMARK   26  A    between atoms: CA_77  and  C_78 
REMARK       I    between atoms: C_78  and  N_80 
REMARK   27  A    between atoms: CA_81  and  C_82 
REMARK       I    between atoms: C_82  and  N_87 
REMARK   28  A    between atoms: CA_88  and  C_89 
REMARK       I    between atoms: C_89  and  N_94 
REMARK   29  A    between atoms: N_94  and  CA_95 
REMARK   30  A    between atoms: CA_95  and  C_96 
REMARK       I    between atoms: C_96  and  N_98 
REMARK   31  A    between atoms: CA_99  and  C_100 
REMARK       I    between atoms: C_100  and  N_105 
REMARK   32  A    between atoms: CA_106  and  C_107 
ROOT
ATOM      1  N   PRO d   1     -33.019-106.989-170.713  0.00  0.00    -0.337 N 
ATOM      2  CA  PRO d   1     -34.389-107.010-170.156  0.00  0.00     0.091 C 
ATOM      3  CB  PRO d   1     -34.163-107.297-168.665  0.00  0.00    -0.036 C 
ATOM      4  CG  PRO d   1     -32.779-106.778-168.387  0.00  0.00    -0.048 C 
ATOM      5  CD  PRO d   1     -31.986-106.924-169.657  0.00  0.00    -0.001 C 
ATOM      6  H55 PRO d   1     -34.990-107.804-170.622  0.00  0.00     0.087 H 
ATOM      7  H56 PRO d   1     -34.221-108.377-168.464  0.00  0.00     0.036 H 
ATOM      8  H57 PRO d   1     -34.907-106.769-168.050  0.00  0.00     0.036 H 
ATOM      9  H58 PRO d   1     -32.312-107.363-167.582  0.00  0.00     0.035 H 
ATOM     10  H59 PRO d   1     -32.826-105.719-168.091  0.00  0.00     0.035 H 
ATOM     11  H60 PRO d   1     -31.325-106.058-169.808  0.00  0.00     0.064 H 
ATOM     12  H61 PRO d   1     -31.385-107.845-169.640  0.00  0.00     0.064 H 
ATOM     13  C   GLY d   1     -32.874-106.946-172.048  0.00  0.00     0.238 C 
ATOM     14  O   GLY d   1     -33.872-107.002-172.789  0.00  0.00    -0.272 OA
ENDROOT
BRANCH  13  15
ATOM     15  CA  GLY d   1     -31.471-106.853-172.635  0.00  0.00     0.069 C 
ATOM     16  H53 GLY d   1     -31.078-105.844-172.444  0.00  0.00     0.078 H 
ATOM     17  H54 GLY d   1     -30.832-107.596-172.135  0.00  0.00     0.078 H 
BRANCH  15  18
ATOM     18  N   GLY d   1     -31.434-107.099-174.062  0.00  0.00    -0.350 N 
ATOM     19  C   THR d   1     -31.773-108.282-174.554  0.00  0.00     0.243 C 
ATOM     20  O   THR d   1     -32.053-109.239-173.837  0.00  0.00    -0.271 OA
ATOM     21  H52 GLY d   1     -31.150-106.368-174.683  0.00  0.00     0.163 HD
BRANCH  19  22
ATOM     22  CA  THR d   1     -31.774-108.442-176.098  0.00  0.00     0.113 C 
ATOM     23  H46 THR d   1     -31.095-107.706-176.553  0.00  0.00     0.091 H 
BRANCH  22  24
ATOM     24  N   THR d   1     -31.315-109.801-176.397  0.00  0.00    -0.344 N 
ATOM     25  C   PRO d   1     -30.148-110.310-175.949  0.00  0.00     0.241 C 
ATOM     26  O   PRO d   1     -29.320-109.656-175.310  0.00  0.00    -0.271 OA
ATOM     27  H45 THR d   1     -31.898-110.383-176.964  0.00  0.00     0.163 HD
BRANCH  25  28
ATOM     28  CA  PRO d   1     -29.902-111.781-176.231  0.00  0.00     0.091 C 
ATOM     29  N   PRO d   1     -28.491-112.120-176.284  0.00  0.00    -0.337 N 
ATOM     30  C   GLY d   1     -27.682-111.568-177.221  0.00  0.00     0.238 C 
ATOM     31  CD  PRO d   1     -28.145-113.051-175.194  0.00  0.00    -0.001 C 
ATOM     32  O   GLY d   1     -28.090-110.778-178.098  0.00  0.00    -0.272 OA
ATOM     33  CG  PRO d   1     -29.436-113.714-174.916  0.00  0.00    -0.048 C 
ATOM     34  H43 PRO d   1     -27.778-112.509-174.310  0.00  0.00     0.064 H 
ATOM     35  H44 PRO d   1     -27.387-113.779-175.519  0.00  0.00     0.064 H 
ATOM     36  CB  PRO d   1     -30.389-112.610-175.037  0.00  0.00    -0.036 C 
ATOM     37  H41 PRO d   1     -29.645-114.503-175.654  0.00  0.00     0.035 H 
ATOM     38  H42 PRO d   1     -29.452-114.145-173.904  0.00  0.00     0.035 H 
ATOM     39  H39 PRO d   1     -31.402-112.995-175.224  0.00  0.00     0.036 H 
ATOM     40  H40 PRO d   1     -30.391-112.001-174.121  0.00  0.00     0.036 H 
ATOM     41  H38 PRO d   1     -30.411-112.069-177.163  0.00  0.00     0.087 H 
BRANCH  30  42
ATOM     42  CA  GLY d   1     -26.220-111.959-177.119  0.00  0.00     0.069 C 
ATOM     43  H36 GLY d   1     -25.837-111.620-176.145  0.00  0.00     0.078 H 
ATOM     44  H37 GLY d   1     -26.149-113.055-177.179  0.00  0.00     0.078 H 
BRANCH  42  45
ATOM     45  N   GLY d   1     -25.390-111.391-178.158  0.00  0.00    -0.351 N 
ATOM     46  C   PRO d   1     -25.520-111.715-179.433  0.00  0.00     0.241 C 
ATOM     47  O   PRO d   1     -26.351-112.541-179.858  0.00  0.00    -0.271 OA
ATOM     48  H35 GLY d   1     -24.689-110.726-177.901  0.00  0.00     0.163 HD
BRANCH  46  49
ATOM     49  CA  PRO d   1     -24.533-111.052-180.384  0.00  0.00     0.091 C 
ATOM     50  N   PRO d   1     -24.230-111.997-181.478  0.00  0.00    -0.337 N 
ATOM     51  C   PRO d   1     -23.661-113.203-181.186  0.00  0.00     0.243 C 
ATOM     52  CD  PRO d   1     -24.743-111.488-182.766  0.00  0.00    -0.001 C 
ATOM     53  O   PRO d   1     -23.301-113.490-180.039  0.00  0.00    -0.271 OA
ATOM     54  CG  PRO d   1     -24.817-110.026-182.544  0.00  0.00    -0.048 C 
ATOM     55  H33 PRO d   1     -25.737-111.904-182.988  0.00  0.00     0.064 H 
ATOM     56  H34 PRO d   1     -24.053-111.728-183.588  0.00  0.00     0.064 H 
ATOM     57  CB  PRO d   1     -25.218-109.889-181.100  0.00  0.00    -0.036 C 
ATOM     58  H31 PRO d   1     -23.839-109.555-182.723  0.00  0.00     0.035 H 
ATOM     59  H32 PRO d   1     -25.570-109.570-183.203  0.00  0.00     0.035 H 
ATOM     60  H29 PRO d   1     -24.872-108.927-180.693  0.00  0.00     0.036 H 
ATOM     61  H30 PRO d   1     -26.311-109.960-180.994  0.00  0.00     0.036 H 
ATOM     62  H28 PRO d   1     -23.627-110.730-179.850  0.00  0.00     0.087 H 
BRANCH  51  63
ATOM     63  CA  PRO d   1     -23.542-114.272-182.271  0.00  0.00     0.092 C 
ATOM     64  N   PRO d   1     -22.516-115.270-181.950  0.00  0.00    -0.337 N 
ATOM     65  C   GLY d   1     -21.216-114.912-181.969  0.00  0.00     0.238 C 
ATOM     66  CD  PRO d   1     -23.118-116.579-181.614  0.00  0.00    -0.001 C 
ATOM     67  O   GLY d   1     -20.861-113.762-182.250  0.00  0.00    -0.272 OA
ATOM     68  CG  PRO d   1     -24.570-116.259-181.399  0.00  0.00    -0.048 C 
ATOM     69  H26 PRO d   1     -22.669-116.994-180.700  0.00  0.00     0.064 H 
ATOM     70  H27 PRO d   1     -22.992-117.293-182.442  0.00  0.00     0.064 H 
ATOM     71  CB  PRO d   1     -24.824-115.117-182.340  0.00  0.00    -0.036 C 
ATOM     72  H24 PRO d   1     -25.203-117.123-181.650  0.00  0.00     0.035 H 
ATOM     73  H25 PRO d   1     -24.756-115.958-180.357  0.00  0.00     0.035 H 
ATOM     74  H22 PRO d   1     -24.993-115.486-183.363  0.00  0.00     0.036 H 
ATOM     75  H23 PRO d   1     -25.695-114.530-182.013  0.00  0.00     0.036 H 
ATOM     76  H21 PRO d   1     -23.331-113.789-183.237  0.00  0.00     0.087 H 
BRANCH  65  77
ATOM     77  CA  GLY d   1     -20.190-115.987-181.682  0.00  0.00     0.069 C 
ATOM     78  H19 GLY d   1     -20.230-116.234-180.611  0.00  0.00     0.078 H 
ATOM     79  H20 GLY d   1     -20.442-116.880-182.273  0.00  0.00     0.078 H 
BRANCH  77  80
ATOM     80  N   GLY d   1     -18.841-115.578-182.013  0.00  0.00    -0.351 N 
ATOM     81  C   PRO d   1     -18.423-115.347-183.249  0.00  0.00     0.241 C 
ATOM     82  O   PRO d   1     -19.122-115.499-184.260  0.00  0.00    -0.271 OA
ATOM     83  H18 GLY d   1     -18.187-115.463-181.265  0.00  0.00     0.163 HD
BRANCH  81  84
ATOM     84  CA  PRO d   1     -16.994-114.854-183.349  0.00  0.00     0.091 C 
ATOM     85  N   PRO d   1     -16.452-114.998-184.705  0.00  0.00    -0.337 N 
ATOM     86  C   PRO d   1     -16.245-116.232-185.204  0.00  0.00     0.243 C 
ATOM     87  CD  PRO d   1     -16.198-113.678-185.318  0.00  0.00    -0.001 C 
ATOM     88  O   PRO d   1     -16.518-117.243-184.557  0.00  0.00    -0.271 OA
ATOM     89  CG  PRO d   1     -15.960-112.797-184.136  0.00  0.00    -0.048 C 
ATOM     90  H16 PRO d   1     -17.069-113.337-185.896  0.00  0.00     0.064 H 
ATOM     91  H17 PRO d   1     -15.314-113.710-185.972  0.00  0.00     0.064 H 
ATOM     92  CB  PRO d   1     -16.902-113.340-183.083  0.00  0.00    -0.036 C 
ATOM     93  H14 PRO d   1     -14.915-112.867-183.800  0.00  0.00     0.035 H 
ATOM     94  H15 PRO d   1     -16.200-111.750-184.374  0.00  0.00     0.035 H 
ATOM     95  H12 PRO d   1     -16.502-113.151-182.076  0.00  0.00     0.036 H 
ATOM     96  H13 PRO d   1     -17.893-112.873-183.177  0.00  0.00     0.036 H 
ATOM     97  H11 PRO d   1     -16.376-115.410-182.629  0.00  0.00     0.087 H 
BRANCH  86  98
ATOM     98  CA  PRO d   1     -15.673-116.361-186.612  0.00  0.00     0.092 C 
ATOM     99  N   PRO d   1     -14.858-117.572-186.822  0.00  0.00    -0.339 N 
ATOM    100  C   ACE d   1     -13.691-117.766-186.186  0.00  0.00     0.216 C 
ATOM    101  CD  PRO d   1     -15.480-118.446-187.836  0.00  0.00    -0.001 C 
ATOM    102  O   ACE d   1     -13.205-116.968-185.375  0.00  0.00    -0.274 OA
ATOM    103  CG  PRO d   1     -16.889-117.937-187.927  0.00  0.00    -0.048 C 
ATOM    104  H9  PRO d   1     -15.463-119.497-187.512  0.00  0.00     0.064 H 
ATOM    105  H10 PRO d   1     -14.966-118.352-188.804  0.00  0.00     0.064 H 
ATOM    106  CB  PRO d   1     -16.787-116.487-187.652  0.00  0.00    -0.036 C 
ATOM    107  H7  PRO d   1     -17.300-118.113-188.932  0.00  0.00     0.035 H 
ATOM    108  H8  PRO d   1     -17.528-118.429-187.179  0.00  0.00     0.035 H 
ATOM    109  H5  PRO d   1     -16.525-115.937-188.568  0.00  0.00     0.036 H 
ATOM    110  H6  PRO d   1     -17.736-116.102-187.251  0.00  0.00     0.036 H 
ATOM    111  H4  PRO d   1     -15.064-115.468-186.816  0.00  0.00     0.087 H 
BRANCH 100 112
ATOM    112  CH3 ACE d   1     -12.955-119.031-186.491  0.00  0.00    -0.003 C 
ATOM    113  H1  ACE d   1     -13.525-119.618-187.226  0.00  0.00     0.040 H 
ATOM    114  H2  ACE d   1     -12.834-119.617-185.568  0.00  0.00     0.040 H 
ATOM    115  H3  ACE d   1     -11.965-118.789-186.904  0.00  0.00     0.040 H 
ENDBRANCH 100 112
ENDBRANCH  86  98
ENDBRANCH  81  84
ENDBRANCH  77  80
ENDBRANCH  65  77
ENDBRANCH  51  63
ENDBRANCH  46  49
ENDBRANCH  42  45
ENDBRANCH  30  42
ENDBRANCH  25  28
ENDBRANCH  22  24
BRANCH  22 116
ATOM    116  CB  THR d   1     -33.198-108.239-176.649  0.00  0.00     0.060 C 
ATOM    117  H47 THR d   1     -33.854-108.993-176.190  0.00  0.00     0.086 H 
BRANCH 116 118
ATOM    118  OG1 THR d   1     -33.180-108.447-178.055  0.00  0.00    -0.393 OA
ATOM    119  H48 THR d   1     -32.886-109.331-178.239  0.00  0.00     0.210 HD
ENDBRANCH 116 118
BRANCH 116 120
ATOM    120  CG2 THR d   1     -33.774-106.852-176.324  0.00  0.00    -0.050 C 
ATOM    121  H49 THR d   1     -34.788-106.769-176.742  0.00  0.00     0.031 H 
ATOM    122  H50 THR d   1     -33.131-106.076-176.764  0.00  0.00     0.031 H 
ATOM    123  H51 THR d   1     -33.815-106.719-175.233  0.00  0.00     0.031 H 
ENDBRANCH 116 120
ENDBRANCH  22 116
ENDBRANCH  19  22
ENDBRANCH  15  18
ENDBRANCH  13  15
BRANCH   2 124
ATOM    124  C   PRO d   1     -35.091-105.652-170.356  0.00  0.00     0.241 C 
ATOM    125  O   PRO d   1     -34.413-104.623-170.474  0.00  0.00    -0.271 OA
ATOM    126  N   ARG d   1     -36.438-105.654-170.423  0.00  0.00    -0.346 N 
ATOM    127  H62 ARG d   1     -36.913-106.534-170.394  0.00  0.00     0.163 HD
BRANCH 126 128
ATOM    128  CA  ARG d   1     -37.244-104.431-170.537  0.00  0.00     0.089 C 
ATOM    129  H63 ARG d   1     -36.970-103.910-171.466  0.00  0.00     0.087 H 
BRANCH 128 130
ATOM    130  C   ARG d   1     -36.944-103.497-169.333  0.00  0.00     0.240 C 
ATOM    131  O   ARG d   1     -36.716-103.968-168.218  0.00  0.00    -0.271 OA
ATOM    132  N   GLY d   1     -36.955-102.202-169.574  0.00  0.00    -0.351 N 
ATOM    133  H75 GLY d   1     -37.176-101.877-170.493  0.00  0.00     0.163 HD
BRANCH 132 134
ATOM    134  CA  GLY d   1     -36.652-101.237-168.531  0.00  0.00     0.069 C 
ATOM    135  H76 GLY d   1     -36.645-100.233-168.981  0.00  0.00     0.078 H 
ATOM    136  H77 GLY d   1     -35.654-101.466-168.128  0.00  0.00     0.078 H 
BRANCH 134 137
ATOM    137  C   GLY d   1     -37.639-101.236-167.383  0.00  0.00     0.238 C 
ATOM    138  O   GLY d   1     -38.715-101.844-167.478  0.00  0.00    -0.272 OA
ATOM    139  N   PRO d   1     -37.308-100.513-166.283  0.00  0.00    -0.337 N 
ATOM    140  CA  PRO d   1     -38.265-100.391-165.174  0.00  0.00     0.092 C 
ATOM    141  CD  PRO d   1     -36.083 -99.730-166.017  0.00  0.00    -0.001 C 
ATOM    142  CB  PRO d   1     -37.415 -99.777-164.065  0.00  0.00    -0.036 C 
ATOM    143  H78 PRO d   1     -38.641-101.380-164.874  0.00  0.00     0.087 H 
ATOM    144  CG  PRO d   1     -36.420 -98.972-164.782  0.00  0.00    -0.048 C 
ATOM    145  H79 PRO d   1     -36.926-100.561-163.468  0.00  0.00     0.036 H 
ATOM    146  H80 PRO d   1     -38.029 -99.144-163.407  0.00  0.00     0.036 H 
ATOM    147  H81 PRO d   1     -35.522 -98.835-164.162  0.00  0.00     0.035 H 
ATOM    148  H82 PRO d   1     -36.840 -97.989-165.041  0.00  0.00     0.035 H 
ATOM    149  H83 PRO d   1     -35.864 -99.047-166.851  0.00  0.00     0.064 H 
ATOM    150  H84 PRO d   1     -35.221-100.392-165.849  0.00  0.00     0.064 H 
BRANCH 140 151
ATOM    151  C   PRO d   1     -39.465 -99.489-165.545  0.00  0.00     0.243 C 
ATOM    152  O   PRO d   1     -39.373 -98.702-166.496  0.00  0.00    -0.271 OA
ATOM    153  N   PRO d   1     -40.595 -99.573-164.815  0.00  0.00    -0.337 N 
ATOM    154  CA  PRO d   1     -41.728 -98.704-165.139  0.00  0.00     0.091 C 
ATOM    155  CD  PRO d   1     -40.899-100.420-163.647  0.00  0.00    -0.001 C 
ATOM    156  CB  PRO d   1     -42.865 -99.228-164.245  0.00  0.00    -0.036 C 
ATOM    157  H85 PRO d   1     -41.993 -98.814-166.201  0.00  0.00     0.087 H 
ATOM    158  CG  PRO d   1     -42.388-100.453-163.622  0.00  0.00    -0.048 C 
ATOM    159  H86 PRO d   1     -43.758 -99.436-164.853  0.00  0.00     0.036 H 
ATOM    160  H87 PRO d   1     -43.112 -98.484-163.474  0.00  0.00     0.036 H 
ATOM    161  H88 PRO d   1     -42.753-101.326-164.183  0.00  0.00     0.035 H 
ATOM    162  H89 PRO d   1     -42.745-100.509-162.583  0.00  0.00     0.035 H 
ATOM    163  H90 PRO d   1     -40.500 -99.975-162.724  0.00  0.00     0.064 H 
ATOM    164  H91 PRO d   1     -40.485-101.431-163.776  0.00  0.00     0.064 H 
BRANCH 154 165
ATOM    165  C   PRO d   1     -41.452 -97.237-164.857  0.00  0.00     0.241 C 
ATOM    166  O   PRO d   1     -40.592 -96.898-164.046  0.00  0.00    -0.271 OA
ATOM    167  N   GLY d   1     -42.210 -96.378-165.517  0.00  0.00    -0.351 N 
ATOM    168  H92 GLY d   1     -42.872 -96.723-166.183  0.00  0.00     0.163 HD
BRANCH 167 169
ATOM    169  CA  GLY d   1     -42.105 -94.946-165.299  0.00  0.00     0.069 C 
ATOM    170  H93 GLY d   1     -42.607 -94.423-166.127  0.00  0.00     0.078 H 
ATOM    171  H94 GLY d   1     -41.041 -94.667-165.280  0.00  0.00     0.078 H 
BRANCH 169 172
ATOM    172  C   GLY d   1     -42.746 -94.520-163.991  0.00  0.00     0.238 C 
ATOM    173  O   GLY d   1     -43.398 -95.323-163.306  0.00  0.00    -0.272 OA
ATOM    174  N   PRO d   1     -42.586 -93.239-163.620  0.00  0.00    -0.337 N 
ATOM    175  CA  PRO d   1     -43.208 -92.753-162.371  0.00  0.00     0.092 C 
ATOM    176  CD  PRO d   1     -41.836 -92.173-164.309  0.00  0.00    -0.001 C 
ATOM    177  CB  PRO d   1     -42.542 -91.396-162.160  0.00  0.00    -0.036 C 
ATOM    178  H95 PRO d   1     -42.955 -93.432-161.543  0.00  0.00     0.087 H 
ATOM    179  CG  PRO d   1     -42.166 -90.942-163.520  0.00  0.00    -0.048 C 
ATOM    180  H96 PRO d   1     -41.650 -91.497-161.525  0.00  0.00     0.036 H 
ATOM    181  H97 PRO d   1     -43.244 -90.688-161.696  0.00  0.00     0.036 H 
ATOM    182  H98 PRO d   1     -41.290 -90.278-163.470  0.00  0.00     0.035 H 
ATOM    183  H99 PRO d   1     -43.006 -90.406-163.987  0.00  0.00     0.035 H 
ATOM    184 0H10 PRO d   1     -42.168 -92.071-165.353  0.00  0.00     0.064 H 
ATOM    185 1H10 PRO d   1     -40.755 -92.376-164.286  0.00  0.00     0.064 H 
BRANCH 175 186
ATOM    186  C   PRO d   1     -44.748 -92.633-162.434  0.00  0.00     0.243 C 
ATOM    187  O   PRO d   1     -45.297 -92.544-163.539  0.00  0.00    -0.271 OA
ATOM    188  N   PRO d   1     -45.475 -92.638-161.279  0.00  0.00    -0.336 N 
ATOM    189  CA  PRO d   1     -46.949 -92.567-161.333  0.00  0.00     0.098 C 
ATOM    190  CD  PRO d   1     -45.012 -92.767-159.883  0.00  0.00    -0.001 C 
ATOM    191  CB  PRO d   1     -47.380 -92.791-159.880  0.00  0.00    -0.035 C 
ATOM    192 2H10 PRO d   1     -47.333 -93.377-161.971  0.00  0.00     0.089 H 
ATOM    193  CG  PRO d   1     -46.196 -93.365-159.199  0.00  0.00    -0.048 C 
ATOM    194 3H10 PRO d   1     -48.227 -93.492-159.834  0.00  0.00     0.036 H 
ATOM    195 4H10 PRO d   1     -47.667 -91.837-159.413  0.00  0.00     0.036 H 
ATOM    196 5H10 PRO d   1     -46.187 -94.460-159.302  0.00  0.00     0.035 H 
ATOM    197 6H10 PRO d   1     -46.199 -93.097-158.132  0.00  0.00     0.035 H 
ATOM    198 7H10 PRO d   1     -44.761 -91.785-159.456  0.00  0.00     0.064 H 
ATOM    199 8H10 PRO d   1     -44.137 -93.431-159.815  0.00  0.00     0.064 H 
BRANCH 189 200
ATOM    200  C   PRO d   1     -47.487 -91.253-161.866  0.00  0.00     0.196 C 
ATOM    201  O   PRO d   1     -48.242 -91.284-162.874  0.00  0.00    -0.646 OA
ATOM    202  O   PRO d   1     -47.187 -90.160-161.316  0.00  0.00    -0.646 OA
ENDBRANCH 189 200
ENDBRANCH 175 186
ENDBRANCH 169 172
ENDBRANCH 167 169
ENDBRANCH 154 165
ENDBRANCH 140 151
ENDBRANCH 134 137
ENDBRANCH 132 134
ENDBRANCH 128 130
BRANCH 128 203
ATOM    203  CB  ARG d   1     -38.739-104.779-170.592  0.00  0.00    -0.036 C 
ATOM    204  H64 ARG d   1     -39.026-105.255-169.643  0.00  0.00     0.036 H 
ATOM    205  H65 ARG d   1     -38.908-105.482-171.421  0.00  0.00     0.036 H 
BRANCH 203 206
ATOM    206  CG  ARG d   1     -39.611-103.555-170.806  0.00  0.00    -0.048 C 
ATOM    207  H66 ARG d   1     -39.270-103.032-171.712  0.00  0.00     0.035 H 
ATOM    208  H67 ARG d   1     -39.505-102.890-169.936  0.00  0.00     0.035 H 
BRANCH 206 209
ATOM    209  CD  ARG d   1     -41.059-103.906-170.970  0.00  0.00     0.009 C 
ATOM    210  H68 ARG d   1     -41.650-102.979-170.928  0.00  0.00     0.064 H 
ATOM    211  H69 ARG d   1     -41.355-104.567-170.142  0.00  0.00     0.064 H 
BRANCH 209 212
ATOM    212  NE  ARG d   1     -41.348-104.586-172.234  0.00  0.00    -0.227 N 
ATOM    213  CZ  ARG d   1     -41.614-103.959-173.372  0.00  0.00     0.665 C 
ATOM    214  NH1 ARG d   1     -41.549-102.635-173.437  0.00  0.00    -0.235 N 
ATOM    215  NH2 ARG d   1     -41.951-104.650-174.456  0.00  0.00    -0.235 N 
ATOM    216  H71 ARG d   1     -41.756-102.152-174.323  0.00  0.00     0.174 HD
ATOM    217  H72 ARG d   1     -41.291-102.090-172.602  0.00  0.00     0.174 HD
ATOM    218  H73 ARG d   1     -42.004-105.678-174.416  0.00  0.00     0.174 HD
ATOM    219  H74 ARG d   1     -42.159-104.158-175.337  0.00  0.00     0.174 HD
ATOM    220  H70 ARG d   1     -41.344-105.616-172.240  0.00  0.00     0.177 HD
ENDBRANCH 209 212
ENDBRANCH 206 209
ENDBRANCH 203 206
ENDBRANCH 128 203
ENDBRANCH 126 128
ENDBRANCH   2 124
TORSDOF 32
