REMARK  21 active torsions:
REMARK  status: ('A' for Active; 'I' for Inactive)
REMARK    1  A    between atoms: CA_2  and  C_3 
REMARK       I    between atoms: C_3  and  N_8 
REMARK    2  A    between atoms: N_8  and  CA_9 
REMARK    3  A    between atoms: CA_9  and  C_10 
REMARK    4  A    between atoms: CA_9  and  CB_12 
REMARK       I    between atoms: C_10  and  N_16 
REMARK    5  A    between atoms: CB_12  and  CG_13 
REMARK    6  A    between atoms: N_16  and  CA_17 
REMARK    7  A    between atoms: CA_17  and  C_18 
REMARK    8  A    between atoms: CA_17  and  CB_20 
REMARK       I    between atoms: C_18  and  N_30 
REMARK    9  A    between atoms: CB_20  and  CG_21 
REMARK   10  A    between atoms: N_30  and  CA_31 
REMARK   11  A    between atoms: CA_31  and  C_32 
REMARK   12  A    between atoms: CA_31  and  CB_34 
REMARK       I    between atoms: C_32  and  N_38 
REMARK   13  A    between atoms: CB_34  and  CG_35 
REMARK   14  A    between atoms: N_38  and  CA_39 
REMARK   15  A    between atoms: CA_39  and  C_40 
REMARK   16  A    between atoms: CA_39  and  CB_42 
REMARK       I    between atoms: C_40  and  N_49 
REMARK   17  A    between atoms: CB_42  and  CG_43 
REMARK   18  A    between atoms: N_49  and  CA_50 
REMARK   19  A    between atoms: CA_50  and  C_51 
REMARK   20  A    between atoms: CA_50  and  CB_53 
REMARK       I    between atoms: C_51  and  N_57 
REMARK   21  A    between atoms: CB_53  and  CG_54 
REMARK       I    between atoms: CG_54  and  ND2_56 
ROOT
ATOM      1  N   ASP d   1      27.098  46.741  41.787  0.00  0.00    -0.345 N 
ATOM      2  H24 ASP d   1      26.841  46.040  41.122  0.00  0.00     0.163 HD
ATOM      3  C   TRP d   1      28.325  47.268  41.735  0.00  0.00     0.241 C 
ATOM      4  O   TRP d   1      28.675  48.229  42.423  0.00  0.00    -0.271 OA
ENDROOT
BRANCH   3   5
ATOM      5  CA  TRP d   1      29.323  46.627  40.771  0.00  0.00     0.093 C 
ATOM      6  H15 TRP d   1      28.979  46.770  39.736  0.00  0.00     0.088 H 
BRANCH   5   7
ATOM      7  N   TRP d   1      30.626  47.272  40.934  0.00  0.00    -0.346 N 
ATOM      8  C   ASP d   1      31.299  47.789  39.907  0.00  0.00     0.241 C 
ATOM      9  O   ASP d   1      30.829  47.861  38.775  0.00  0.00    -0.271 OA
ATOM     10  H14 TRP d   1      31.026  47.327  41.849  0.00  0.00     0.163 HD
BRANCH   8  11
ATOM     11  CA  ASP d   1      32.723  48.291  40.202  0.00  0.00     0.098 C 
ATOM     12  H11 ASP d   1      33.187  47.560  40.881  0.00  0.00     0.088 H 
BRANCH  11  13
ATOM     13  N   ASP d   1      33.589  48.391  39.019  0.00  0.00    -0.345 N 
ATOM     14  C   PRO d   1      33.744  47.406  38.134  0.00  0.00     0.249 C 
ATOM     15  O   PRO d   1      33.096  46.361  38.153  0.00  0.00    -0.271 OA
ATOM     16  H10 ASP d   1      34.089  49.244  38.870  0.00  0.00     0.163 HD
BRANCH  14  17
ATOM     17  CA  PRO d   1      34.791  47.617  37.042  0.00  0.00     0.178 C 
ATOM     18  N   PRO d   1      35.804  46.561  37.070  0.00  0.00    -0.062 N 
ATOM     19  CD  PRO d   1      36.357  46.312  35.729  0.00  0.00     0.083 C 
ATOM     20  H1  PRO d   1      35.383  45.712  37.414  0.00  0.00     0.278 HD
ATOM     21  H2  PRO d   1      36.551  46.840  37.686  0.00  0.00     0.278 HD
ATOM     22  CG  PRO d   1      35.263  46.813  34.805  0.00  0.00    -0.040 C 
ATOM     23  H8  PRO d   1      36.545  45.239  35.573  0.00  0.00     0.075 H 
ATOM     24  H9  PRO d   1      37.290  46.874  35.577  0.00  0.00     0.075 H 
ATOM     25  CB  PRO d   1      34.167  47.444  35.656  0.00  0.00    -0.028 C 
ATOM     26  H6  PRO d   1      35.675  47.563  34.114  0.00  0.00     0.035 H 
ATOM     27  H7  PRO d   1      34.849  45.972  34.229  0.00  0.00     0.035 H 
ATOM     28  H4  PRO d   1      33.869  48.419  35.242  0.00  0.00     0.036 H 
ATOM     29  H5  PRO d   1      33.289  46.783  35.707  0.00  0.00     0.036 H 
ATOM     30  H3  PRO d   1      35.248  48.611  37.154  0.00  0.00     0.099 H 
ENDBRANCH  14  17
ENDBRANCH  11  13
BRANCH  11  31
ATOM     31  CB  ASP d   1      32.672  49.639  40.927  0.00  0.00     0.043 C 
ATOM     32  H12 ASP d   1      32.171  49.499  41.896  0.00  0.00     0.052 H 
ATOM     33  H13 ASP d   1      32.095  50.347  40.314  0.00  0.00     0.052 H 
BRANCH  31  34
ATOM     34  CG  ASP d   1      34.052  50.221  41.173  0.00  0.00     0.175 C 
ATOM     35  OD1 ASP d   1      34.919  49.500  41.716  0.00  0.00    -0.648 OA
ATOM     36  OD2 ASP d   1      34.272  51.395  40.805  0.00  0.00    -0.648 OA
ENDBRANCH  31  34
ENDBRANCH  11  31
ENDBRANCH   8  11
ENDBRANCH   5   7
BRANCH   5  37
ATOM     37  CB  TRP d   1      29.404  45.119  41.071  0.00  0.00    -0.012 C 
ATOM     38  H16 TRP d   1      28.558  44.637  40.559  0.00  0.00     0.044 H 
ATOM     39  H17 TRP d   1      29.294  44.994  42.158  0.00  0.00     0.044 H 
BRANCH  37  40
ATOM     40  CG  TRP d   1      30.678  44.374  40.651  0.00  0.00    -0.028 A 
ATOM     41  CD1 TRP d   1      31.963  44.850  40.651  0.00  0.00    -0.015 A 
ATOM     42  NE1 TRP d   1      32.832  43.885  40.219  0.00  0.00    -0.365 N 
ATOM     43  H18 TRP d   1      32.252  45.856  40.953  0.00  0.00     0.112 H 
ATOM     44  CE2 TRP d   1      32.125  42.745  39.939  0.00  0.00     0.042 A 
ATOM     45  H19 TRP d   1      33.851  43.997  40.120  0.00  0.00     0.165 HD
ATOM     46  CD2 TRP d   1      30.769  43.013  40.201  0.00  0.00    -0.002 A 
ATOM     47  CZ2 TRP d   1      32.567  41.500  39.481  0.00  0.00    -0.056 A 
ATOM     48  CE3 TRP d   1      29.832  41.999  39.986  0.00  0.00    -0.070 A 
ATOM     49  CZ3 TRP d   1      30.277  40.764  39.528  0.00  0.00    -0.082 A 
ATOM     50  H20 TRP d   1      28.778  42.172  40.173  0.00  0.00     0.084 H 
ATOM     51  CH2 TRP d   1      31.623  40.525  39.290  0.00  0.00    -0.081 A 
ATOM     52  H22 TRP d   1      29.558  39.972  39.353  0.00  0.00     0.083 H 
ATOM     53  H23 TRP d   1      31.935  39.546  38.945  0.00  0.00     0.083 H 
ATOM     54  H21 TRP d   1      33.617  41.313  39.285  0.00  0.00     0.086 H 
ENDBRANCH  37  40
ENDBRANCH   5  37
ENDBRANCH   3   5
BRANCH   1  55
ATOM     55  CA  ASP d   1      26.115  47.164  42.796  0.00  0.00     0.098 C 
ATOM     56  H25 ASP d   1      26.637  47.112  43.763  0.00  0.00     0.088 H 
BRANCH  55  57
ATOM     57  C   ASP d   1      24.883  46.252  42.929  0.00  0.00     0.241 C 
ATOM     58  O   ASP d   1      24.310  45.795  41.934  0.00  0.00    -0.271 OA
ATOM     59  N   PHE d   1      24.497  45.990  44.177  0.00  0.00    -0.346 N 
ATOM     60  H28 PHE d   1      25.050  46.345  44.931  0.00  0.00     0.163 HD
BRANCH  59  61
ATOM     61  CA  PHE d   1      23.302  45.208  44.499  0.00  0.00     0.093 C 
ATOM     62  H29 PHE d   1      23.055  44.557  43.648  0.00  0.00     0.088 H 
BRANCH  61  63
ATOM     63  C   PHE d   1      22.140  46.160  44.763  0.00  0.00     0.241 C 
ATOM     64  O   PHE d   1      22.190  46.938  45.716  0.00  0.00    -0.271 OA
ATOM     65  N   ASN d   1      21.098  46.125  43.938  0.00  0.00    -0.346 N 
ATOM     66  H37 ASN d   1      21.066  45.459  43.192  0.00  0.00     0.163 HD
BRANCH  65  67
ATOM     67  CA  ASN d   1      19.999  47.071  44.133  0.00  0.00     0.097 C 
ATOM     68  H38 ASN d   1      20.382  47.834  44.826  0.00  0.00     0.088 H 
BRANCH  67  69
ATOM     69  C   ASN d   1      18.748  46.511  44.785  0.00  0.00     0.238 C 
ATOM     70  O   ASN d   1      18.792  45.498  45.471  0.00  0.00    -0.271 OA
ATOM     71  N   NH2 d   1      17.637  47.209  44.604  0.00  0.00    -0.368 N 
ATOM     72  H43 NH2 d   1      16.778  46.895  45.007  0.00  0.00     0.159 HD
ATOM     73  H44 NH2 d   1      17.657  48.050  44.064  0.00  0.00     0.159 HD
ENDBRANCH  67  69
BRANCH  67  74
ATOM     74  CB  ASN d   1      19.654  47.796  42.821  0.00  0.00     0.036 C 
ATOM     75  H39 ASN d   1      20.503  48.438  42.542  0.00  0.00     0.051 H 
ATOM     76  H40 ASN d   1      18.763  48.419  42.989  0.00  0.00     0.051 H 
BRANCH  74  77
ATOM     77  CG  ASN d   1      19.367  46.839  41.664  0.00  0.00     0.217 C 
ATOM     78  OD1 ASN d   1      20.216  46.022  41.295  0.00  0.00    -0.274 OA
ATOM     79  ND2 ASN d   1      18.166  46.943  41.084  0.00  0.00    -0.370 N 
ATOM     80  H41 ASN d   1      17.925  46.342  40.322  0.00  0.00     0.159 HD
ATOM     81  H42 ASN d   1      17.509  47.622  41.412  0.00  0.00     0.159 HD
ENDBRANCH  74  77
ENDBRANCH  67  74
ENDBRANCH  65  67
ENDBRANCH  61  63
BRANCH  61  82
ATOM     82  CB  PHE d   1      23.547  44.339  45.744  0.00  0.00    -0.014 C 
ATOM     83  H30 PHE d   1      22.577  44.134  46.220  0.00  0.00     0.043 H 
ATOM     84  H31 PHE d   1      24.185  44.903  46.440  0.00  0.00     0.043 H 
BRANCH  82  85
ATOM     85  CG  PHE d   1      24.215  43.027  45.449  0.00  0.00    -0.056 A 
ATOM     86  CD1 PHE d   1      23.843  42.277  44.351  0.00  0.00    -0.077 A 
ATOM     87  CE1 PHE d   1      24.455  41.068  44.083  0.00  0.00    -0.082 A 
ATOM     88  H32 PHE d   1      23.063  42.641  43.693  0.00  0.00     0.084 H 
ATOM     89  CZ  PHE d   1      25.458  40.601  44.908  0.00  0.00    -0.083 A 
ATOM     90  H34 PHE d   1      24.147  40.485  43.223  0.00  0.00     0.083 H 
ATOM     91  CE2 PHE d   1      25.843  41.343  46.003  0.00  0.00    -0.082 A 
ATOM     92  H36 PHE d   1      25.941  39.654  44.695  0.00  0.00     0.083 H 
ATOM     93  CD2 PHE d   1      25.219  42.548  46.270  0.00  0.00    -0.077 A 
ATOM     94  H35 PHE d   1      26.632  40.984  46.653  0.00  0.00     0.083 H 
ATOM     95  H33 PHE d   1      25.522  43.126  47.136  0.00  0.00     0.084 H 
ENDBRANCH  82  85
ENDBRANCH  61  82
ENDBRANCH  59  61
ENDBRANCH  55  57
BRANCH  55  96
ATOM     96  CB  ASP d   1      25.686  48.629  42.604  0.00  0.00     0.043 C 
ATOM     97  H26 ASP d   1      26.580  49.230  42.381  0.00  0.00     0.052 H 
ATOM     98  H27 ASP d   1      25.228  48.985  43.539  0.00  0.00     0.052 H 
BRANCH  96  99
ATOM     99  CG  ASP d   1      24.687  48.813  41.476  0.00  0.00     0.175 C 
ATOM    100  OD1 ASP d   1      24.770  48.079  40.467  0.00  0.00    -0.648 OA
ATOM    101  OD2 ASP d   1      23.819  49.707  41.601  0.00  0.00    -0.648 OA
ENDBRANCH  96  99
ENDBRANCH  55  96
ENDBRANCH   1  55
TORSDOF 21
