REMARK  10 active torsions:
REMARK  status: ('A' for Active; 'I' for Inactive)
REMARK    1  A    between atoms: C2_23  and  C3_2 
REMARK    2  A    between atoms: C3_2  and  C1_24 
REMARK    3  A    between atoms: C20_6  and  C30_3 
REMARK    4  A    between atoms: N2_12  and  C18_11 
REMARK    5  A    between atoms: C13_13  and  N2_12 
REMARK    6  A    between atoms: C4_19  and  C12_18 
REMARK       I    between atoms: N1_21  and  C4_19 
REMARK    7  A    between atoms: N1_21  and  O2_22 
REMARK    8  A    between atoms: N1_21  and  C2_23 
REMARK    9  A    between atoms: C1_24  and  PA1_25 
REMARK   10  A    between atoms: C1_24  and  C6_29 
ROOT
ATOM      1  C4  FM7 d   1      17.428  21.809 -16.038  0.00  0.00     0.279 C 
ATOM      2  O1  FM7 d   1      16.275  21.577 -15.798  0.00  0.00    -0.265 OA
ATOM      3  N1  FM7 d   1      18.330  21.236 -15.245  0.00  0.00    -0.224 N 
ENDROOT
BRANCH   1   4
ATOM      4  C12 FM7 d   1      17.867  22.668 -17.214  0.00  0.00     0.060 A 
ATOM      5  C13 FM7 d   1      18.319  23.974 -17.039  0.00  0.00     0.048 A 
ATOM      6  C14 FM7 d   1      18.729  24.724 -18.147  0.00  0.00    -0.056 A 
ATOM      7  C15 FM7 d   1      18.735  24.148 -19.420  0.00  0.00    -0.081 A 
ATOM      8  H8  FM7 d   1      19.043  25.754 -18.017  0.00  0.00     0.086 H 
ATOM      9  C16 FM7 d   1      18.295  22.834 -19.602  0.00  0.00    -0.082 A 
ATOM     10  H9  FM7 d   1      19.083  24.723 -20.271  0.00  0.00     0.083 H 
ATOM     11  C17 FM7 d   1      17.864  22.098 -18.496  0.00  0.00    -0.065 A 
ATOM     12  H10 FM7 d   1      18.288  22.391 -20.591  0.00  0.00     0.083 H 
ATOM     13  H11 FM7 d   1      17.524  21.077 -18.629  0.00  0.00     0.085 H 
BRANCH   5  14
ATOM     14  N2  FM7 d   1      18.307  24.525 -15.792  0.00  0.00    -0.355 N 
ATOM     15  H7  FM7 d   1      17.578  24.233 -15.125  0.00  0.00     0.166 HD
BRANCH  14  16
ATOM     16  C18 FM7 d   1      19.225  25.446 -15.401  0.00  0.00     0.033 A 
ATOM     17  C23 FM7 d   1      20.504  25.473 -15.968  0.00  0.00    -0.057 A 
ATOM     18  C22 FM7 d   1      21.424  26.429 -15.518  0.00  0.00    -0.080 A 
ATOM     19  H5  FM7 d   1      20.778  24.766 -16.742  0.00  0.00     0.086 H 
ATOM     20  C21 FM7 d   1      21.081  27.339 -14.505  0.00  0.00    -0.068 A 
ATOM     21  H4  FM7 d   1      22.414  26.467 -15.958  0.00  0.00     0.083 H 
ATOM     22  C20 FM7 d   1      19.804  27.286 -13.936  0.00  0.00     0.050 A 
ATOM     23  H3  FM7 d   1      21.800  28.076 -14.167  0.00  0.00     0.084 H 
ATOM     24  C19 FM7 d   1      18.901  26.335 -14.387  0.00  0.00    -0.043 A 
ATOM     25  H6  FM7 d   1      17.917  26.285 -13.935  0.00  0.00     0.088 H 
BRANCH  22  26
ATOM     26  C30 FM7 d   1      19.345  28.233 -12.857  0.00  0.00     0.417 C 
ATOM     27  F1  FM7 d   1      20.201  29.233 -12.764  0.00  0.00    -0.166 F 
ATOM     28  F2  FM7 d   1      18.138  28.661 -13.228  0.00  0.00    -0.166 F 
ATOM     29  F3  FM7 d   1      19.270  27.665 -11.661  0.00  0.00    -0.166 F 
ENDBRANCH  22  26
ENDBRANCH  14  16
ENDBRANCH   5  14
ENDBRANCH   1   4
BRANCH   3  30
ATOM     30  O2  FM7 d   1      17.914  20.424 -14.156  0.00  0.00    -0.285 OA
ATOM     31  H12 FM7 d   1      17.403  19.694 -14.484  0.00  0.00     0.245 HD
ENDBRANCH   3  30
BRANCH   3  32
ATOM     32  C2  FM7 d   1      19.736  21.555 -15.530  0.00  0.00     0.025 C 
ATOM     33  H13 FM7 d   1      19.771  22.117 -16.475  0.00  0.00     0.068 H 
ATOM     34  H14 FM7 d   1      20.112  22.188 -14.713  0.00  0.00     0.068 H 
BRANCH  32  35
ATOM     35  C3  FM7 d   1      20.664  20.359 -15.661  0.00  0.00    -0.029 C 
ATOM     36  H1  FM7 d   1      20.091  19.445 -15.445  0.00  0.00     0.037 H 
ATOM     37  H2  FM7 d   1      21.477  20.464 -14.927  0.00  0.00     0.037 H 
BRANCH  35  38
ATOM     38  C1  FM7 d   1      21.280  20.230 -17.056  0.00  0.00     0.082 C 
ATOM     39  H15 FM7 d   1      20.428  19.906 -17.672  0.00  0.00     0.069 H 
BRANCH  38  40
ATOM     40  PA1 FM7 d   1      22.518  18.879 -17.169  0.00  0.00     0.268 P 
ATOM     41  OP3 FM7 d   1      23.916  19.236 -17.655  0.00  0.00    -0.639 OA
ATOM     42  OP2 FM7 d   1      21.919  18.010 -18.241  0.00  0.00    -0.639 OA
ATOM     43  OP1 FM7 d   1      22.635  18.128 -15.854  0.00  0.00    -0.639 OA
ENDBRANCH  38  40
BRANCH  38  44
ATOM     44  C6  FM7 d   1      21.830  21.411 -17.796  0.00  0.00    -0.039 A 
ATOM     45  C11 FM7 d   1      21.580  21.522 -19.153  0.00  0.00    -0.074 A 
ATOM     46  C10 FM7 d   1      22.067  22.565 -19.892  0.00  0.00    -0.060 A 
ATOM     47  H16 FM7 d   1      20.982  20.762 -19.643  0.00  0.00     0.084 H 
ATOM     48  C9  FM7 d   1      22.837  23.533 -19.274  0.00  0.00     0.055 A 
ATOM     49  H17 FM7 d   1      21.851  22.632 -20.952  0.00  0.00     0.086 H 
ATOM     50 CL2  FM7 d   1      23.460  24.863 -20.228  0.00  0.00    -0.083 Cl
ATOM     51  C8  FM7 d   1      23.114  23.459 -17.904  0.00  0.00     0.056 A 
ATOM     52 CL1  FM7 d   1      24.114  24.742 -17.183  0.00  0.00    -0.083 Cl
ATOM     53  C7  FM7 d   1      22.604  22.382 -17.141  0.00  0.00    -0.053 A 
ATOM     54  H18 FM7 d   1      22.806  22.309 -16.078  0.00  0.00     0.087 H 
ENDBRANCH  38  44
ENDBRANCH  35  38
ENDBRANCH  32  35
ENDBRANCH   3  32
TORSDOF 10
