REMARK  11 active torsions:
REMARK  status: ('A' for Active; 'I' for Inactive)
REMARK    1  A    between atoms: C1_1  and  C2_2 
REMARK    2  A    between atoms: C2_2  and  C3_3 
REMARK    3  A    between atoms: C2_2  and  C4_4 
REMARK    4  A    between atoms: C4_4  and  C5_5 
REMARK    5  A    between atoms: C5_5  and  C7_7 
REMARK    6  A    between atoms: C7_7  and  C8_8 
REMARK    7  A    between atoms: C8_8  and  C9_9 
REMARK       I    between atoms: C9_9  and  N11_11 
REMARK    8  A    between atoms: N14_14  and  C17_17 
REMARK    9  A    between atoms: C17_17  and  C18_18 
REMARK   10  A    between atoms: C22_22  and  C33_33 
REMARK   11  A    between atoms: C24_24  and  N27_27 
ROOT
ATOM      1  C17 KKR d   1     -21.836  10.504  30.642  0.00  0.00     0.113 C 
ATOM      2  H23 KKR d   1     -22.139   9.468  30.852  0.00  0.00     0.084 H 
ATOM      3  H24 KKR d   1     -21.769  11.065  31.586  0.00  0.00     0.084 H 
ENDROOT
BRANCH   1   4
ATOM      4  N14 KKR d   1     -22.853  11.133  29.786  0.00  0.00    -0.064 N 
ATOM      5  C13 KKR d   1     -23.956  11.646  30.612  0.00  0.00     0.099 C 
ATOM      6  C12 KKR d   1     -24.880  12.465  29.710  0.00  0.00     0.020 C 
ATOM      7  H16 KKR d   1     -24.513  10.807  31.054  0.00  0.00     0.078 H 
ATOM      8  H17 KKR d   1     -23.556  12.284  31.414  0.00  0.00     0.078 H 
ATOM      9  N11 KKR d   1     -25.440  11.583  28.658  0.00  0.00    -0.349 N 
ATOM     10  H14 KKR d   1     -25.699  12.889  30.310  0.00  0.00     0.066 H 
ATOM     11  H15 KKR d   1     -24.309  13.280  29.241  0.00  0.00     0.066 H 
ATOM     12  C9  KKR d   1     -26.783  11.429  28.437  0.00  0.00     0.220 C 
ATOM     13  C16 KKR d   1     -24.408  10.899  27.837  0.00  0.00     0.020 C 
ATOM     14  O10 KKR d   1     -27.179  10.697  27.549  0.00  0.00    -0.273 OA
ATOM     15  C15 KKR d   1     -23.370  10.211  28.749  0.00  0.00     0.099 C 
ATOM     16  H21 KKR d   1     -23.899  11.639  27.202  0.00  0.00     0.066 H 
ATOM     17  H22 KKR d   1     -24.892  10.142  27.202  0.00  0.00     0.066 H 
ATOM     18  H19 KKR d   1     -23.845   9.350  29.242  0.00  0.00     0.078 H 
ATOM     19  H20 KKR d   1     -22.529   9.862  28.131  0.00  0.00     0.078 H 
ATOM     20  H18 KKR d   1     -22.421  11.913  29.316  0.00  0.00     0.280 HD
BRANCH  12  21
ATOM     21  C8  KKR d   1     -27.803  12.154  29.293  0.00  0.00     0.015 C 
ATOM     22  H12 KKR d   1     -27.683  11.819  30.334  0.00  0.00     0.047 H 
ATOM     23  H13 KKR d   1     -27.604  13.234  29.230  0.00  0.00     0.047 H 
BRANCH  21  24
ATOM     24  C7  KKR d   1     -29.253  11.905  28.869  0.00  0.00    -0.002 C 
ATOM     25  H10 KKR d   1     -29.377  12.126  27.799  0.00  0.00     0.045 H 
ATOM     26  H11 KKR d   1     -29.528  10.857  29.061  0.00  0.00     0.045 H 
BRANCH  24  27
ATOM     27  C5  KKR d   1     -30.117  12.824  29.689  0.00  0.00     0.127 C 
ATOM     28  O6  KKR d   1     -30.437  12.492  30.812  0.00  0.00    -0.298 OA
BRANCH  27  29
ATOM     29  C4  KKR d   1     -30.531  14.124  29.146  0.00  0.00    -0.007 C 
ATOM     30  H8  KKR d   1     -30.402  14.886  29.928  0.00  0.00     0.044 H 
ATOM     31  H9  KKR d   1     -29.886  14.366  28.288  0.00  0.00     0.044 H 
BRANCH  29  32
ATOM     32  C2  KKR d   1     -31.986  14.148  28.681  0.00  0.00    -0.055 C 
ATOM     33  H4  KKR d   1     -32.200  15.156  28.296  0.00  0.00     0.039 H 
BRANCH  32  34
ATOM     34  C1  KKR d   1     -32.938  13.867  29.817  0.00  0.00    -0.073 C 
ATOM     35  H1  KKR d   1     -33.972  13.893  29.444  0.00  0.00     0.028 H 
ATOM     36  H2  KKR d   1     -32.811  14.630  30.599  0.00  0.00     0.028 H 
ATOM     37  H3  KKR d   1     -32.725  12.873  30.237  0.00  0.00     0.028 H 
ENDBRANCH  32  34
BRANCH  32  38
ATOM     38  C3  KKR d   1     -32.218  13.158  27.567  0.00  0.00    -0.073 C 
ATOM     39  H5  KKR d   1     -31.522  13.366  26.741  0.00  0.00     0.028 H 
ATOM     40  H6  KKR d   1     -33.253  13.248  27.206  0.00  0.00     0.028 H 
ATOM     41  H7  KKR d   1     -32.048  12.138  27.942  0.00  0.00     0.028 H 
ENDBRANCH  32  38
ENDBRANCH  29  32
ENDBRANCH  27  29
ENDBRANCH  24  27
ENDBRANCH  21  24
ENDBRANCH  12  21
ENDBRANCH   1   4
BRANCH   1  42
ATOM     42  C18 KKR d   1     -20.481  10.492  29.985  0.00  0.00     0.011 A 
ATOM     43  C19 KKR d   1     -20.066   9.545  29.166  0.00  0.00    -0.039 A 
ATOM     44  C20 KKR d   1     -18.780   9.694  28.679  0.00  0.00     0.081 A 
ATOM     45  H25 KKR d   1     -20.695   8.700  28.891  0.00  0.00     0.088 H 
ATOM     46  N21 KKR d   1     -18.123   8.840  27.816  0.00  0.00    -0.227 NA
ATOM     47  C25 KKR d   1     -18.124  10.830  29.157  0.00  0.00     0.080 A 
ATOM     48  C22 KKR d   1     -16.865   9.107  27.378  0.00  0.00     0.163 A 
ATOM     49  N23 KKR d   1     -16.260  10.211  27.829  0.00  0.00    -0.209 NA
ATOM     50  C24 KKR d   1     -16.787  11.086  28.710  0.00  0.00     0.147 A 
ATOM     51  S26 KKR d   1     -19.258  11.648  30.231  0.00  0.00    -0.087 SA
BRANCH  48  52
ATOM     52  C33 KKR d   1     -16.208   8.179  26.410  0.00  0.00     0.026 A 
ATOM     53  C34 KKR d   1     -16.833   6.995  25.966  0.00  0.00    -0.068 A 
ATOM     54  C35 KKR d   1     -16.219   6.124  25.076  0.00  0.00    -0.080 A 
ATOM     55  H34 KKR d   1     -17.825   6.757  26.332  0.00  0.00     0.085 H 
ATOM     56  C36 KKR d   1     -15.001   6.385  24.533  0.00  0.00    -0.055 A 
ATOM     57  H35 KKR d   1     -16.728   5.206  24.805  0.00  0.00     0.083 H 
ATOM     58  C37 KKR d   1     -14.317   7.550  24.882  0.00  0.00     0.062 A 
ATOM     59  H36 KKR d   1     -14.561   5.688  23.829  0.00  0.00     0.087 H 
ATOM     60  N38 KKR d   1     -13.147   8.056  24.516  0.00  0.00    -0.278 N 
ATOM     61  C41 KKR d   1     -14.884   8.460  25.830  0.00  0.00     0.025 A 
ATOM     62  N39 KKR d   1     -12.946   9.172  25.107  0.00  0.00    -0.186 NA
ATOM     63  H37 KKR d   1     -12.495   7.614  23.852  0.00  0.00     0.189 HD
ATOM     64  C40 KKR d   1     -13.941   9.479  25.911  0.00  0.00     0.035 A 
ATOM     65  H38 KKR d   1     -14.013  10.372  26.530  0.00  0.00     0.118 H 
ENDBRANCH  48  52
BRANCH  50  66
ATOM     66  N27 KKR d   1     -16.024  12.175  29.165  0.00  0.00    -0.361 N 
ATOM     67  C28 KKR d   1     -16.620  13.389  29.794  0.00  0.00     0.016 C 
ATOM     68  C29 KKR d   1     -15.755  14.663  29.802  0.00  0.00     0.034 C 
ATOM     69  H26 KKR d   1     -16.856  13.140  30.839  0.00  0.00     0.067 H 
ATOM     70  H27 KKR d   1     -17.549  13.621  29.254  0.00  0.00     0.067 H 
ATOM     71  O30 KKR d   1     -14.376  14.348  29.852  0.00  0.00    -0.388 OA
ATOM     72  H28 KKR d   1     -16.016  15.268  30.683  0.00  0.00     0.076 H 
ATOM     73  H29 KKR d   1     -15.958  15.240  28.887  0.00  0.00     0.076 H 
ATOM     74  C31 KKR d   1     -13.968  13.473  28.805  0.00  0.00     0.034 C 
ATOM     75  C32 KKR d   1     -14.544  12.100  29.157  0.00  0.00     0.016 C 
ATOM     76  H30 KKR d   1     -12.870  13.425  28.752  0.00  0.00     0.076 H 
ATOM     77  H31 KKR d   1     -14.367  13.819  27.840  0.00  0.00     0.076 H 
ATOM     78  H32 KKR d   1     -14.218  11.362  28.409  0.00  0.00     0.067 H 
ATOM     79  H33 KKR d   1     -14.186  11.796  30.152  0.00  0.00     0.067 H 
ENDBRANCH  50  66
ENDBRANCH   1  42
TORSDOF 11
