REMARK  8 active torsions:
REMARK  status: ('A' for Active; 'I' for Inactive)
REMARK    1  A    between atoms: CAN_7  and  CAK_8 
REMARK    2  A    between atoms: CAK_8  and  NAL_9 
REMARK    3  A    between atoms: NAL_9  and  CAS_10 
REMARK    4  A    between atoms: CAQ_11  and  OAD_12 
REMARK    5  A    between atoms: CAO_13  and  OAB_14 
REMARK    6  A    between atoms: CAP_15  and  OAC_16 
REMARK    7  A    between atoms: CAR_17  and  CAJ_18 
REMARK    8  A    between atoms: CAJ_18  and  OAA_19 
ROOT
ATOM      1  CAS LR1 d   1     -40.341   6.320  -9.414  0.00  0.00     0.137 C 
ATOM      2  CAQ LR1 d   1     -41.125   5.050  -8.997  0.00  0.00     0.090 C 
ATOM      3  CAO LR1 d   1     -42.279   5.547  -8.161  0.00  0.00     0.087 C 
ATOM      4  CAP LR1 d   1     -41.694   6.780  -7.454  0.00  0.00     0.070 C 
ATOM      5  CAR LR1 d   1     -40.890   7.463  -8.545  0.00  0.00     0.024 C 
ATOM      6  H   LR1 d   1     -40.532   6.536 -10.476  0.00  0.00     0.089 H 
ATOM      7  H   LR1 d   1     -40.483   4.370  -8.418  0.00  0.00     0.090 H 
ATOM      8  H   LR1 d   1     -43.179   5.780  -8.749  0.00  0.00     0.091 H 
ATOM      9  H   LR1 d   1     -41.048   6.466  -6.621  0.00  0.00     0.087 H 
ATOM     10  H   LR1 d   1     -41.520   8.141  -9.139  0.00  0.00     0.050 H 
ENDROOT
BRANCH   1  11
ATOM     11  NAL LR1 d   1     -38.890   6.168  -9.223  0.00  0.00    -0.064 N 
ATOM     12  H   LR1 d   1     -38.682   6.211  -8.238  0.00  0.00     0.278 HD
ATOM     13  H   LR1 d   1     -38.603   5.273  -9.588  0.00  0.00     0.278 HD
BRANCH  11  14
ATOM     14  CAK LR1 d   1     -38.140   7.236  -9.920  0.00  0.00     0.106 C 
ATOM     15  H   LR1 d   1     -38.118   7.018 -10.998  0.00  0.00     0.083 H 
ATOM     16  H   LR1 d   1     -38.643   8.200  -9.751  0.00  0.00     0.083 H 
BRANCH  14  17
ATOM     17  CAN LR1 d   1     -36.841   7.311  -9.445  0.00  0.00    -0.033 A 
ATOM     18  CAH LR1 d   1     -36.300   8.543  -9.056  0.00  0.00    -0.074 A 
ATOM     19  CAF LR1 d   1     -34.990   8.604  -8.565  0.00  0.00    -0.066 A 
ATOM     20  H   LR1 d   1     -36.894   9.447  -9.135  0.00  0.00     0.084 H 
ATOM     21  CAM LR1 d   1     -34.242   7.424  -8.485  0.00  0.00     0.011 A 
ATOM     22  H   LR1 d   1     -34.562   9.550  -8.252  0.00  0.00     0.085 H 
ATOM     23 BR   LR1 d   1     -32.443   7.435  -7.820  0.00  0.00    -0.051 Br
ATOM     24  CAG LR1 d   1     -34.798   6.197  -8.879  0.00  0.00    -0.066 A 
ATOM     25  CAI LR1 d   1     -36.095   6.131  -9.357  0.00  0.00    -0.074 A 
ATOM     26  H   LR1 d   1     -34.206   5.292  -8.808  0.00  0.00     0.085 H 
ATOM     27  H   LR1 d   1     -36.525   5.182  -9.658  0.00  0.00     0.084 H 
ENDBRANCH  14  17
ENDBRANCH  11  14
ENDBRANCH   1  11
BRANCH   2  28
ATOM     28  OAD LR1 d   1     -41.640   4.372 -10.156  0.00  0.00    -0.391 OA
ATOM     29  H   LR1 d   1     -42.224   4.954 -10.629  0.00  0.00     0.210 HD
ENDBRANCH   2  28
BRANCH   5  30
ATOM     30  CAJ LR1 d   1     -39.746   8.234  -7.905  0.00  0.00     0.024 C 
ATOM     31  H   LR1 d   1     -38.908   8.327  -8.612  0.00  0.00     0.074 H 
ATOM     32  H   LR1 d   1     -39.403   7.719  -6.996  0.00  0.00     0.074 H 
BRANCH  30  33
ATOM     33  OAA LR1 d   1     -40.249   9.499  -7.583  0.00  0.00    -0.400 OA
ATOM     34  H   LR1 d   1     -40.975   9.405  -6.978  0.00  0.00     0.209 HD
ENDBRANCH  30  33
ENDBRANCH   5  30
BRANCH   3  35
ATOM     35  OAB LR1 d   1     -42.511   4.541  -7.202  0.00  0.00    -0.390 OA
ATOM     36  H   LR1 d   1     -43.233   4.800  -6.642  0.00  0.00     0.210 HD
ENDBRANCH   3  35
BRANCH   4  37
ATOM     37  OAC LR1 d   1     -42.693   7.710  -6.955  0.00  0.00    -0.392 OA
ATOM     38  H   LR1 d   1     -42.259   8.442  -6.533  0.00  0.00     0.210 HD
ENDBRANCH   4  37
TORSDOF 8
