REMARK  11 active torsions:
REMARK  status: ('A' for Active; 'I' for Inactive)
REMARK    1  A    between atoms: PG_1  and  N3B_5 
REMARK    2  A    between atoms: N3B_5  and  PB_6 
REMARK    3  A    between atoms: PB_6  and  O3A_9 
REMARK    4  A    between atoms: O3A_9  and  PA_10 
REMARK    5  A    between atoms: PA_10  and  O5'_13 
REMARK    6  A    between atoms: O5'_13  and  C5'_14 
REMARK    7  A    between atoms: C5'_14  and  C4'_15 
REMARK    8  A    between atoms: C3'_17  and  O3'_18 
REMARK    9  A    between atoms: C2'_19  and  O2'_20 
REMARK   10  A    between atoms: C1'_21  and  N9_22 
REMARK   11  A    between atoms: C2_29  and  N2_30 
ROOT
ATOM      1  C4' GNP d   1       8.604 -14.332   1.470  0.00  0.00     0.089 C 
ATOM      2  O4' GNP d   1       8.039 -14.508   0.151  0.00  0.00    -0.353 OA
ATOM      3  C3' GNP d   1      10.056 -13.900   1.292  0.00  0.00     0.091 C 
ATOM      4  C2' GNP d   1      10.362 -14.050  -0.197  0.00  0.00     0.105 C 
ATOM      5  C1' GNP d   1       9.066 -14.582  -0.813  0.00  0.00     0.139 C 
ATOM      6  H4  GNP d   1       8.581 -15.286   2.016  0.00  0.00     0.090 H 
ATOM      7  H5  GNP d   1      10.180 -12.851   1.599  0.00  0.00     0.091 H 
ATOM      8  H7  GNP d   1      10.613 -13.069  -0.628  0.00  0.00     0.093 H 
ATOM      9  H9  GNP d   1       9.216 -15.631  -1.109  0.00  0.00     0.122 H 
ENDROOT
BRANCH   1  10
ATOM     10  C5' GNP d   1       7.763 -13.322   2.224  0.00  0.00     0.058 C 
ATOM     11  H2  GNP d   1       6.716 -13.395   1.894  0.00  0.00     0.079 H 
ATOM     12  H3  GNP d   1       7.822 -13.526   3.303  0.00  0.00     0.079 H 
BRANCH  10  13
ATOM     13  O5' GNP d   1       8.257 -12.010   1.958  0.00  0.00    -0.287 OA
BRANCH  13  14
ATOM     14  PA  GNP d   1       7.686 -10.741   2.713  0.00  0.00     0.417 P 
ATOM     15  O1A GNP d   1       7.878  -9.574   1.817  0.00  0.00    -0.624 OA
ATOM     16  O2A GNP d   1       8.342 -10.686   4.041  0.00  0.00    -0.624 OA
BRANCH  14  17
ATOM     17  O3A GNP d   1       6.192 -10.961   2.888  0.00  0.00    -0.186 OA
BRANCH  17  18
ATOM     18  PB  GNP d   1       5.345  -9.936   3.620  0.00  0.00     0.379 P 
ATOM     19  O1B GNP d   1       4.143  -9.686   2.799  0.00  0.00    -0.629 OA
ATOM     20  O2B GNP d   1       6.221  -8.787   3.942  0.00  0.00    -0.629 OA
BRANCH  18  21
ATOM     21  N3B GNP d   1       4.924 -10.534   5.015  0.00  0.00    -0.218 N 
ATOM     22  H1  GNP d   1       4.935 -11.521   5.176  0.00  0.00     0.179 HD
BRANCH  21  23
ATOM     23  PG  GNP d   1       4.485  -9.531   6.151  0.00  0.00     0.381 P 
ATOM     24  O1G GNP d   1       3.445  -8.639   5.524  0.00  0.00    -0.622 OA
ATOM     25  O2G GNP d   1       5.706  -8.797   6.645  0.00  0.00    -0.622 OA
ATOM     26  O3G GNP d   1       4.017 -10.408   7.289  0.00  0.00    -0.622 OA
ENDBRANCH  21  23
ENDBRANCH  18  21
ENDBRANCH  17  18
ENDBRANCH  14  17
ENDBRANCH  13  14
ENDBRANCH  10  13
ENDBRANCH   1  10
BRANCH   3  27
ATOM     27  O3' GNP d   1      10.919 -14.720   2.070  0.00  0.00    -0.390 OA
ATOM     28  H6  GNP d   1      10.829 -15.624   1.793  0.00  0.00     0.210 HD
ENDBRANCH   3  27
BRANCH   5  29
ATOM     29  N9  GNP d   1       8.669 -13.813  -1.986  0.00  0.00    -0.295 N 
ATOM     30  C8  GNP d   1       8.033 -12.596  -2.030  0.00  0.00     0.071 A 
ATOM     31  N7  GNP d   1       7.828 -12.170  -3.247  0.00  0.00    -0.234 NA
ATOM     32  H10 GNP d   1       7.731 -12.044  -1.141  0.00  0.00     0.144 H 
ATOM     33  C5  GNP d   1       8.364 -13.167  -4.053  0.00  0.00     0.171 A 
ATOM     34  C6  GNP d   1       8.441 -13.274  -5.460  0.00  0.00     0.292 A 
ATOM     35  C4  GNP d   1       8.885 -14.181  -3.288  0.00  0.00     0.161 A 
ATOM     36  O6  GNP d   1       8.035 -12.475  -6.311  0.00  0.00    -0.265 OA
ATOM     37  N1  GNP d   1       9.066 -14.452  -5.857  0.00  0.00    -0.154 N 
ATOM     38  C2  GNP d   1       9.556 -15.409  -4.998  0.00  0.00     0.680 A 
ATOM     39  H11 GNP d   1       9.166 -14.615  -6.838  0.00  0.00     0.187 HD
ATOM     40  N3  GNP d   1       9.491 -15.323  -3.682  0.00  0.00    -0.174 N 
ATOM     41  H14 GNP d   1       9.857 -16.037  -3.036  0.00  0.00     0.186 HD
BRANCH  38  42
ATOM     42  N2  GNP d   1      10.129 -16.486  -5.555  0.00  0.00    -0.234 N 
ATOM     43  H12 GNP d   1      10.512 -17.232  -4.957  0.00  0.00     0.174 HD
ATOM     44  H13 GNP d   1      10.186 -16.567  -6.580  0.00  0.00     0.174 HD
ENDBRANCH  38  42
ENDBRANCH   5  29
BRANCH   4  45
ATOM     45  O2' GNP d   1      11.437 -14.941  -0.439  0.00  0.00    -0.388 OA
ATOM     46  H8  GNP d   1      11.219 -15.799  -0.095  0.00  0.00     0.210 HD
ENDBRANCH   4  45
TORSDOF 11
