REMARK  7 active torsions:
REMARK  status: ('A' for Active; 'I' for Inactive)
REMARK    1  A    between atoms: O5'_30  and  P_2 
REMARK    2  A    between atoms: C6_8  and  N6_9 
REMARK    3  A    between atoms: C1'_13  and  N9_12 
REMARK    4  A    between atoms: C10_14  and  C17_21 
REMARK    5  A    between atoms: C17_21  and  N18_22 
REMARK    6  A    between atoms: C5'_29  and  C4'_27 
REMARK    7  A    between atoms: C5'_29  and  O5'_30 
ROOT
ATOM      1  B   NON d   1      28.600  27.391  32.380  0.00  0.00     0.647 B 
ATOM      2  C1' NON d   1      26.262  29.540  30.646  0.00  0.00     0.138 C 
ATOM      3  C10 NON d   1      30.955  26.768  32.929  0.00  0.00     0.073 C 
ATOM      4  C11 NON d   1      30.294  25.747  32.075  0.00  0.00    -0.025 A 
ATOM      5  C12 NON d   1      28.996  26.085  31.764  0.00  0.00     0.014 A 
ATOM      6  C13 NON d   1      30.863  24.566  31.585  0.00  0.00    -0.074 A 
ATOM      7  C14 NON d   1      30.088  23.721  30.791  0.00  0.00    -0.082 A 
ATOM      8  C15 NON d   1      28.771  24.059  30.480  0.00  0.00    -0.083 A 
ATOM      9  C16 NON d   1      28.212  25.251  30.975  0.00  0.00    -0.078 A 
ATOM     10  C2' NON d   1      27.242  29.322  31.812  0.00  0.00     0.093 C 
ATOM     11  O2' NON d   1      28.383  28.541  31.448  0.00  0.00    -0.383 OA
ATOM     12  C3' NON d   1      26.480  28.465  32.802  0.00  0.00     0.080 C 
ATOM     13  O3' NON d   1      27.373  27.465  33.266  0.00  0.00    -0.385 OA
ATOM     14  C4' NON d   1      25.437  27.793  31.939  0.00  0.00     0.088 C 
ATOM     15  O4' NON d   1      25.414  28.433  30.668  0.00  0.00    -0.353 OA
ATOM     16  O1  NON d   1      29.889  27.689  33.199  0.00  0.00    -0.385 OA
ATOM     17  H6  NON d   1      26.795  29.580  29.685  0.00  0.00     0.122 H 
ATOM     18  H7  NON d   1      31.415  26.338  33.831  0.00  0.00     0.091 H 
ATOM     19  H9  NON d   1      31.890  24.312  31.819  0.00  0.00     0.084 H 
ATOM     20  H10 NON d   1      30.511  22.797  30.414  0.00  0.00     0.083 H 
ATOM     21  H11 NON d   1      28.177  23.402  29.855  0.00  0.00     0.083 H 
ATOM     22  H12 NON d   1      27.186  25.515  30.745  0.00  0.00     0.083 H 
ATOM     23  H18 NON d   1      27.553  30.285  32.244  0.00  0.00     0.091 H 
ATOM     24  H20 NON d   1      26.043  29.045  33.628  0.00  0.00     0.088 H 
ATOM     25  H22 NON d   1      25.696  26.730  31.824  0.00  0.00     0.090 H 
ENDROOT
BRANCH   3  26
ATOM     26  C17 NON d   1      31.955  27.583  32.086  0.00  0.00     0.106 C 
ATOM     27  H13 NON d   1      32.742  26.910  31.715  0.00  0.00     0.079 H 
ATOM     28  H14 NON d   1      32.406  28.361  32.719  0.00  0.00     0.079 H 
BRANCH  26  29
ATOM     29  N18 NON d   1      31.300  28.219  30.948  0.00  0.00    -0.077 N 
ATOM     30  H15 NON d   1      31.980  28.743  30.419  0.00  0.00     0.274 HD
ATOM     31  H16 NON d   1      30.580  28.842  31.280  0.00  0.00     0.274 HD
ATOM     32  H17 NON d   1      30.888  27.512  30.359  0.00  0.00     0.274 HD
ENDBRANCH  26  29
ENDBRANCH   3  26
BRANCH   2  33
ATOM     33  N9  NON d   1      25.567  30.840  30.877  0.00  0.00    -0.294 N 
ATOM     34  C4  NON d   1      25.179  31.711  29.945  0.00  0.00     0.167 A 
ATOM     35  N3  NON d   1      25.126  31.645  28.596  0.00  0.00    -0.222 NA
ATOM     36  C5  NON d   1      24.751  32.861  30.592  0.00  0.00     0.149 A 
ATOM     37  C2  NON d   1      24.662  32.665  27.865  0.00  0.00     0.091 A 
ATOM     38  N1  NON d   1      24.247  33.792  28.473  0.00  0.00    -0.222 NA
ATOM     39  H2  NON d   1      24.620  32.584  26.785  0.00  0.00     0.146 H 
ATOM     40  C6  NON d   1      24.262  33.909  29.830  0.00  0.00     0.155 A 
ATOM     41  N7  NON d   1      24.934  32.694  31.910  0.00  0.00    -0.236 NA
ATOM     42  C8  NON d   1      25.437  31.454  32.075  0.00  0.00     0.071 A 
ATOM     43  H5  NON d   1      25.701  31.011  33.034  0.00  0.00     0.144 H 
BRANCH  40  44
ATOM     44  N6  NON d   1      23.826  35.043  30.434  0.00  0.00    -0.382 N 
ATOM     45  H3  NON d   1      23.843  35.118  31.461  0.00  0.00     0.157 HD
ATOM     46  H4  NON d   1      23.478  35.828  29.865  0.00  0.00     0.157 HD
ENDBRANCH  40  44
ENDBRANCH   2  33
BRANCH  14  47
ATOM     47  C5' NON d   1      24.045  27.911  32.516  0.00  0.00     0.056 C 
ATOM     48  H23 NON d   1      23.770  28.968  32.644  0.00  0.00     0.079 H 
ATOM     49  H24 NON d   1      23.985  27.396  33.486  0.00  0.00     0.079 H 
BRANCH  47  50
ATOM     50  O5' NON d   1      23.195  27.289  31.573  0.00  0.00    -0.311 OA
BRANCH  50  51
ATOM     51  P   NON d   1      21.626  27.084  31.914  0.00  0.00     0.240 P 
ATOM     52  O1P NON d   1      21.410  27.562  33.326  0.00  0.00    -0.648 OA
ATOM     53  O2P NON d   1      21.212  25.714  31.468  0.00  0.00    -0.648 OA
ATOM     54  H1  NON d   1      21.097  27.718  31.335  0.00  0.00     0.164 HD
ENDBRANCH  50  51
ENDBRANCH  47  50
ENDBRANCH  14  47
TORSDOF 7
