REMARK  12 active torsions:
REMARK  status: ('A' for Active; 'I' for Inactive)
REMARK    1  A    between atoms: O5'_37  and  P_3 
REMARK    2  A    between atoms: C6_10  and  N6_11 
REMARK    3  A    between atoms: C1'_15  and  N9_14 
REMARK    4  A    between atoms: C10_16  and  C17_22 
REMARK    5  A    between atoms: C16_21  and  O19_24 
REMARK    6  A    between atoms: C17_22  and  N18_23 
REMARK    7  A    between atoms: O19_24  and  C20_28 
REMARK    8  A    between atoms: C20_28  and  C21_29 
REMARK    9  A    between atoms: C21_29  and  C22_30 
REMARK   10  A    between atoms: C22_30  and  O23_31 
REMARK   11  A    between atoms: C5'_36  and  C4'_34 
REMARK   12  A    between atoms: C5'_36  and  O5'_37 
ROOT
ATOM      1  B   NON d   1      53.697 -26.635  32.889  0.00  0.00     0.650 B 
ATOM      2  O1  NON d   1      54.570 -27.553  33.535  0.00  0.00    -0.385 OA
ATOM      3  C1' NON d   1      54.674 -24.482  30.138  0.00  0.00     0.138 C 
ATOM      4  C10 NON d   1      53.991 -28.840  33.790  0.00  0.00     0.074 A 
ATOM      5  C11 NON d   1      52.584 -28.641  33.416  0.00  0.00    -0.022 A 
ATOM      6  C12 NON d   1      52.398 -27.336  32.826  0.00  0.00     0.048 A 
ATOM      7  C13 NON d   1      51.546 -29.551  33.528  0.00  0.00    -0.074 A 
ATOM      8  C14 NON d   1      50.284 -29.169  33.091  0.00  0.00    -0.080 A 
ATOM      9  C16 NON d   1      51.125 -26.981  32.397  0.00  0.00     0.073 A 
ATOM     10  C2' NON d   1      54.943 -25.244  31.416  0.00  0.00     0.093 C 
ATOM     11  O2' NON d   1      54.180 -26.467  31.561  0.00  0.00    -0.383 OA
ATOM     12  C3' NON d   1      54.351 -24.365  32.467  0.00  0.00     0.080 C 
ATOM     13  O3' NON d   1      53.837 -25.300  33.386  0.00  0.00    -0.385 OA
ATOM     14  C4' NON d   1      53.254 -23.595  31.751  0.00  0.00     0.088 C 
ATOM     15  O4' NON d   1      53.426 -23.839  30.342  0.00  0.00    -0.353 OA
ATOM     16  C3  NON d   1      50.076 -27.828  32.527  0.00  0.00    -0.051 A 
ATOM     17  H6  NON d   1      54.584 -25.192  29.303  0.00  0.00     0.122 H 
ATOM     18  H7  NON d   1      54.107 -29.142  34.842  0.00  0.00     0.091 H 
ATOM     19  H9  NON d   1      51.714 -30.537  33.946  0.00  0.00     0.084 H 
ATOM     20  H10 NON d   1      49.452 -29.860  33.166  0.00  0.00     0.083 H 
ATOM     21  H16 NON d   1      56.019 -25.428  31.549  0.00  0.00     0.091 H 
ATOM     22  H25 NON d   1      55.080 -23.687  32.935  0.00  0.00     0.088 H 
ATOM     23  H27 NON d   1      52.282 -23.990  32.082  0.00  0.00     0.090 H 
ATOM     24  H30 NON d   1      49.086 -27.517  32.215  0.00  0.00     0.087 H 
ENDROOT
BRANCH   4  25
ATOM     25  C17 NON d   1      54.587 -29.883  32.860  0.00  0.00     0.106 C 
ATOM     26  H11 NON d   1      53.983 -30.801  32.917  0.00  0.00     0.079 H 
ATOM     27  H12 NON d   1      55.617 -30.101  33.179  0.00  0.00     0.079 H 
BRANCH  25  28
ATOM     28  N18 NON d   1      54.607 -29.409  31.469  0.00  0.00    -0.077 N 
ATOM     29  H13 NON d   1      55.007 -30.120  30.877  0.00  0.00     0.274 HD
ATOM     30  H14 NON d   1      55.163 -28.570  31.408  0.00  0.00     0.274 HD
ATOM     31  H15 NON d   1      53.666 -29.211  31.168  0.00  0.00     0.274 HD
ENDBRANCH  25  28
ENDBRANCH   4  25
BRANCH   9  32
ATOM     32  O19 NON d   1      50.868 -25.755  31.841  0.00  0.00    -0.351 OA
BRANCH  32  33
ATOM     33  C20 NON d   1      49.512 -25.301  31.752  0.00  0.00     0.028 C 
ATOM     34  H18 NON d   1      49.115 -25.136  32.765  0.00  0.00     0.075 H 
ATOM     35  H19 NON d   1      48.905 -26.062  31.240  0.00  0.00     0.075 H 
BRANCH  33  36
ATOM     36  C21 NON d   1      49.453 -24.005  30.973  0.00  0.00    -0.025 C 
ATOM     37  H20 NON d   1      50.470 -23.606  30.846  0.00  0.00     0.039 H 
ATOM     38  H21 NON d   1      48.838 -23.275  31.520  0.00  0.00     0.039 H 
BRANCH  36  39
ATOM     39  C22 NON d   1      48.837 -24.266  29.609  0.00  0.00     0.019 C 
ATOM     40  H22 NON d   1      48.221 -25.177  29.646  0.00  0.00     0.074 H 
ATOM     41  H23 NON d   1      49.632 -24.392  28.859  0.00  0.00     0.074 H 
BRANCH  39  42
ATOM     42  O23 NON d   1      48.022 -23.144  29.267  0.00  0.00    -0.401 OA
ATOM     43  H24 NON d   1      47.627 -23.288  28.415  0.00  0.00     0.209 HD
ENDBRANCH  39  42
ENDBRANCH  36  39
ENDBRANCH  33  36
ENDBRANCH  32  33
ENDBRANCH   9  32
BRANCH   3  44
ATOM     44  N9  NON d   1      55.763 -23.527  29.810  0.00  0.00    -0.294 N 
ATOM     45  C4  NON d   1      56.037 -23.126  28.575  0.00  0.00     0.167 A 
ATOM     46  N3  NON d   1      55.445 -23.400  27.398  0.00  0.00    -0.222 NA
ATOM     47  C5  NON d   1      57.126 -22.269  28.639  0.00  0.00     0.149 A 
ATOM     48  C2  NON d   1      55.964 -22.845  26.292  0.00  0.00     0.091 A 
ATOM     49  N1  NON d   1      57.039 -22.030  26.320  0.00  0.00    -0.222 NA
ATOM     50  H2  NON d   1      55.500 -23.060  25.336  0.00  0.00     0.146 H 
ATOM     51  C6  NON d   1      57.637 -21.722  27.483  0.00  0.00     0.155 A 
ATOM     52  N7  NON d   1      57.497 -22.159  29.924  0.00  0.00    -0.236 NA
ATOM     53  C8  NON d   1      56.653 -22.936  30.630  0.00  0.00     0.071 A 
ATOM     54  H5  NON d   1      56.686 -23.068  31.710  0.00  0.00     0.144 H 
BRANCH  51  55
ATOM     55  N6  NON d   1      58.703 -20.885  27.534  0.00  0.00    -0.382 N 
ATOM     56  H3  NON d   1      59.143 -20.666  28.439  0.00  0.00     0.157 HD
ATOM     57  H4  NON d   1      59.073 -20.469  26.668  0.00  0.00     0.157 HD
ENDBRANCH  51  55
ENDBRANCH   3  44
BRANCH  14  58
ATOM     58  C5' NON d   1      53.253 -22.103  31.974  0.00  0.00     0.059 C 
ATOM     59  H28 NON d   1      54.119 -21.650  31.470  0.00  0.00     0.079 H 
ATOM     60  H29 NON d   1      53.302 -21.887  33.051  0.00  0.00     0.079 H 
BRANCH  58  61
ATOM     61  O5' NON d   1      52.035 -21.568  31.425  0.00  0.00    -0.280 OA
BRANCH  61  62
ATOM     62  P   NON d   1      51.652 -20.043  31.671  0.00  0.00     0.422 P 
ATOM     63  O3P NON d   1      52.513 -19.439  32.740  0.00  0.00    -0.617 OA
ATOM     64  O1P NON d   1      50.140 -19.839  31.736  0.00  0.00    -0.617 OA
ATOM     65  O2  NON d   1      52.058 -19.326  30.430  0.00  0.00    -0.617 OA
ENDBRANCH  61  62
ENDBRANCH  58  61
ENDBRANCH  14  58
TORSDOF 12
