REMARK WARNING: 32 MAX_TORS EXCEEDED!!!
REMARK  48 active torsions:
REMARK  status: ('A' for Active; 'I' for Inactive)
REMARK    1  A    between atoms: N_1  and  CA_2 
REMARK    2  A    between atoms: CA_2  and  C_3 
REMARK    3  A    between atoms: CA_2  and  CB_5 
REMARK       I    between atoms: C_3  and  N_8 
REMARK    4  A    between atoms: CB_5  and  CG1_6 
REMARK    5  A    between atoms: CB_5  and  CG2_7 
REMARK    6  A    between atoms: N_8  and  CA_9 
REMARK    7  A    between atoms: CA_9  and  C_10 
REMARK       I    between atoms: C_10  and  N_12 
REMARK    8  A    between atoms: N_12  and  CA_13 
REMARK    9  A    between atoms: CA_13  and  C_14 
REMARK   10  A    between atoms: CA_13  and  CB_16 
REMARK       I    between atoms: C_14  and  N_20 
REMARK   11  A    between atoms: CB_16  and  CG_17 
REMARK   12  A    between atoms: CG_17  and  SD_18 
REMARK   13  A    between atoms: SD_18  and  CE_19 
REMARK   14  A    between atoms: N_20  and  CA_21 
REMARK   15  A    between atoms: CA_21  and  C_22 
REMARK   16  A    between atoms: CA_21  and  CB_24 
REMARK       I    between atoms: C_22  and  N_30 
REMARK   17  A    between atoms: CB_24  and  CG_25 
REMARK   18  A    between atoms: N_30  and  CA_31 
REMARK   19  A    between atoms: CA_31  and  C_32 
REMARK   20  A    between atoms: CA_31  and  CB_34 
REMARK       I    between atoms: C_32  and  N_36 
REMARK   21  A    between atoms: CB_34  and  OG_35 
REMARK   22  A    between atoms: N_36  and  CA_37 
REMARK   23  A    between atoms: CA_37  and  C_38 
REMARK   24  A    between atoms: CA_37  and  CB_40 
REMARK       I    between atoms: C_38  and  N_45 
REMARK   25  A    between atoms: CB_40  and  CG_41 
REMARK   26  A    between atoms: CG_41  and  CD_42 
REMARK   27  A    between atoms: CD_42  and  CE_43 
REMARK   28  A    between atoms: CE_43  and  NZ_44 
REMARK   29  A    between atoms: N_45  and  CA_46 
REMARK   30  A    between atoms: CA_46  and  C_47 
REMARK       I    between atoms: C_47  and  N_49 
REMARK   31  A    between atoms: N_49  and  CA_50 
REMARK   32  A    between atoms: CA_50  and  C_51 
REMARK   33  A    between atoms: CA_50  and  CB_53 
REMARK       I    between atoms: C_51  and  N_56 
REMARK   34  A    between atoms: CB_53  and  OG1_54 
REMARK   35  A    between atoms: CB_53  and  CG2_55 
REMARK   36  A    between atoms: N_56  and  CA_57 
REMARK   37  A    between atoms: CA_57  and  C_58 
REMARK   38  A    between atoms: CA_57  and  CB_60 
REMARK       I    between atoms: C_58  and  N_65 
REMARK   39  A    between atoms: CB_60  and  CG_61 
REMARK   40  A    between atoms: CG_61  and  CD_62 
REMARK       I    between atoms: CD_62  and  NE2_64 
REMARK   41  A    between atoms: N_65  and  CA_66 
REMARK   42  A    between atoms: CA_66  and  C_67 
REMARK   43  A    between atoms: CA_66  and  CB_69 
REMARK       I    between atoms: C_67  and  N_72 
REMARK   44  A    between atoms: CB_69  and  OG1_70 
REMARK   45  A    between atoms: CB_69  and  CG2_71 
REMARK   46  A    between atoms: N_72  and  CA_73 
REMARK   47  A    between atoms: CA_73  and  C_74 
REMARK   48  A    between atoms: CA_73  and  CB_76 
ROOT
ATOM      1  CA  LYS d   1     -12.083  -1.792   7.893  0.00  0.00     0.089 C 
ATOM      2  H37 LYS d   1     -11.430  -1.756   7.009  0.00  0.00     0.087 H 
ENDROOT
BRANCH   1   3
ATOM      3  N   LYS d   1     -13.045  -0.728   7.783  0.00  0.00    -0.346 N 
ATOM      4  C   SER d   1     -12.808   0.340   7.057  0.00  0.00     0.243 C 
ATOM      5  O   SER d   1     -11.757   0.490   6.443  0.00  0.00    -0.271 OA
ATOM      6  H36 LYS d   1     -13.915  -0.804   8.271  0.00  0.00     0.163 HD
BRANCH   4   7
ATOM      7  CA  SER d   1     -13.926   1.375   7.003  0.00  0.00     0.109 C 
ATOM      8  H32 SER d   1     -14.523   1.272   7.921  0.00  0.00     0.090 H 
BRANCH   7   9
ATOM      9  N   SER d   1     -13.404   2.752   6.963  0.00  0.00    -0.344 N 
ATOM     10  C   HIS d   1     -13.322   3.444   8.084  0.00  0.00     0.241 C 
ATOM     11  O   HIS d   1     -13.622   2.964   9.169  0.00  0.00    -0.271 OA
ATOM     12  H31 SER d   1     -13.115   3.158   6.096  0.00  0.00     0.163 HD
BRANCH  10  13
ATOM     13  CA  HIS d   1     -12.768   4.813   7.982  0.00  0.00     0.094 C 
ATOM     14  H25 HIS d   1     -12.822   5.145   6.935  0.00  0.00     0.088 H 
BRANCH  13  15
ATOM     15  N   HIS d   1     -13.523   5.754   8.819  0.00  0.00    -0.346 N 
ATOM     16  C   MET d   1     -13.861   6.961   8.381  0.00  0.00     0.241 C 
ATOM     17  O   MET d   1     -13.583   7.372   7.253  0.00  0.00    -0.271 OA
ATOM     18  H24 HIS d   1     -13.790   5.479   9.743  0.00  0.00     0.163 HD
BRANCH  16  19
ATOM     19  CA  MET d   1     -14.603   7.849   9.346  0.00  0.00     0.090 C 
ATOM     20  H16 MET d   1     -14.468   7.461  10.367  0.00  0.00     0.087 H 
BRANCH  19  21
ATOM     21  N   MET d   1     -14.022   9.183   9.270  0.00  0.00    -0.346 N 
ATOM     22  C   GLY d   1     -13.460   9.803  10.305  0.00  0.00     0.236 C 
ATOM     23  O   GLY d   1     -13.369   9.307  11.432  0.00  0.00    -0.272 OA
ATOM     24  H15 MET d   1     -14.047   9.659   8.391  0.00  0.00     0.163 HD
BRANCH  22  25
ATOM     25  CA  GLY d   1     -12.913  11.211   9.996  0.00  0.00     0.069 C 
ATOM     26  H13 GLY d   1     -11.819  11.141   9.906  0.00  0.00     0.078 H 
ATOM     27  H14 GLY d   1     -13.339  11.541   9.037  0.00  0.00     0.078 H 
BRANCH  25  28
ATOM     28  N   GLY d   1     -13.215  12.195  10.978  0.00  0.00    -0.351 N 
ATOM     29  C   VAL d   1     -14.447  12.480  11.337  0.00  0.00     0.249 C 
ATOM     30  O   VAL d   1     -15.412  12.097  10.724  0.00  0.00    -0.271 OA
ATOM     31  H12 GLY d   1     -12.461  12.689  11.412  0.00  0.00     0.163 HD
BRANCH  29  32
ATOM     32  CA  VAL d   1     -14.608  13.330  12.591  0.00  0.00     0.178 C 
ATOM     33  H4  VAL d   1     -13.611  13.694  12.880  0.00  0.00     0.099 H 
BRANCH  32  34
ATOM     34  N   VAL d   1     -15.465  14.522  12.389  0.00  0.00    -0.066 N 
ATOM     35  H1  VAL d   1     -15.089  15.084  11.641  0.00  0.00     0.275 HD
ATOM     36  H2  VAL d   1     -15.490  15.066  13.238  0.00  0.00     0.275 HD
ATOM     37  H3  VAL d   1     -16.399  14.228  12.151  0.00  0.00     0.275 HD
ENDBRANCH  32  34
BRANCH  32  38
ATOM     38  CB  VAL d   1     -15.139  12.427  13.731  0.00  0.00    -0.025 C 
ATOM     39  H5  VAL d   1     -15.258  11.411  13.327  0.00  0.00     0.042 H 
BRANCH  38  40
ATOM     40  CG1 VAL d   1     -14.115  12.356  14.853  0.00  0.00    -0.071 C 
ATOM     41  H6  VAL d   1     -14.498  11.713  15.659  0.00  0.00     0.028 H 
ATOM     42  H7  VAL d   1     -13.931  13.367  15.246  0.00  0.00     0.028 H 
ATOM     43  H8  VAL d   1     -13.175  11.937  14.465  0.00  0.00     0.028 H 
ENDBRANCH  38  40
BRANCH  38  44
ATOM     44  CG2 VAL d   1     -16.514  12.886  14.208  0.00  0.00    -0.071 C 
ATOM     45  H9  VAL d   1     -17.207  12.917  13.354  0.00  0.00     0.028 H 
ATOM     46  H10 VAL d   1     -16.433  13.890  14.650  0.00  0.00     0.028 H 
ATOM     47  H11 VAL d   1     -16.894  12.182  14.963  0.00  0.00     0.028 H 
ENDBRANCH  38  44
ENDBRANCH  32  38
ENDBRANCH  29  32
ENDBRANCH  25  28
ENDBRANCH  22  25
ENDBRANCH  19  21
BRANCH  19  48
ATOM     48  CB  MET d   1     -16.110   7.860   9.030  0.00  0.00    -0.030 C 
ATOM     49  H17 MET d   1     -16.459   6.818   8.992  0.00  0.00     0.037 H 
ATOM     50  H18 MET d   1     -16.249   8.329   8.045  0.00  0.00     0.037 H 
BRANCH  48  51
ATOM     51  CG  MET d   1     -16.969   8.610  10.037  0.00  0.00    -0.021 C 
ATOM     52  H19 MET d   1     -18.003   8.643   9.662  0.00  0.00     0.049 H 
ATOM     53  H20 MET d   1     -16.582   9.635  10.136  0.00  0.00     0.049 H 
BRANCH  51  54
ATOM     54  SD  MET d   1     -16.970   7.838  11.658  0.00  0.00    -0.173 SA
BRANCH  54  55
ATOM     55  CE  MET d   1     -18.359   6.719  11.540  0.00  0.00    -0.035 C 
ATOM     56  H21 MET d   1     -18.471   6.173  12.488  0.00  0.00     0.041 H 
ATOM     57  H22 MET d   1     -18.185   6.003  10.723  0.00  0.00     0.041 H 
ATOM     58  H23 MET d   1     -19.275   7.292  11.336  0.00  0.00     0.041 H 
ENDBRANCH  54  55
ENDBRANCH  51  54
ENDBRANCH  48  51
ENDBRANCH  19  48
ENDBRANCH  16  19
ENDBRANCH  13  15
BRANCH  13  59
ATOM     59  CB  HIS d   1     -11.300   4.788   8.433  0.00  0.00     0.004 C 
ATOM     60  H26 HIS d   1     -10.713   4.237   7.684  0.00  0.00     0.046 H 
ATOM     61  H27 HIS d   1     -11.240   4.269   9.401  0.00  0.00     0.046 H 
BRANCH  59  62
ATOM     62  CG  HIS d   1     -10.705   6.171   8.590  0.00  0.00     0.053 A 
ATOM     63  ND1 HIS d   1     -10.127   6.838   7.585  0.00  0.00    -0.247 NA
ATOM     64  CE1 HIS d   1      -9.731   8.044   7.990  0.00  0.00     0.064 A 
ATOM     65  NE2 HIS d   1     -10.078   8.165   9.253  0.00  0.00    -0.359 N 
ATOM     66  H29 HIS d   1      -9.216   8.791   7.387  0.00  0.00     0.143 H 
ATOM     67  CD2 HIS d   1     -10.713   7.021   9.645  0.00  0.00     0.002 A 
ATOM     68  H30 HIS d   1      -9.900   8.987   9.848  0.00  0.00     0.166 HD
ATOM     69  H28 HIS d   1     -11.146   6.828  10.625  0.00  0.00     0.114 H 
ENDBRANCH  59  62
ENDBRANCH  13  59
ENDBRANCH  10  13
ENDBRANCH   7   9
BRANCH   7  70
ATOM     70  CB  SER d   1     -14.839   1.105   5.816  0.00  0.00     0.044 C 
ATOM     71  H33 SER d   1     -15.155   0.052   5.842  0.00  0.00     0.077 H 
ATOM     72  H34 SER d   1     -14.283   1.298   4.887  0.00  0.00     0.077 H 
BRANCH  70  73
ATOM     73  OG  SER d   1     -15.973   1.919   5.842  0.00  0.00    -0.398 OA
ATOM     74  H35 SER d   1     -16.462   1.754   6.640  0.00  0.00     0.209 HD
ENDBRANCH  70  73
ENDBRANCH   7  70
ENDBRANCH   4   7
ENDBRANCH   1   3
BRANCH   1  75
ATOM     75  C   LYS d   1     -12.705  -3.176   7.949  0.00  0.00     0.240 C 
ATOM     76  O   LYS d   1     -13.867  -3.332   8.389  0.00  0.00    -0.271 OA
ATOM     77  N   GLY d   1     -11.951  -4.185   7.480  0.00  0.00    -0.351 N 
ATOM     78  H49 GLY d   1     -11.026  -3.995   7.152  0.00  0.00     0.163 HD
BRANCH  77  79
ATOM     79  CA  GLY d   1     -12.445  -5.520   7.442  0.00  0.00     0.069 C 
ATOM     80  H50 GLY d   1     -12.455  -5.895   6.408  0.00  0.00     0.078 H 
ATOM     81  H51 GLY d   1     -13.463  -5.563   7.857  0.00  0.00     0.078 H 
BRANCH  79  82
ATOM     82  C   GLY d   1     -11.503  -6.332   8.283  0.00  0.00     0.236 C 
ATOM     83  O   GLY d   1     -10.327  -6.032   8.305  0.00  0.00    -0.272 OA
ATOM     84  N   THR d   1     -12.025  -7.324   9.003  0.00  0.00    -0.344 N 
ATOM     85  H52 THR d   1     -13.016  -7.456   9.011  0.00  0.00     0.163 HD
BRANCH  84  86
ATOM     86  CA  THR d   1     -11.168  -8.230   9.788  0.00  0.00     0.113 C 
ATOM     87  H53 THR d   1     -10.127  -8.124   9.450  0.00  0.00     0.091 H 
BRANCH  86  88
ATOM     88  C   THR d   1     -11.646  -9.631   9.548  0.00  0.00     0.243 C 
ATOM     89  O   THR d   1     -12.775  -9.831   9.140  0.00  0.00    -0.271 OA
ATOM     90  N   GLN d   1     -10.772 -10.605   9.761  0.00  0.00    -0.346 N 
ATOM     91  H59 GLN d   1      -9.850 -10.380  10.077  0.00  0.00     0.163 HD
BRANCH  90  92
ATOM     92  CA  GLN d   1     -11.136 -12.001   9.541  0.00  0.00     0.090 C 
ATOM     93  H60 GLN d   1     -12.211 -12.134   9.732  0.00  0.00     0.087 H 
BRANCH  92  94
ATOM     94  C   GLN d   1     -10.333 -12.889  10.512  0.00  0.00     0.241 C 
ATOM     95  O   GLN d   1      -9.123 -12.856  10.529  0.00  0.00    -0.271 OA
ATOM     96  N   THR d   1     -11.006 -13.694  11.322  0.00  0.00    -0.344 N 
ATOM     97  H67 THR d   1     -12.005 -13.661  11.356  0.00  0.00     0.163 HD
BRANCH  96  98
ATOM     98  CA  THR d   1     -10.250 -14.650  12.181  0.00  0.00     0.113 C 
ATOM     99  H68 THR d   1      -9.442 -14.120  12.707  0.00  0.00     0.091 H 
BRANCH  98 100
ATOM    100  C   THR d   1      -9.681 -15.736  11.274  0.00  0.00     0.243 C 
ATOM    101  O   THR d   1     -10.264 -16.046  10.236  0.00  0.00    -0.271 OA
ATOM    102  N   ALA d   1      -8.572 -16.323  11.676  0.00  0.00    -0.345 N 
ATOM    103  H74 ALA d   1      -8.149 -16.036  12.535  0.00  0.00     0.163 HD
BRANCH 102 104
ATOM    104  CA  ALA d   1      -7.944 -17.393  10.885  0.00  0.00     0.093 C 
ATOM    105  H75 ALA d   1      -8.335 -17.332   9.858  0.00  0.00     0.089 H 
BRANCH 104 106
ATOM    106  C   ALA d   1      -8.244 -18.781  11.427  0.00  0.00     0.196 C 
ATOM    107  O   ALA d   1      -9.433 -19.138  11.643  0.00  0.00    -0.646 OA
ATOM    108  O   ALA d   1      -7.298 -19.579  11.662  0.00  0.00    -0.646 OA
ENDBRANCH 104 106
BRANCH 104 109
ATOM    109  CB  ALA d   1      -6.462 -17.197  10.850  0.00  0.00    -0.048 C 
ATOM    110  H76 ALA d   1      -6.000 -18.000  10.257  0.00  0.00     0.030 H 
ATOM    111  H77 ALA d   1      -6.064 -17.223  11.875  0.00  0.00     0.030 H 
ATOM    112  H78 ALA d   1      -6.231 -16.224  10.392  0.00  0.00     0.030 H 
ENDBRANCH 104 109
ENDBRANCH 102 104
ENDBRANCH  98 100
BRANCH  98 113
ATOM    113  CB  THR d   1     -11.183 -15.358  13.217  0.00  0.00     0.060 C 
ATOM    114  H69 THR d   1     -10.656 -16.204  13.682  0.00  0.00     0.086 H 
BRANCH 113 115
ATOM    115  OG1 THR d   1     -12.369 -15.801  12.536  0.00  0.00    -0.393 OA
ATOM    116  H70 THR d   1     -12.129 -16.409  11.847  0.00  0.00     0.210 HD
ENDBRANCH 113 115
BRANCH 113 117
ATOM    117  CG2 THR d   1     -11.665 -14.346  14.308  0.00  0.00    -0.050 C 
ATOM    118  H71 THR d   1     -12.319 -14.864  15.025  0.00  0.00     0.031 H 
ATOM    119  H72 THR d   1     -12.222 -13.528  13.829  0.00  0.00     0.031 H 
ATOM    120  H73 THR d   1     -10.793 -13.935  14.838  0.00  0.00     0.031 H 
ENDBRANCH 113 117
ENDBRANCH  98 113
ENDBRANCH  96  98
ENDBRANCH  92  94
BRANCH  92 121
ATOM    121  CB  GLN d   1     -10.827 -12.391   8.066  0.00  0.00    -0.030 C 
ATOM    122  H61 GLN d   1      -9.764 -12.194   7.864  0.00  0.00     0.037 H 
ATOM    123  H62 GLN d   1     -11.447 -11.773   7.400  0.00  0.00     0.037 H 
BRANCH 121 124
ATOM    124  CG  GLN d   1     -11.116 -13.865   7.776  0.00  0.00     0.011 C 
ATOM    125  H63 GLN d   1     -10.505 -14.493   8.441  0.00  0.00     0.047 H 
ATOM    126  H64 GLN d   1     -10.863 -14.086   6.729  0.00  0.00     0.047 H 
BRANCH 124 127
ATOM    127  CD  GLN d   1     -12.583 -14.166   8.011  0.00  0.00     0.215 C 
ATOM    128  OE1 GLN d   1     -13.459 -13.598   7.353  0.00  0.00    -0.274 OA
ATOM    129  NE2 GLN d   1     -12.879 -15.083   8.957  0.00  0.00    -0.370 N 
ATOM    130  H65 GLN d   1     -13.833 -15.315   9.148  0.00  0.00     0.159 HD
ATOM    131  H66 GLN d   1     -12.144 -15.530   9.467  0.00  0.00     0.159 HD
ENDBRANCH 124 127
ENDBRANCH 121 124
ENDBRANCH  92 121
ENDBRANCH  90  92
ENDBRANCH  86  88
BRANCH  86 132
ATOM    132  CB  THR d   1     -11.236  -7.950  11.307  0.00  0.00     0.060 C 
ATOM    133  H54 THR d   1     -10.537  -8.623  11.826  0.00  0.00     0.086 H 
BRANCH 132 134
ATOM    134  OG1 THR d   1     -12.564  -8.193  11.769  0.00  0.00    -0.393 OA
ATOM    135  H55 THR d   1     -13.167  -7.620  11.311  0.00  0.00     0.210 HD
ENDBRANCH 132 134
BRANCH 132 136
ATOM    136  CG2 THR d   1     -10.857  -6.465  11.636  0.00  0.00    -0.050 C 
ATOM    137  H56 THR d   1     -10.916  -6.303  12.723  0.00  0.00     0.031 H 
ATOM    138  H57 THR d   1     -11.556  -5.786  11.126  0.00  0.00     0.031 H 
ATOM    139  H58 THR d   1      -9.832  -6.263  11.291  0.00  0.00     0.031 H 
ENDBRANCH 132 136
ENDBRANCH  86 132
ENDBRANCH  84  86
ENDBRANCH  79  82
ENDBRANCH  77  79
ENDBRANCH   1  75
BRANCH   1 140
ATOM    140  CB  LYS d   1     -11.238  -1.535   9.141  0.00  0.00    -0.038 C 
ATOM    141  H38 LYS d   1     -11.093  -2.481   9.683  0.00  0.00     0.036 H 
ATOM    142  H39 LYS d   1     -11.759  -0.816   9.791  0.00  0.00     0.036 H 
BRANCH 140 143
ATOM    143  CG  LYS d   1      -9.910  -0.979   8.758  0.00  0.00    -0.061 C 
ATOM    144  H40 LYS d   1     -10.017  -0.404   7.827  0.00  0.00     0.033 H 
ATOM    145  H41 LYS d   1      -9.206  -1.809   8.598  0.00  0.00     0.033 H 
BRANCH 143 146
ATOM    146  CD  LYS d   1      -9.384  -0.101   9.804  0.00  0.00    -0.043 C 
ATOM    147  H42 LYS d   1      -8.736  -0.663  10.493  0.00  0.00     0.035 H 
ATOM    148  H43 LYS d   1     -10.205   0.364  10.369  0.00  0.00     0.035 H 
BRANCH 146 149
ATOM    149  CE  LYS d   1      -8.589   0.946   9.060  0.00  0.00     0.080 C 
ATOM    150  H44 LYS d   1      -9.144   1.301   8.179  0.00  0.00     0.075 H 
ATOM    151  H45 LYS d   1      -7.617   0.541   8.742  0.00  0.00     0.075 H 
BRANCH 149 152
ATOM    152  NZ  LYS d   1      -8.409   2.006  10.003  0.00  0.00    -0.079 N 
ATOM    153  H46 LYS d   1      -7.881   2.750   9.575  0.00  0.00     0.274 HD
ATOM    154  H47 LYS d   1      -7.910   1.659  10.807  0.00  0.00     0.274 HD
ATOM    155  H48 LYS d   1      -9.309   2.356  10.291  0.00  0.00     0.274 HD
ENDBRANCH 149 152
ENDBRANCH 146 149
ENDBRANCH 143 146
ENDBRANCH 140 143
ENDBRANCH   1 140
TORSDOF 48
