REMARK WARNING: 32 MAX_TORS EXCEEDED!!!
REMARK  46 active torsions:
REMARK  status: ('A' for Active; 'I' for Inactive)
REMARK    1  A    between atoms: N_1  and  CA_2 
REMARK    2  A    between atoms: CA_2  and  C_3 
REMARK    3  A    between atoms: CA_2  and  CB_5 
REMARK       I    between atoms: C_3  and  N_8 
REMARK    4  A    between atoms: CB_5  and  CG1_6 
REMARK    5  A    between atoms: CB_5  and  CG2_7 
REMARK    6  A    between atoms: N_8  and  CA_9 
REMARK    7  A    between atoms: CA_9  and  C_10 
REMARK       I    between atoms: C_10  and  N_12 
REMARK    8  A    between atoms: N_12  and  CA_13 
REMARK    9  A    between atoms: CA_13  and  C_14 
REMARK   10  A    between atoms: CA_13  and  CB_16 
REMARK       I    between atoms: C_14  and  N_20 
REMARK   11  A    between atoms: CB_16  and  CG_17 
REMARK   12  A    between atoms: CG_17  and  SD_18 
REMARK   13  A    between atoms: SD_18  and  CE_19 
REMARK   14  A    between atoms: N_20  and  CA_21 
REMARK   15  A    between atoms: CA_21  and  C_22 
REMARK   16  A    between atoms: CA_21  and  CB_24 
REMARK       I    between atoms: C_22  and  N_30 
REMARK   17  A    between atoms: CB_24  and  CG_25 
REMARK   18  A    between atoms: N_30  and  CA_31 
REMARK   19  A    between atoms: CA_31  and  CB_32 
REMARK   20  A    between atoms: CA_31  and  C_34 
REMARK   21  A    between atoms: CB_32  and  OG_33 
REMARK   22  A    between atoms: OG_33  and  P_36 
REMARK       I    between atoms: C_34  and  N_40 
REMARK   23  A    between atoms: N_40  and  CA_41 
REMARK   24  A    between atoms: CA_41  and  C_42 
REMARK   25  A    between atoms: CA_41  and  CB_44 
REMARK       I    between atoms: C_42  and  N_49 
REMARK   26  A    between atoms: CB_44  and  CG_45 
REMARK   27  A    between atoms: CG_45  and  CD_46 
REMARK   28  A    between atoms: CD_46  and  CE_47 
REMARK   29  A    between atoms: CE_47  and  NZ_48 
REMARK   30  A    between atoms: N_49  and  CA_50 
REMARK   31  A    between atoms: CA_50  and  C_51 
REMARK       I    between atoms: C_51  and  N_53 
REMARK   32  A    between atoms: N_53  and  CA_54 
REMARK   33  A    between atoms: CA_54  and  C_55 
REMARK   34  A    between atoms: CA_54  and  CB_57 
REMARK       I    between atoms: C_55  and  N_60 
REMARK   35  A    between atoms: CB_57  and  OG1_58 
REMARK   36  A    between atoms: CB_57  and  CG2_59 
REMARK   37  A    between atoms: N_60  and  CA_61 
REMARK   38  A    between atoms: CA_61  and  C_62 
REMARK   39  A    between atoms: CA_61  and  CB_64 
REMARK       I    between atoms: C_62  and  N_69 
REMARK   40  A    between atoms: CB_64  and  CG_65 
REMARK   41  A    between atoms: CG_65  and  CD_66 
REMARK       I    between atoms: CD_66  and  NE2_68 
REMARK   42  A    between atoms: N_69  and  CA_70 
REMARK   43  A    between atoms: CA_70  and  C_71 
REMARK   44  A    between atoms: CA_70  and  CB_73 
REMARK   45  A    between atoms: CB_73  and  OG1_74 
REMARK   46  A    between atoms: CB_73  and  CG2_75 
ROOT
ATOM      1  C   SEP d   1      36.750 195.532 -13.110  0.00  0.00     0.243 C 
ATOM      2  O   SEP d   1      36.855 196.636 -13.647  0.00  0.00    -0.271 OA
ATOM      3  N   LYS d   1      35.833 194.635 -13.448  0.00  0.00    -0.346 N 
ATOM      4  H35 LYS d   1      35.801 193.775 -12.940  0.00  0.00     0.163 HD
ENDROOT
BRANCH   3   5
ATOM      5  CA  LYS d   1      34.870 194.839 -14.522  0.00  0.00     0.089 C 
ATOM      6  H36 LYS d   1      34.563 195.895 -14.524  0.00  0.00     0.087 H 
BRANCH   5   7
ATOM      7  C   LYS d   1      33.652 193.979 -14.262  0.00  0.00     0.240 C 
ATOM      8  O   LYS d   1      33.762 192.889 -13.701  0.00  0.00    -0.271 OA
ATOM      9  N   GLY d   1      32.490 194.504 -14.643  0.00  0.00    -0.351 N 
ATOM     10  H48 GLY d   1      32.498 195.386 -15.114  0.00  0.00     0.163 HD
BRANCH   9  11
ATOM     11  CA  GLY d   1      31.212 193.857 -14.407  0.00  0.00     0.069 C 
ATOM     12  H49 GLY d   1      30.609 194.492 -13.742  0.00  0.00     0.078 H 
ATOM     13  H50 GLY d   1      31.389 192.885 -13.924  0.00  0.00     0.078 H 
BRANCH  11  14
ATOM     14  C   GLY d   1      30.446 193.632 -15.697  0.00  0.00     0.236 C 
ATOM     15  O   GLY d   1      30.535 194.432 -16.630  0.00  0.00    -0.272 OA
ATOM     16  N   THR d   1      29.711 192.530 -15.764  0.00  0.00    -0.344 N 
ATOM     17  H51 THR d   1      29.691 191.904 -14.985  0.00  0.00     0.163 HD
BRANCH  16  18
ATOM     18  CA  THR d   1      28.933 192.218 -16.953  0.00  0.00     0.113 C 
ATOM     19  H52 THR d   1      28.893 193.119 -17.583  0.00  0.00     0.091 H 
BRANCH  18  20
ATOM     20  C   THR d   1      27.524 191.820 -16.568  0.00  0.00     0.243 C 
ATOM     21  O   THR d   1      27.288 191.303 -15.483  0.00  0.00    -0.271 OA
ATOM     22  N   GLN d   1      26.593 192.047 -17.481  0.00  0.00    -0.346 N 
ATOM     23  H58 GLN d   1      26.841 192.512 -18.331  0.00  0.00     0.163 HD
BRANCH  22  24
ATOM     24  CA  GLN d   1      25.222 191.634 -17.270  0.00  0.00     0.090 C 
ATOM     25  H59 GLN d   1      25.193 190.744 -16.625  0.00  0.00     0.087 H 
BRANCH  24  26
ATOM     26  C   GLN d   1      24.655 191.297 -18.628  0.00  0.00     0.241 C 
ATOM     27  O   GLN d   1      24.672 192.134 -19.531  0.00  0.00    -0.271 OA
ATOM     28  N   THR d   1      24.176 190.065 -18.777  0.00  0.00    -0.343 N 
ATOM     29  H66 THR d   1      24.188 189.446 -17.992  0.00  0.00     0.163 HD
BRANCH  28  30
ATOM     30  CA  THR d   1      23.627 189.578 -20.059  0.00  0.00     0.120 C 
ATOM     31  H67 THR d   1      24.484 189.465 -20.739  0.00  0.00     0.093 H 
BRANCH  30  32
ATOM     32  C   THR d   1      22.648 190.544 -20.737  0.00  0.00     0.199 C 
ATOM     33  O   THR d   1      21.404 190.450 -20.560  0.00  0.00    -0.646 OA
ATOM     34  O   THR d   1      23.097 191.451 -21.487  0.00  0.00    -0.646 OA
ENDBRANCH  30  32
BRANCH  30  35
ATOM     35  CB  THR d   1      22.964 188.180 -19.918  0.00  0.00     0.061 C 
ATOM     36  H68 THR d   1      22.185 188.070 -20.687  0.00  0.00     0.086 H 
BRANCH  35  37
ATOM     37  OG1 THR d   1      22.375 188.041 -18.616  0.00  0.00    -0.393 OA
ATOM     38  H69 THR d   1      21.715 188.713 -18.495  0.00  0.00     0.210 HD
ENDBRANCH  35  37
BRANCH  35  39
ATOM     39  CG2 THR d   1      24.007 187.096 -20.095  0.00  0.00    -0.050 C 
ATOM     40  H70 THR d   1      23.531 186.109 -19.994  0.00  0.00     0.031 H 
ATOM     41  H71 THR d   1      24.786 187.208 -19.326  0.00  0.00     0.031 H 
ATOM     42  H72 THR d   1      24.461 187.184 -21.093  0.00  0.00     0.031 H 
ENDBRANCH  35  39
ENDBRANCH  30  35
ENDBRANCH  28  30
ENDBRANCH  24  26
BRANCH  24  43
ATOM     43  CB  GLN d   1      24.433 192.764 -16.600  0.00  0.00    -0.030 C 
ATOM     44  H60 GLN d   1      24.350 193.593 -17.318  0.00  0.00     0.037 H 
ATOM     45  H61 GLN d   1      24.999 193.098 -15.718  0.00  0.00     0.037 H 
BRANCH  43  46
ATOM     46  CG  GLN d   1      23.029 192.394 -16.145  0.00  0.00     0.011 C 
ATOM     47  H62 GLN d   1      22.415 192.179 -17.032  0.00  0.00     0.047 H 
ATOM     48  H63 GLN d   1      22.599 193.246 -15.598  0.00  0.00     0.047 H 
BRANCH  46  49
ATOM     49  CD  GLN d   1      23.018 191.186 -15.245  0.00  0.00     0.215 C 
ATOM     50  OE1 GLN d   1      23.311 191.275 -14.048  0.00  0.00    -0.274 OA
ATOM     51  NE2 GLN d   1      22.682 190.035 -15.816  0.00  0.00    -0.370 N 
ATOM     52  H64 GLN d   1      22.656 189.196 -15.272  0.00  0.00     0.159 HD
ATOM     53  H65 GLN d   1      22.455 190.007 -16.790  0.00  0.00     0.159 HD
ENDBRANCH  46  49
ENDBRANCH  43  46
ENDBRANCH  24  43
ENDBRANCH  22  24
ENDBRANCH  18  20
BRANCH  18  54
ATOM     54  CB  THR d   1      29.552 191.050 -17.789  0.00  0.00     0.060 C 
ATOM     55  H53 THR d   1      28.927 190.897 -18.681  0.00  0.00     0.086 H 
BRANCH  54  56
ATOM     56  OG1 THR d   1      29.552 189.834 -17.019  0.00  0.00    -0.393 OA
ATOM     57  H54 THR d   1      30.067 189.960 -16.230  0.00  0.00     0.210 HD
ENDBRANCH  54  56
BRANCH  54  58
ATOM     58  CG2 THR d   1      30.964 191.382 -18.250  0.00  0.00    -0.050 C 
ATOM     59  H55 THR d   1      31.367 190.541 -18.833  0.00  0.00     0.031 H 
ATOM     60  H56 THR d   1      31.604 191.560 -17.373  0.00  0.00     0.031 H 
ATOM     61  H57 THR d   1      30.942 192.286 -18.877  0.00  0.00     0.031 H 
ENDBRANCH  54  58
ENDBRANCH  18  54
ENDBRANCH  16  18
ENDBRANCH  11  14
ENDBRANCH   9  11
ENDBRANCH   5   7
BRANCH   5  62
ATOM     62  CB  LYS d   1      35.483 194.514 -15.887  0.00  0.00    -0.038 C 
ATOM     63  H37 LYS d   1      34.675 194.213 -16.570  0.00  0.00     0.036 H 
ATOM     64  H38 LYS d   1      36.189 193.679 -15.764  0.00  0.00     0.036 H 
BRANCH  62  65
ATOM     65  CG  LYS d   1      36.228 195.690 -16.506  0.00  0.00    -0.061 C 
ATOM     66  H39 LYS d   1      37.036 195.994 -15.825  0.00  0.00     0.033 H 
ATOM     67  H40 LYS d   1      35.524 196.525 -16.636  0.00  0.00     0.033 H 
BRANCH  65  68
ATOM     68  CD  LYS d   1      36.836 195.344 -17.865  0.00  0.00    -0.043 C 
ATOM     69  H41 LYS d   1      36.031 195.281 -18.612  0.00  0.00     0.035 H 
ATOM     70  H42 LYS d   1      37.346 194.372 -17.793  0.00  0.00     0.035 H 
BRANCH  68  71
ATOM     71  CE  LYS d   1      37.850 196.411 -18.309  0.00  0.00     0.080 C 
ATOM     72  H43 LYS d   1      38.869 196.029 -18.148  0.00  0.00     0.075 H 
ATOM     73  H44 LYS d   1      37.701 197.321 -17.710  0.00  0.00     0.075 H 
BRANCH  71  74
ATOM     74  NZ  LYS d   1      37.674 196.744 -19.762  0.00  0.00    -0.079 N 
ATOM     75  H45 LYS d   1      38.348 197.444 -20.030  0.00  0.00     0.274 HD
ATOM     76  H46 LYS d   1      36.743 197.098 -19.915  0.00  0.00     0.274 HD
ATOM     77  H47 LYS d   1      37.813 195.914 -20.316  0.00  0.00     0.274 HD
ENDBRANCH  71  74
ENDBRANCH  68  71
ENDBRANCH  65  68
ENDBRANCH  62  65
ENDBRANCH   5  62
ENDBRANCH   3   5
BRANCH   1  78
ATOM     78  CA  SEP d   1      37.732 195.096 -12.039  0.00  0.00     0.110 C 
ATOM     79  H32 SEP d   1      37.930 194.019 -12.147  0.00  0.00     0.090 H 
BRANCH  78  80
ATOM     80  N   SEP d   1      38.956 195.835 -12.267  0.00  0.00    -0.344 N 
ATOM     81  C   HIS d   1      39.846 195.387 -13.138  0.00  0.00     0.241 C 
ATOM     82  O   HIS d   1      39.732 194.299 -13.693  0.00  0.00    -0.271 OA
ATOM     83  H31 SEP d   1      39.129 196.683 -11.767  0.00  0.00     0.163 HD
BRANCH  81  84
ATOM     84  CA  HIS d   1      41.048 196.271 -13.408  0.00  0.00     0.094 C 
ATOM     85  H25 HIS d   1      41.074 197.102 -12.688  0.00  0.00     0.088 H 
BRANCH  84  86
ATOM     86  N   HIS d   1      42.244 195.459 -13.267  0.00  0.00    -0.346 N 
ATOM     87  C   MET d   1      43.319 195.867 -12.608  0.00  0.00     0.241 C 
ATOM     88  O   MET d   1      43.373 196.952 -12.040  0.00  0.00    -0.271 OA
ATOM     89  H24 HIS d   1      42.257 194.551 -13.686  0.00  0.00     0.163 HD
BRANCH  87  90
ATOM     90  CA  MET d   1      44.510 194.887 -12.571  0.00  0.00     0.090 C 
ATOM     91  H16 MET d   1      44.302 194.089 -13.299  0.00  0.00     0.087 H 
BRANCH  90  92
ATOM     92  N   MET d   1      45.784 195.499 -12.940  0.00  0.00    -0.346 N 
ATOM     93  C   GLY d   1      46.527 195.082 -13.962  0.00  0.00     0.236 C 
ATOM     94  O   GLY d   1      46.123 194.319 -14.837  0.00  0.00    -0.272 OA
ATOM     95  H15 MET d   1      46.115 196.271 -12.397  0.00  0.00     0.163 HD
BRANCH  93  96
ATOM     96  CA  GLY d   1      47.941 195.612 -14.009  0.00  0.00     0.069 C 
ATOM     97  H13 GLY d   1      48.395 195.465 -13.018  0.00  0.00     0.078 H 
ATOM     98  H14 GLY d   1      48.500 195.032 -14.758  0.00  0.00     0.078 H 
BRANCH  96  99
ATOM     99  N   GLY d   1      48.050 197.015 -14.352  0.00  0.00    -0.351 N 
ATOM    100  C   VAL d   1      48.107 197.983 -13.438  0.00  0.00     0.249 C 
ATOM    101  O   VAL d   1      47.963 197.793 -12.228  0.00  0.00    -0.271 OA
ATOM    102  H12 GLY d   1      48.084 197.269 -15.319  0.00  0.00     0.163 HD
BRANCH 100 103
ATOM    103  CA  VAL d   1      48.320 199.392 -13.994  0.00  0.00     0.178 C 
ATOM    104  H4  VAL d   1      47.374 199.693 -14.469  0.00  0.00     0.099 H 
BRANCH 103 105
ATOM    105  N   VAL d   1      48.607 200.411 -12.977  0.00  0.00    -0.066 N 
ATOM    106  H1  VAL d   1      47.880 200.403 -12.279  0.00  0.00     0.275 HD
ATOM    107  H2  VAL d   1      48.644 201.319 -13.413  0.00  0.00     0.275 HD
ATOM    108  H3  VAL d   1      49.493 200.210 -12.541  0.00  0.00     0.275 HD
ENDBRANCH 103 105
BRANCH 103 109
ATOM    109  CB  VAL d   1      49.396 199.339 -15.110  0.00  0.00    -0.025 C 
ATOM    110  H5  VAL d   1      49.718 198.295 -15.237  0.00  0.00     0.042 H 
BRANCH 109 111
ATOM    111  CG1 VAL d   1      48.798 199.828 -16.417  0.00  0.00    -0.071 C 
ATOM    112  H6  VAL d   1      49.562 199.790 -17.207  0.00  0.00     0.028 H 
ATOM    113  H7  VAL d   1      48.448 200.864 -16.295  0.00  0.00     0.028 H 
ATOM    114  H8  VAL d   1      47.950 199.185 -16.696  0.00  0.00     0.028 H 
ENDBRANCH 109 111
BRANCH 109 115
ATOM    115  CG2 VAL d   1      50.607 200.172 -14.744  0.00  0.00    -0.071 C 
ATOM    116  H9  VAL d   1      51.030 199.807 -13.796  0.00  0.00     0.028 H 
ATOM    117  H10 VAL d   1      50.308 201.224 -14.631  0.00  0.00     0.028 H 
ATOM    118  H11 VAL d   1      51.363 200.089 -15.539  0.00  0.00     0.028 H 
ENDBRANCH 109 115
ENDBRANCH 103 109
ENDBRANCH 100 103
ENDBRANCH  96  99
ENDBRANCH  93  96
ENDBRANCH  90  92
BRANCH  90 119
ATOM    119  CB  MET d   1      44.635 194.246 -11.174  0.00  0.00    -0.030 C 
ATOM    120  H17 MET d   1      43.662 193.807 -10.908  0.00  0.00     0.037 H 
ATOM    121  H18 MET d   1      44.890 195.037 -10.453  0.00  0.00     0.037 H 
BRANCH 119 122
ATOM    122  CG  MET d   1      45.690 193.158 -11.081  0.00  0.00    -0.021 C 
ATOM    123  H19 MET d   1      45.655 192.725 -10.070  0.00  0.00     0.049 H 
ATOM    124  H20 MET d   1      46.676 193.615 -11.250  0.00  0.00     0.049 H 
BRANCH 122 125
ATOM    125  SD  MET d   1      45.463 191.814 -12.291  0.00  0.00    -0.173 SA
BRANCH 125 126
ATOM    126  CE  MET d   1      44.847 190.505 -11.233  0.00  0.00    -0.035 C 
ATOM    127  H21 MET d   1      44.658 189.605 -11.836  0.00  0.00     0.041 H 
ATOM    128  H22 MET d   1      43.911 190.829 -10.755  0.00  0.00     0.041 H 
ATOM    129  H23 MET d   1      45.594 190.278 -10.458  0.00  0.00     0.041 H 
ENDBRANCH 125 126
ENDBRANCH 122 125
ENDBRANCH 119 122
ENDBRANCH  90 119
ENDBRANCH  87  90
ENDBRANCH  84  86
BRANCH  84 130
ATOM    130  CB  HIS d   1      40.952 196.827 -14.828  0.00  0.00     0.004 C 
ATOM    131  H26 HIS d   1      40.184 197.615 -14.843  0.00  0.00     0.046 H 
ATOM    132  H27 HIS d   1      40.653 196.011 -15.502  0.00  0.00     0.046 H 
BRANCH 130 133
ATOM    133  CG  HIS d   1      42.233 197.406 -15.326  0.00  0.00     0.053 A 
ATOM    134  ND1 HIS d   1      42.521 198.750 -15.241  0.00  0.00    -0.247 NA
ATOM    135  CE1 HIS d   1      43.725 198.971 -15.738  0.00  0.00     0.064 A 
ATOM    136  NE2 HIS d   1      44.232 197.814 -16.133  0.00  0.00    -0.359 N 
ATOM    137  H29 HIS d   1      44.217 199.940 -15.810  0.00  0.00     0.143 H 
ATOM    138  CD2 HIS d   1      43.321 196.820 -15.883  0.00  0.00     0.002 A 
ATOM    139  H30 HIS d   1      45.160 197.682 -16.559  0.00  0.00     0.166 HD
ATOM    140  H28 HIS d   1      43.448 195.759 -16.093  0.00  0.00     0.114 H 
ENDBRANCH 130 133
ENDBRANCH  84 130
ENDBRANCH  81  84
ENDBRANCH  78  80
BRANCH  78 141
ATOM    141  CB  SEP d   1      37.200 195.346 -10.639  0.00  0.00     0.059 C 
ATOM    142  H33 SEP d   1      37.885 194.904  -9.901  0.00  0.00     0.079 H 
ATOM    143  H34 SEP d   1      36.205 194.888 -10.536  0.00  0.00     0.079 H 
BRANCH 141 144
ATOM    144  OG  SEP d   1      37.103 196.744 -10.419  0.00  0.00    -0.280 OA
BRANCH 144 145
ATOM    145  P   SEP d   1      37.700 197.196  -8.984  0.00  0.00     0.422 P 
ATOM    146  O1P SEP d   1      36.551 198.116  -8.334  0.00  0.00    -0.617 OA
ATOM    147  O2P SEP d   1      37.987 195.951  -7.985  0.00  0.00    -0.617 OA
ATOM    148  O3P SEP d   1      39.069 198.012  -9.255  0.00  0.00    -0.617 OA
ENDBRANCH 144 145
ENDBRANCH 141 144
ENDBRANCH  78 141
ENDBRANCH   1  78
TORSDOF 46
