REMARK  9 active torsions:
REMARK  status: ('A' for Active; 'I' for Inactive)
REMARK    1  A    between atoms: C28_2  and  C27_5 
REMARK    2  A    between atoms: C27_5  and  O26_6 
REMARK    3  A    between atoms: O26_6  and  C18_7 
REMARK    4  A    between atoms: C21_12  and  C24_13 
REMARK       I    between atoms: C24_13  and  N13_15 
REMARK    5  A    between atoms: N13_15  and  C7_16 
REMARK    6  A    between atoms: C11_21  and  C1_22 
REMARK    7  A    between atoms: C1_22  and  C14_26 
REMARK    8  A    between atoms: C5_28  and  N15_29 
REMARK    9  A    between atoms: N4_30  and  C17_31 
ROOT
ATOM      1  C7  WZV d   1     -19.751   5.673 -37.112  0.00  0.00     0.035 A 
ATOM      2  C12 WZV d   1     -19.224   6.297 -38.242  0.00  0.00    -0.049 A 
ATOM      3  C8  WZV d   1     -21.100   5.781 -36.805  0.00  0.00    -0.057 A 
ATOM      4  C9  WZV d   1     -21.920   6.496 -37.679  0.00  0.00    -0.080 A 
ATOM      5  C10 WZV d   1     -21.407   7.114 -38.830  0.00  0.00    -0.074 A 
ATOM      6  C11 WZV d   1     -20.050   7.015 -39.127  0.00  0.00    -0.027 A 
ATOM      7  H7  WZV d   1     -18.161   6.228 -38.442  0.00  0.00     0.087 H 
ATOM      8  H8  WZV d   1     -21.506   5.322 -35.910  0.00  0.00     0.086 H 
ATOM      9  H9  WZV d   1     -22.979   6.576 -37.464  0.00  0.00     0.083 H 
ATOM     10  H10 WZV d   1     -22.067   7.668 -39.488  0.00  0.00     0.084 H 
ENDROOT
BRANCH   1  11
ATOM     11  N13 WZV d   1     -18.848   4.995 -36.299  0.00  0.00    -0.322 N 
ATOM     12  C24 WZV d   1     -19.041   4.437 -35.094  0.00  0.00     0.274 C 
ATOM     13  O25 WZV d   1     -20.119   4.386 -34.531  0.00  0.00    -0.266 OA
ATOM     14  H6  WZV d   1     -17.921   4.912 -36.666  0.00  0.00     0.169 HD
BRANCH  12  15
ATOM     15  C21 WZV d   1     -17.836   3.801 -34.451  0.00  0.00     0.124 A 
ATOM     16  N22 WZV d   1     -16.589   4.062 -34.961  0.00  0.00    -0.253 NA
ATOM     17  C23 WZV d   1     -15.484   3.491 -34.435  0.00  0.00     0.035 A 
ATOM     18  C18 WZV d   1     -15.601   2.633 -33.343  0.00  0.00     0.086 A 
ATOM     19  H3  WZV d   1     -14.509   3.699 -34.861  0.00  0.00     0.119 H 
ATOM     20  C19 WZV d   1     -16.858   2.352 -32.790  0.00  0.00    -0.047 A 
ATOM     21  C20 WZV d   1     -17.991   2.954 -33.347  0.00  0.00    -0.047 A 
ATOM     22  H4  WZV d   1     -16.950   1.679 -31.945  0.00  0.00     0.087 H 
ATOM     23  H5  WZV d   1     -18.974   2.768 -32.930  0.00  0.00     0.087 H 
BRANCH  18  24
ATOM     24  O26 WZV d   1     -14.470   2.086 -32.823  0.00  0.00    -0.341 OA
BRANCH  24  25
ATOM     25  C27 WZV d   1     -14.482   0.878 -32.076  0.00  0.00     0.116 C 
ATOM     26  H1  WZV d   1     -15.220   0.953 -31.264  0.00  0.00     0.088 H 
ATOM     27  H2  WZV d   1     -14.746   0.038 -32.735  0.00  0.00     0.088 H 
BRANCH  25  28
ATOM     28  C28 WZV d   1     -13.091   0.652 -31.488  0.00  0.00     0.408 C 
ATOM     29  F30 WZV d   1     -12.287   0.278 -32.446  0.00  0.00    -0.169 F 
ATOM     30  F31 WZV d   1     -12.642   1.781 -30.962  0.00  0.00    -0.169 F 
ATOM     31  F29 WZV d   1     -13.126  -0.325 -30.598  0.00  0.00    -0.169 F 
ENDBRANCH  25  28
ENDBRANCH  24  25
ENDBRANCH  18  24
ENDBRANCH  12  15
ENDBRANCH   1  11
BRANCH   6  32
ATOM     32  C1  WZV d   1     -19.483   7.690 -40.356  0.00  0.00     0.079 C 
ATOM     33  C2  WZV d   1     -19.953   7.062 -41.658  0.00  0.00     0.038 C 
ATOM     34  C3  WZV d   1     -19.327   5.692 -41.777  0.00  0.00     0.240 C 
ATOM     35  H11 WZV d   1     -19.641   7.688 -42.507  0.00  0.00     0.051 H 
ATOM     36  H12 WZV d   1     -21.049   6.971 -41.653  0.00  0.00     0.051 H 
ATOM     37  O16 WZV d   1     -20.015   4.772 -42.192  0.00  0.00    -0.272 OA
ATOM     38  N4  WZV d   1     -18.031   5.538 -41.408  0.00  0.00    -0.156 N 
ATOM     39  C5  WZV d   1     -17.411   6.595 -40.813  0.00  0.00     0.677 C 
ATOM     40  N6  WZV d   1     -18.041   7.586 -40.351  0.00  0.00    -0.213 N 
ATOM     41  H16 WZV d   1     -17.498   8.363 -39.948  0.00  0.00     0.179 HD
BRANCH  38  42
ATOM     42  C17 WZV d   1     -17.337   4.269 -41.644  0.00  0.00     0.005 C 
ATOM     43  H19 WZV d   1     -18.023   3.561 -42.133  0.00  0.00     0.058 H 
ATOM     44  H20 WZV d   1     -17.001   3.851 -40.684  0.00  0.00     0.058 H 
ATOM     45  H21 WZV d   1     -16.466   4.443 -42.293  0.00  0.00     0.058 H 
ENDBRANCH  38  42
BRANCH  39  46
ATOM     46  N15 WZV d   1     -16.168   6.627 -40.698  0.00  0.00    -0.234 N 
ATOM     47  H17 WZV d   1     -15.713   7.433 -40.246  0.00  0.00     0.174 HD
ATOM     48  H18 WZV d   1     -15.598   5.848 -41.055  0.00  0.00     0.174 HD
ENDBRANCH  39  46
BRANCH  32  49
ATOM     49  C14 WZV d   1     -19.922   9.137 -40.263  0.00  0.00    -0.048 C 
ATOM     50  H13 WZV d   1     -19.570   9.567 -39.314  0.00  0.00     0.031 H 
ATOM     51  H14 WZV d   1     -21.020   9.191 -40.305  0.00  0.00     0.031 H 
ATOM     52  H15 WZV d   1     -19.495   9.704 -41.103  0.00  0.00     0.031 H 
ENDBRANCH  32  49
ENDBRANCH   6  32
TORSDOF 9
