REMARK  8 active torsions:
REMARK  status: ('A' for Active; 'I' for Inactive)
REMARK    1  A    between atoms: C20_2  and  C19_4 
REMARK    2  A    between atoms: C21_6  and  C22_7 
REMARK    3  A    between atoms: C22_7  and  C23_8 
REMARK    4  A    between atoms: C23_8  and  C24_9 
REMARK    5  A    between atoms: C24_9  and  C25_10 
REMARK    6  A    between atoms: C25_10  and  C26_11 
REMARK    7  A    between atoms: C18_18  and  C15_19 
REMARK    8  A    between atoms: N3_29  and  N2_30 
ROOT
ATOM      1  C19 X8U d   1      10.686 -32.675   7.106  0.00  0.00     0.147 A 
ATOM      2  N4  X8U d   1      11.281 -33.856   6.766  0.00  0.00    -0.233 NA
ATOM      3  C21 X8U d   1      11.402 -31.931   8.064  0.00  0.00     0.020 A 
ATOM      4  S2  X8U d   1      12.850 -32.785   8.525  0.00  0.00    -0.072 SA
ATOM      5  C18 X8U d   1      12.445 -34.080   7.436  0.00  0.00     0.109 A 
ENDROOT
BRANCH   5   6
ATOM      6  C15 X8U d   1      13.404 -35.117   7.198  0.00  0.00     0.001 A 
ATOM      7  C16 X8U d   1      13.344 -35.812   6.004  0.00  0.00    -0.069 A 
ATOM      8  C17 X8U d   1      14.255 -36.828   5.742  0.00  0.00    -0.071 A 
ATOM      9  H14 X8U d   1      12.585 -35.564   5.271  0.00  0.00     0.085 H 
ATOM     10  C12 X8U d   1      15.242 -37.151   6.662  0.00  0.00    -0.024 A 
ATOM     11  H15 X8U d   1      14.194 -37.375   4.808  0.00  0.00     0.084 H 
ATOM     12  C11 X8U d   1      16.226 -38.258   6.325  0.00  0.00    -0.072 C 
ATOM     13  C13 X8U d   1      15.312 -36.463   7.869  0.00  0.00     0.005 A 
ATOM     14  C10 X8U d   1      16.651 -39.045   7.562  0.00  0.00    -0.080 C 
ATOM     15  H16 X8U d   1      16.584 -38.465   5.323  0.00  0.00     0.084 H 
ATOM     16  C9  X8U d   1      17.150 -38.149   8.690  0.00  0.00    -0.052 C 
ATOM     17  H17 X8U d   1      16.603 -40.126   7.631  0.00  0.00     0.083 H 
ATOM     18  C8  X8U d   1      16.422 -36.823   8.811  0.00  0.00     0.090 C 
ATOM     19  H18 X8U d   1      17.959 -38.436   9.352  0.00  0.00     0.087 H 
ATOM     20  N3  X8U d   1      16.808 -36.001   9.682  0.00  0.00    -0.147 NA
ATOM     21  C14 X8U d   1      14.398 -35.433   8.131  0.00  0.00    -0.057 A 
ATOM     22  H19 X8U d   1      14.461 -34.879   9.060  0.00  0.00     0.086 H 
BRANCH  20  23
ATOM     23  N2  X8U d   1      17.810 -36.256  10.509  0.00  0.00    -0.122 NA
ATOM     24  C7  X8U d   1      18.382 -35.221  11.166  0.00  0.00     0.215 A 
ATOM     25  S1  X8U d   1      17.965 -33.553  10.862  0.00  0.00    -0.046 SA
ATOM     26  N1  X8U d   1      19.259 -35.441  12.055  0.00  0.00    -0.220 NA
ATOM     27  C4  X8U d   1      19.092 -33.110  12.046  0.00  0.00     0.037 A 
ATOM     28  C3  X8U d   1      19.415 -31.827  12.479  0.00  0.00    -0.064 A 
ATOM     29  C5  X8U d   1      19.700 -34.240  12.600  0.00  0.00     0.077 A 
ATOM     30  C2  X8U d   1      20.371 -31.695  13.482  0.00  0.00    -0.082 A 
ATOM     31  H20 X8U d   1      18.936 -30.956  12.047  0.00  0.00     0.085 H 
ATOM     32  C1  X8U d   1      20.990 -32.813  14.044  0.00  0.00    -0.081 A 
ATOM     33  H21 X8U d   1      20.640 -30.705  13.833  0.00  0.00     0.083 H 
ATOM     34  C6  X8U d   1      20.656 -34.087  13.608  0.00  0.00    -0.054 A 
ATOM     35  H23 X8U d   1      21.733 -32.685  14.823  0.00  0.00     0.083 H 
ATOM     36  H22 X8U d   1      21.133 -34.957  14.046  0.00  0.00     0.087 H 
ENDBRANCH  20  23
ENDBRANCH   5   6
BRANCH   1  37
ATOM     37  C20 X8U d   1       9.384 -32.209   6.502  0.00  0.00     0.230 C 
ATOM     38  O2  X8U d   1       8.765 -31.151   6.819  0.00  0.00    -0.643 OA
ATOM     39  O1  X8U d   1       8.918 -32.960   5.619  0.00  0.00    -0.643 OA
ENDBRANCH   1  37
BRANCH   3  40
ATOM     40  C22 X8U d   1      11.052 -30.607   8.679  0.00  0.00    -0.032 C 
ATOM     41  H1  X8U d   1      10.234 -30.139   8.112  0.00  0.00     0.041 H 
ATOM     42  H2  X8U d   1      11.932 -29.947   8.666  0.00  0.00     0.041 H 
BRANCH  40  43
ATOM     43  C23 X8U d   1      10.610 -30.847  10.119  0.00  0.00    -0.060 C 
ATOM     44  H3  X8U d   1      11.484 -31.103  10.736  0.00  0.00     0.033 H 
ATOM     45  H4  X8U d   1       9.885 -31.674  10.149  0.00  0.00     0.033 H 
BRANCH  43  46
ATOM     46  C24 X8U d   1       9.961 -29.580  10.655  0.00  0.00    -0.061 C 
ATOM     47  H5  X8U d   1       9.687 -29.722  11.711  0.00  0.00     0.033 H 
ATOM     48  H6  X8U d   1       9.059 -29.350  10.070  0.00  0.00     0.033 H 
BRANCH  46  49
ATOM     49  C25 X8U d   1      10.955 -28.436  10.534  0.00  0.00    -0.041 C 
ATOM     50  H7  X8U d   1      11.112 -28.222   9.467  0.00  0.00     0.040 H 
ATOM     51  H8  X8U d   1      11.906 -28.750  10.989  0.00  0.00     0.040 H 
BRANCH  49  52
ATOM     52  C26 X8U d   1      10.491 -27.158  11.220  0.00  0.00    -0.058 A 
ATOM     53  C31 X8U d   1      10.445 -27.084  12.612  0.00  0.00    -0.077 A 
ATOM     54  C30 X8U d   1      10.016 -25.903  13.220  0.00  0.00    -0.082 A 
ATOM     55  H9  X8U d   1      10.739 -27.935  13.216  0.00  0.00     0.084 H 
ATOM     56  C29 X8U d   1       9.651 -24.801  12.450  0.00  0.00    -0.083 A 
ATOM     57  H10 X8U d   1       9.966 -25.843  14.301  0.00  0.00     0.083 H 
ATOM     58  C28 X8U d   1       9.700 -24.872  11.059  0.00  0.00    -0.082 A 
ATOM     59  H11 X8U d   1       9.328 -23.886  12.934  0.00  0.00     0.083 H 
ATOM     60  C27 X8U d   1      10.122 -26.054  10.449  0.00  0.00    -0.077 A 
ATOM     61  H12 X8U d   1       9.413 -24.017  10.457  0.00  0.00     0.083 H 
ATOM     62  H13 X8U d   1      10.164 -26.116   9.367  0.00  0.00     0.084 H 
ENDBRANCH  49  52
ENDBRANCH  46  49
ENDBRANCH  43  46
ENDBRANCH  40  43
ENDBRANCH   3  40
TORSDOF 8
