REMARK  7 active torsions:
REMARK  status: ('A' for Active; 'I' for Inactive)
REMARK    1  A    between atoms: C6_6  and  C7_7 
REMARK    2  A    between atoms: C6_6  and  C15_15 
REMARK    3  A    between atoms: C9_9  and  N16_16 
REMARK       I    between atoms: N16_16  and  C17_17 
REMARK    4  A    between atoms: C17_17  and  C18_18 
REMARK    5  A    between atoms: C22_22  and  O25_25 
REMARK    6  A    between atoms: O25_25  and  C28_28 
REMARK    7  A    between atoms: C28_28  and  C29_29 
ROOT
ATOM      1  C7  6T9 d   1       4.838 -23.965  18.713  0.00  0.00     0.016 A 
ATOM      2  C8  6T9 d   1       3.989 -22.928  18.911  0.00  0.00    -0.045 A 
ATOM      3  C9  6T9 d   1       4.453 -21.761  19.453  0.00  0.00     0.035 A 
ATOM      4  C10 6T9 d   1       5.791 -21.623  19.764  0.00  0.00    -0.054 A 
ATOM      5  C11 6T9 d   1       6.672 -22.665  19.532  0.00  0.00    -0.043 A 
ATOM      6  C12 6T9 d   1       6.183 -23.838  19.014  0.00  0.00     0.125 A 
ATOM      7  F13 6T9 d   1       7.031 -24.876  18.783  0.00  0.00    -0.205 F 
ATOM      8  H4  6T9 d   1       2.944 -23.023  18.640  0.00  0.00     0.088 H 
ATOM      9  H5  6T9 d   1       6.153 -20.695  20.192  0.00  0.00     0.087 H 
ATOM     10  H6  6T9 d   1       7.727 -22.557  19.755  0.00  0.00     0.088 H 
ENDROOT
BRANCH   3  11
ATOM     11  N16 6T9 d   1       3.496 -20.778  19.623  0.00  0.00    -0.322 N 
ATOM     12  C17 6T9 d   1       3.908 -19.615  20.065  0.00  0.00     0.274 C 
ATOM     13  O19 6T9 d   1       5.065 -19.447  20.263  0.00  0.00    -0.266 OA
ATOM     14  H12 6T9 d   1       2.532 -20.947  19.418  0.00  0.00     0.169 HD
BRANCH  12  15
ATOM     15  C18 6T9 d   1       2.928 -18.550  20.194  0.00  0.00     0.124 A 
ATOM     16  N20 6T9 d   1       1.649 -18.934  20.213  0.00  0.00    -0.253 NA
ATOM     17  C21 6T9 d   1       0.679 -18.075  20.308  0.00  0.00     0.035 A 
ATOM     18  C22 6T9 d   1       1.025 -16.727  20.388  0.00  0.00     0.086 A 
ATOM     19  H13 6T9 d   1      -0.357 -18.393  20.324  0.00  0.00     0.119 H 
ATOM     20  C23 6T9 d   1       2.329 -16.297  20.351  0.00  0.00    -0.047 A 
ATOM     21  C24 6T9 d   1       3.343 -17.230  20.244  0.00  0.00    -0.047 A 
ATOM     22  H14 6T9 d   1       2.560 -15.239  20.405  0.00  0.00     0.087 H 
ATOM     23  H15 6T9 d   1       4.389 -16.948  20.202  0.00  0.00     0.087 H 
BRANCH  18  24
ATOM     24  O25 6T9 d   1       0.042 -15.829  20.432  0.00  0.00    -0.350 OA
BRANCH  24  25
ATOM     25  C28 6T9 d   1      -1.198 -16.237  19.892  0.00  0.00     0.023 C 
ATOM     26  H16 6T9 d   1      -1.055 -17.184  19.352  0.00  0.00     0.074 H 
ATOM     27  H17 6T9 d   1      -1.551 -15.465  19.192  0.00  0.00     0.074 H 
BRANCH  25  28
ATOM     28  C29 6T9 d   1      -2.252 -16.441  20.970  0.00  0.00    -0.056 C 
ATOM     29  H18 6T9 d   1      -3.197 -16.757  20.504  0.00  0.00     0.030 H 
ATOM     30  H19 6T9 d   1      -2.409 -15.497  21.513  0.00  0.00     0.030 H 
ATOM     31  H20 6T9 d   1      -1.913 -17.216  21.673  0.00  0.00     0.030 H 
ENDBRANCH  25  28
ENDBRANCH  24  25
ENDBRANCH  18  24
ENDBRANCH  12  15
ENDBRANCH   3  11
BRANCH   1  32
ATOM     32  C6  6T9 d   1       4.223 -25.210  18.090  0.00  0.00     0.128 C 
ATOM     33  C2  6T9 d   1       4.660 -25.265  16.617  0.00  0.00     0.293 C 
ATOM     34  C1  6T9 d   1       3.969 -24.161  15.757  0.00  0.00     0.092 C 
ATOM     35  F26 6T9 d   1       4.307 -26.566  16.263  0.00  0.00    -0.201 F 
ATOM     36  F27 6T9 d   1       6.031 -24.989  16.481  0.00  0.00    -0.201 F 
ATOM     37  O3  6T9 d   1       2.531 -24.149  15.922  0.00  0.00    -0.316 OA
ATOM     38  H1  6T9 d   1       4.201 -24.343  14.697  0.00  0.00     0.084 H 
ATOM     39  H2  6T9 d   1       4.367 -23.180  16.056  0.00  0.00     0.084 H 
ATOM     40  C4  6T9 d   1       2.035 -24.666  17.092  0.00  0.00     0.213 C 
ATOM     41  N5  6T9 d   1       2.751 -25.144  18.075  0.00  0.00    -0.337 N 
ATOM     42  N14 6T9 d   1       0.689 -24.687  17.195  0.00  0.00    -0.365 N 
ATOM     43  H3  6T9 d   1       2.249 -25.501  18.901  0.00  0.00     0.164 HD
ATOM     44  H7  6T9 d   1       0.243 -25.061  18.045  0.00  0.00     0.159 HD
ATOM     45  H8  6T9 d   1       0.108 -24.329  16.424  0.00  0.00     0.159 HD
BRANCH  32  46
ATOM     46  C15 6T9 d   1       4.716 -26.461  18.833  0.00  0.00    -0.043 C 
ATOM     47  H9  6T9 d   1       4.398 -26.412  19.885  0.00  0.00     0.031 H 
ATOM     48  H10 6T9 d   1       5.814 -26.508  18.783  0.00  0.00     0.031 H 
ATOM     49  H11 6T9 d   1       4.289 -27.359  18.363  0.00  0.00     0.031 H 
ENDBRANCH  32  46
ENDBRANCH   1  32
TORSDOF 7
