REMARK  3 active torsions:
REMARK  status: ('A' for Active; 'I' for Inactive)
REMARK    1  A    between atoms: C7_7  and  C10_10 
REMARK    2  A    between atoms: C10_10  and  O12_12 
REMARK    3  A    between atoms: O12_12  and  C13_13 
ROOT
ATOM      1  C1  92P d   1     -20.813  26.503  -3.013  0.00  0.00    -0.065 A 
ATOM      2  C2  92P d   1     -22.096  27.027  -2.991  0.00  0.00     0.004 A 
ATOM      3  N3  92P d   1     -22.364  28.340  -2.899  0.00  0.00    -0.242 NA
ATOM      4  C4  92P d   1     -19.735  27.372  -2.929  0.00  0.00    -0.067 A 
ATOM      5  N5  92P d   1     -21.346  30.543  -2.743  0.00  0.00    -0.349 N 
ATOM      6  C6  92P d   1     -20.055  30.996  -2.710  0.00  0.00    -0.004 A 
ATOM      7  C7  92P d   1     -19.176  29.933  -2.755  0.00  0.00     0.069 A 
ATOM      8  C8  92P d   1     -19.989  28.738  -2.820  0.00  0.00     0.028 A 
ATOM      9  C9  92P d   1     -21.313  29.180  -2.809  0.00  0.00     0.138 A 
ATOM     10  H1  92P d   1     -20.655  25.434  -3.094  0.00  0.00     0.085 H 
ATOM     11  H2  92P d   1     -22.931  26.338  -3.051  0.00  0.00     0.114 H 
ATOM     12  H3  92P d   1     -18.718  26.997  -2.948  0.00  0.00     0.085 H 
ATOM     13  H4  92P d   1     -22.194  31.128  -2.722  0.00  0.00     0.167 HD
ATOM     14  H5  92P d   1     -19.763  32.044  -2.656  0.00  0.00     0.113 H 
ENDROOT
BRANCH   7  15
ATOM     15  C10 92P d   1     -17.692  29.948  -2.790  0.00  0.00     0.295 C 
ATOM     16  O11 92P d   1     -16.999  28.959  -2.827  0.00  0.00    -0.259 OA
BRANCH  15  17
ATOM     17  O12 92P d   1     -17.211  31.193  -2.801  0.00  0.00    -0.322 OA
BRANCH  17  18
ATOM     18  C13 92P d   1     -15.775  31.329  -2.699  0.00  0.00     0.013 C 
ATOM     19  H6  92P d   1     -15.505  32.395  -2.719  0.00  0.00     0.067 H 
ATOM     20  H7  92P d   1     -15.297  30.814  -3.545  0.00  0.00     0.067 H 
ATOM     21  H8  92P d   1     -15.430  30.881  -1.755  0.00  0.00     0.067 H 
ENDBRANCH  17  18
ENDBRANCH  15  17
ENDBRANCH   7  15
TORSDOF 3
