REMARK  4 active torsions:
REMARK  status: ('A' for Active; 'I' for Inactive)
REMARK       I    between atoms: C14_2  and  N4_3 
REMARK    1  A    between atoms: C14_2  and  C11_4 
REMARK    2  A    between atoms: N3_7  and  C8_10 
REMARK    3  A    between atoms: C8_10  and  O2_11 
REMARK    4  A    between atoms: O2_11  and  C7_12 
ROOT
ATOM      1  C11 HI6 d   1      36.865  21.173  10.047  0.00  0.00     0.034 A 
ATOM      2  C10 HI6 d   1      36.757  22.333  10.799  0.00  0.00    -0.053 A 
ATOM      3  C9  HI6 d   1      35.681  23.191  10.597  0.00  0.00    -0.018 A 
ATOM      4  N3  HI6 d   1      34.737  22.902   9.691  0.00  0.00    -0.345 N 
ATOM      5  C13 HI6 d   1      34.818  21.783   8.948  0.00  0.00    -0.018 A 
ATOM      6  C12 HI6 d   1      35.881  20.892   9.106  0.00  0.00    -0.053 A 
ATOM      7  H3  HI6 d   1      37.509  22.571  11.543  0.00  0.00     0.087 H 
ATOM      8  H4  HI6 d   1      35.605  24.103  11.178  0.00  0.00     0.111 H 
ATOM      9  H5  HI6 d   1      34.047  21.570   8.216  0.00  0.00     0.111 H 
ATOM     10  H6  HI6 d   1      35.938  19.993   8.503  0.00  0.00     0.087 H 
ENDROOT
BRANCH   4  11
ATOM     11  C8  HI6 d   1      33.616  23.835   9.521  0.00  0.00     0.082 C 
ATOM     12  H7  HI6 d   1      33.673  24.308   8.530  0.00  0.00     0.107 H 
ATOM     13  H8  HI6 d   1      33.656  24.610  10.300  0.00  0.00     0.107 H 
BRANCH  11  14
ATOM     14  O2  HI6 d   1      32.397  23.099   9.635  0.00  0.00    -0.377 OA
BRANCH  14  15
ATOM     15  C7  HI6 d   1      31.253  23.920   9.878  0.00  0.00     0.006 C 
ATOM     16  H9  HI6 d   1      30.357  23.287   9.954  0.00  0.00     0.066 H 
ATOM     17  H10 HI6 d   1      31.130  24.632   9.049  0.00  0.00     0.066 H 
ATOM     18  H11 HI6 d   1      31.392  24.473  10.819  0.00  0.00     0.066 H 
ENDBRANCH  14  15
ENDBRANCH  11  14
ENDBRANCH   4  11
BRANCH   1  19
ATOM     19  C14 HI6 d   1      38.031  20.249  10.274  0.00  0.00     0.249 C 
ATOM     20  O3  HI6 d   1      38.016  19.112   9.832  0.00  0.00    -0.268 OA
ATOM     21  N4  HI6 d   1      39.065  20.688  10.988  0.00  0.00    -0.366 N 
ATOM     22  H1  HI6 d   1      39.066  21.622  11.345  0.00  0.00     0.159 HD
ATOM     23  H2  HI6 d   1      39.841  20.084  11.168  0.00  0.00     0.159 HD
ENDBRANCH   1  19
TORSDOF 4
