REMARK  2 active torsions:
REMARK  status: ('A' for Active; 'I' for Inactive)
REMARK    1  A    between atoms: C1_1  and  O1_2 
REMARK    2  A    between atoms: C1_1  and  C6_5 
ROOT
ATOM      1  C1  MT8 d   1     -17.269  29.354  -3.035  0.00  0.00     0.085 C 
ATOM      2  C2  MT8 d   1     -18.494  30.236  -3.251  0.00  0.00    -0.017 C 
ATOM      3  C3  MT8 d   1     -19.699  29.760  -2.449  0.00  0.00     0.006 C 
ATOM      4  N7  MT8 d   1     -20.102  28.391  -2.825  0.00  0.00    -0.317 N 
ATOM      5  C8  MT8 d   1     -21.424  28.034  -2.880  0.00  0.00     0.224 C 
ATOM      6  O8  MT8 d   1     -22.344  28.800  -2.595  0.00  0.00    -0.273 OA
ATOM      7  C9  MT8 d   1     -21.733  26.623  -3.300  0.00  0.00     0.013 C 
ATOM      8  C10 MT8 d   1     -20.693  25.598  -2.940  0.00  0.00    -0.031 C 
ATOM      9  C11 MT8 d   1     -19.278  26.068  -3.164  0.00  0.00    -0.030 A 
ATOM     10  C12 MT8 d   1     -18.244  25.156  -3.383  0.00  0.00    -0.075 A 
ATOM     11  C13 MT8 d   1     -16.928  25.580  -3.504  0.00  0.00    -0.082 A 
ATOM     12  C14 MT8 d   1     -16.612  26.928  -3.395  0.00  0.00    -0.072 A 
ATOM     13  C15 MT8 d   1     -18.976  27.445  -3.060  0.00  0.00     0.052 A 
ATOM     14  C20 MT8 d   1     -17.619  27.865  -3.168  0.00  0.00     0.003 A 
ATOM     15  H2  MT8 d   1     -18.754  30.225  -4.320  0.00  0.00     0.040 H 
ATOM     16  H3  MT8 d   1     -18.248  31.263  -2.944  0.00  0.00     0.040 H 
ATOM     17  H4  MT8 d   1     -20.542  30.442  -2.634  0.00  0.00     0.065 H 
ATOM     18  H5  MT8 d   1     -19.443  29.774  -1.379  0.00  0.00     0.065 H 
ATOM     19  H9  MT8 d   1     -21.854  26.614  -4.393  0.00  0.00     0.047 H 
ATOM     20  H10 MT8 d   1     -22.679  26.327  -2.824  0.00  0.00     0.047 H 
ATOM     21  H11 MT8 d   1     -20.862  24.701  -3.553  0.00  0.00     0.040 H 
ATOM     22  H12 MT8 d   1     -20.810  25.343  -1.877  0.00  0.00     0.040 H 
ATOM     23  H13 MT8 d   1     -18.473  24.099  -3.460  0.00  0.00     0.084 H 
ATOM     24  H14 MT8 d   1     -16.142  24.855  -3.685  0.00  0.00     0.083 H 
ATOM     25  H15 MT8 d   1     -15.582  27.252  -3.486  0.00  0.00     0.084 H 
ENDROOT
BRANCH   1  26
ATOM     26  O1  MT8 d   1     -16.855  29.596  -1.748  0.00  0.00    -0.385 OA
ATOM     27  H1  MT8 d   1     -16.088  29.068  -1.559  0.00  0.00     0.211 HD
ENDBRANCH   1  26
BRANCH   1  28
ATOM     28  C6  MT8 d   1     -16.108  29.755  -3.959  0.00  0.00    -0.044 C 
ATOM     29  H6  MT8 d   1     -16.395  29.578  -5.006  0.00  0.00     0.032 H 
ATOM     30  H7  MT8 d   1     -15.220  29.153  -3.715  0.00  0.00     0.032 H 
ATOM     31  H8  MT8 d   1     -15.878  30.821  -3.817  0.00  0.00     0.032 H 
ENDBRANCH   1  28
TORSDOF 2
