REMARK  4 active torsions:
REMARK  status: ('A' for Active; 'I' for Inactive)
REMARK    1  A    between atoms: C6_6  and  C4_4 
REMARK    2  A    between atoms: O7_7  and  C6_6 
REMARK    3  A    between atoms: C11_10  and  O7_7 
REMARK    4  A    between atoms: C19_17  and  O21_18 
ROOT
ATOM      1  C8  5EZ d   1     -20.802  26.937  -2.890  0.00  0.00    -0.072 C 
ATOM      2  C9  5EZ d   1     -19.543  26.145  -2.710  0.00  0.00     0.063 C 
ATOM      3  C11 5EZ d   1     -18.375  26.732  -3.467  0.00  0.00     0.075 C 
ATOM      4  C13 5EZ d   1     -18.227  28.183  -3.114  0.00  0.00    -0.063 C 
ATOM      5  C14 5EZ d   1     -20.699  28.264  -2.935  0.00  0.00    -0.002 C 
ATOM      6  C15 5EZ d   1     -19.365  28.950  -2.970  0.00  0.00    -0.026 C 
ATOM      7  C16 5EZ d   1     -19.328  30.368  -2.736  0.00  0.00    -0.058 C 
ATOM      8  C17 5EZ d   1     -20.472  31.081  -2.640  0.00  0.00    -0.024 C 
ATOM      9  N18 5EZ d   1     -21.766  30.526  -2.767  0.00  0.00    -0.370 N 
ATOM     10  C19 5EZ d   1     -21.941  29.128  -3.066  0.00  0.00     0.127 C 
ATOM     11 CL2  5EZ d   1     -19.805  24.416  -3.295  0.00  0.00    -0.118 Cl
ATOM     12  H12 5EZ d   1     -21.769  26.444  -2.981  0.00  0.00     0.080 H 
ATOM     13  H13 5EZ d   1     -19.294  26.130  -1.639  0.00  0.00     0.075 H 
ATOM     14  H14 5EZ d   1     -18.544  26.639  -4.550  0.00  0.00     0.092 H 
ATOM     15  H15 5EZ d   1     -17.240  28.622  -2.974  0.00  0.00     0.082 H 
ATOM     16  H16 5EZ d   1     -18.368  30.873  -2.635  0.00  0.00     0.086 H 
ATOM     17  H17 5EZ d   1     -20.392  32.151  -2.453  0.00  0.00     0.110 H 
ATOM     18  H18 5EZ d   1     -22.593  31.128  -2.644  0.00  0.00     0.161 HD
ATOM     19  H19 5EZ d   1     -22.202  29.108  -4.134  0.00  0.00     0.125 H 
ENDROOT
BRANCH   3  20
ATOM     20  O7  5EZ d   1     -17.207  25.985  -3.095  0.00  0.00    -0.380 OA
BRANCH  20  21
ATOM     21  C6  5EZ d   1     -15.981  26.286  -3.771  0.00  0.00     0.025 C 
ATOM     22  H10 5EZ d   1     -16.148  26.419  -4.850  0.00  0.00     0.075 H 
ATOM     23  H11 5EZ d   1     -15.515  27.193  -3.358  0.00  0.00     0.075 H 
BRANCH  21  24
ATOM     24  C4  5EZ d   1     -15.125  25.065  -3.501  0.00  0.00    -0.009 C 
ATOM     25  C2  5EZ d   1     -15.414  23.913  -4.507  0.00  0.00     0.087 C 
ATOM     26  N1  5EZ d   1     -14.169  23.080  -4.485  0.00  0.00    -0.075 N 
ATOM     27  H3  5EZ d   1     -16.284  23.322  -4.183  0.00  0.00     0.076 H 
ATOM     28  H4  5EZ d   1     -15.597  24.313  -5.515  0.00  0.00     0.076 H 
ATOM     29  C3  5EZ d   1     -13.053  24.064  -4.372  0.00  0.00     0.082 C 
ATOM     30  H1  5EZ d   1     -14.085  22.544  -5.335  0.00  0.00     0.277 HD
ATOM     31  H2  5EZ d   1     -14.173  22.456  -3.693  0.00  0.00     0.277 HD
ATOM     32  C5  5EZ d   1     -13.642  25.356  -3.729  0.00  0.00    -0.036 C 
ATOM     33  H5  5EZ d   1     -12.648  24.290  -5.369  0.00  0.00     0.075 H 
ATOM     34  H6  5EZ d   1     -12.254  23.657  -3.735  0.00  0.00     0.075 H 
ATOM     35  H8  5EZ d   1     -13.519  26.213  -4.408  0.00  0.00     0.036 H 
ATOM     36  H9  5EZ d   1     -13.142  25.571  -2.773  0.00  0.00     0.036 H 
ATOM     37  H7  5EZ d   1     -15.300  24.729  -2.468  0.00  0.00     0.045 H 
ENDBRANCH  21  24
ENDBRANCH  20  21
ENDBRANCH   3  20
BRANCH  10  38
ATOM     38  O21 5EZ d   1     -22.978  28.522  -2.424  0.00  0.00    -0.373 OA
ATOM     39  H20 5EZ d   1     -23.017  27.608  -2.680  0.00  0.00     0.212 HD
ENDBRANCH  10  38
TORSDOF 4
