REMARK  1 active torsions:
REMARK  status: ('A' for Active; 'I' for Inactive)
REMARK    1  A    between atoms: CAE_10  and  NAI_12 
ROOT
ATOM      1  CAK YSO d   1     -18.508  26.520  -3.105  0.00  0.00     0.100 C 
ATOM      2  NAA YSO d   1     -18.271  25.421  -3.289  0.00  0.00    -0.191 NA
ATOM      3  CAC YSO d   1     -18.750  27.922  -2.896  0.00  0.00     0.061 A 
ATOM      4  CAB YSO d   1     -17.659  28.786  -2.801  0.00  0.00    -0.062 A 
ATOM      5  CAD YSO d   1     -17.852  30.149  -2.680  0.00  0.00    -0.079 A 
ATOM      6  CAL YSO d   1     -19.135  30.674  -2.627  0.00  0.00    -0.052 A 
ATOM      7  CAH YSO d   1     -20.232  29.819  -2.717  0.00  0.00     0.092 A 
ATOM      8  NAM YSO d   1     -21.562  30.065  -2.745  0.00  0.00    -0.172 NA
ATOM      9  NAJ YSO d   1     -22.287  28.918  -2.865  0.00  0.00    -0.262 N 
ATOM     10  CAE YSO d   1     -21.410  27.887  -2.934  0.00  0.00     0.129 A 
ATOM     11  C5  YSO d   1     -20.070  28.424  -2.848  0.00  0.00     0.060 A 
ATOM     12  H1  YSO d   1     -16.652  28.385  -2.822  0.00  0.00     0.085 H 
ATOM     13  H2  YSO d   1     -16.996  30.812  -2.626  0.00  0.00     0.083 H 
ATOM     14  H3  YSO d   1     -19.283  31.742  -2.516  0.00  0.00     0.087 H 
ATOM     15  H4  YSO d   1     -23.314  28.847  -2.897  0.00  0.00     0.191 HD
ENDROOT
BRANCH  10  16
ATOM     16  NAI YSO d   1     -21.809  26.614  -3.070  0.00  0.00    -0.384 N 
ATOM     17  H5  YSO d   1     -21.111  25.858  -3.119  0.00  0.00     0.157 HD
ATOM     18  H6  YSO d   1     -22.813  26.392  -3.126  0.00  0.00     0.157 HD
ENDBRANCH  10  16
TORSDOF 1
