REMARK  2 active torsions:
REMARK  status: ('A' for Active; 'I' for Inactive)
REMARK    1  A    between atoms: C7_11  and  O9_12 
REMARK    2  A    between atoms: O9_12  and  C5_13 
ROOT
ATOM      1 CL21 22T d   1     -19.019  25.290  -3.261  0.00  0.00    -0.081 Cl
ATOM      2  C14 22T d   1     -19.153  27.008  -3.044  0.00  0.00     0.068 A 
ATOM      3  C13 22T d   1     -20.410  27.566  -2.916  0.00  0.00    -0.043 A 
ATOM      4  C10 22T d   1     -20.551  28.949  -2.810  0.00  0.00     0.042 A 
ATOM      5  C11 22T d   1     -21.897  29.539  -2.760  0.00  0.00     0.277 A 
ATOM      6  O13 22T d   1     -22.918  28.877  -2.627  0.00  0.00    -0.265 OA
ATOM      7  N20 22T d   1     -21.936  30.928  -2.764  0.00  0.00    -0.226 NA
ATOM      8  C12 22T d   1     -20.821  31.706  -2.760  0.00  0.00    -0.010 A 
ATOM      9  C9  22T d   1     -19.393  29.770  -2.813  0.00  0.00    -0.035 A 
ATOM     10  C8  22T d   1     -18.133  29.177  -2.916  0.00  0.00    -0.042 A 
ATOM     11  C7  22T d   1     -18.005  27.800  -3.032  0.00  0.00     0.091 A 
ATOM     12  C15 22T d   1     -19.548  31.200  -2.769  0.00  0.00    -0.009 A 
ATOM     13  H1  22T d   1     -21.287  26.929  -2.898  0.00  0.00     0.087 H 
ATOM     14  H2  22T d   1     -20.946  32.788  -2.749  0.00  0.00     0.108 H 
ATOM     15  H3  22T d   1     -17.245  29.799  -2.905  0.00  0.00     0.088 H 
ATOM     16  H7  22T d   1     -19.047  31.556  -1.857  0.00  0.00     0.048 H 
ATOM     17  H8  22T d   1     -19.038  31.612  -3.652  0.00  0.00     0.048 H 
ENDROOT
BRANCH  11  18
ATOM     18  O9  22T d   1     -16.808  27.127  -3.115  0.00  0.00    -0.342 OA
BRANCH  18  19
ATOM     19  C5  22T d   1     -15.542  27.873  -3.108  0.00  0.00     0.070 C 
ATOM     20  C6  22T d   1     -15.117  28.172  -4.580  0.00  0.00     0.106 C 
ATOM     21  N1  22T d   1     -14.097  27.173  -4.973  0.00  0.00    -0.073 N 
ATOM     22  H5  22T d   1     -14.693  29.185  -4.648  0.00  0.00     0.079 H 
ATOM     23  H6  22T d   1     -15.991  28.095  -5.244  0.00  0.00     0.079 H 
ATOM     24  C3  22T d   1     -13.988  26.185  -3.856  0.00  0.00     0.084 C 
ATOM     25  H13 22T d   1     -13.209  27.627  -5.120  0.00  0.00     0.277 HD
ATOM     26  H14 22T d   1     -14.380  26.706  -5.820  0.00  0.00     0.277 HD
ATOM     27  C4  22T d   1     -14.523  26.880  -2.582  0.00  0.00    -0.016 C 
ATOM     28  H11 22T d   1     -14.591  25.293  -4.081  0.00  0.00     0.075 H 
ATOM     29  H12 22T d   1     -12.938  25.891  -3.713  0.00  0.00     0.075 H 
ATOM     30  H9  22T d   1     -14.998  26.151  -1.909  0.00  0.00     0.039 H 
ATOM     31  H10 22T d   1     -13.712  27.397  -2.049  0.00  0.00     0.039 H 
ATOM     32  H4  22T d   1     -15.601  28.789  -2.502  0.00  0.00     0.086 H 
ENDBRANCH  18  19
ENDBRANCH  11  18
TORSDOF 2
