REMARK  6 active torsions:
REMARK  status: ('A' for Active; 'I' for Inactive)
REMARK    1  A    between atoms: S21_2  and  N23_4 
REMARK    2  A    between atoms: S21_2  and  C18_10 
REMARK    3  A    between atoms: C14_17  and  C13_18 
REMARK       I    between atoms: C13_18  and  N10_20 
REMARK    4  A    between atoms: N12_29  and  C32_32 
REMARK    5  A    between atoms: C32_32  and  C33_33 
REMARK    6  A    between atoms: C36_36  and  O39_37 
ROOT
ATOM      1  C13 IGM d   1     -31.071  37.354  -1.207  0.00  0.00     0.258 C 
ATOM      2  O15 IGM d   1     -31.234  36.869  -2.308  0.00  0.00    -0.267 OA
ATOM      3  N10 IGM d   1     -31.813  37.012  -0.150  0.00  0.00    -0.316 N 
ATOM      4  C5  IGM d   1     -32.784  36.064  -0.299  0.00  0.00     0.098 A 
ATOM      5  C2  IGM d   1     -33.723  35.590   0.740  0.00  0.00     0.086 A 
ATOM      6  C6  IGM d   1     -33.703  36.072   2.066  0.00  0.00     0.103 C 
ATOM      7  N11 IGM d   1     -33.690  36.393   3.178  0.00  0.00    -0.191 NA
ATOM      8  S7  IGM d   1     -33.111  35.227  -1.772  0.00  0.00    -0.073 SA
ATOM      9  C3  IGM d   1     -34.410  34.256  -1.145  0.00  0.00     0.018 A 
ATOM     10  C1  IGM d   1     -34.678  34.529   0.275  0.00  0.00    -0.018 A 
ATOM     11  C8  IGM d   1     -35.119  33.267  -2.005  0.00  0.00     0.114 C 
ATOM     12  N12 IGM d   1     -36.353  32.889  -1.326  0.00  0.00    -0.062 N 
ATOM     13  C9  IGM d   1     -36.827  33.366  -0.022  0.00  0.00     0.088 C 
ATOM     14  C4  IGM d   1     -35.753  33.764   0.984  0.00  0.00    -0.016 C 
ATOM     15  H11 IGM d   1     -31.659  37.445   0.738  0.00  0.00     0.169 HD
ATOM     16  H12 IGM d   1     -34.487  32.379  -2.154  0.00  0.00     0.084 H 
ATOM     17  H13 IGM d   1     -35.352  33.719  -2.981  0.00  0.00     0.084 H 
ATOM     18  H14 IGM d   1     -35.888  32.113  -0.881  0.00  0.00     0.280 HD
ATOM     19  H15 IGM d   1     -37.428  32.563   0.430  0.00  0.00     0.076 H 
ATOM     20  H16 IGM d   1     -37.463  34.246  -0.198  0.00  0.00     0.076 H 
ATOM     21  H17 IGM d   1     -36.198  34.394   1.768  0.00  0.00     0.042 H 
ATOM     22  H18 IGM d   1     -35.322  32.860   1.440  0.00  0.00     0.042 H 
ENDROOT
BRANCH   1  23
ATOM     23  C14 IGM d   1     -30.005  38.385  -1.101  0.00  0.00     0.055 A 
ATOM     24  C17 IGM d   1     -29.006  38.305  -0.154  0.00  0.00     0.051 A 
ATOM     25  C19 IGM d   1     -28.032  39.273  -0.081  0.00  0.00    -0.038 A 
ATOM     26 CL1  IGM d   1     -28.949  36.956   1.005  0.00  0.00    -0.083 Cl
ATOM     27  C22 IGM d   1     -28.054  40.328  -0.971  0.00  0.00     0.058 A 
ATOM     28  H9  IGM d   1     -27.253  39.208   0.670  0.00  0.00     0.088 H 
ATOM     29  C18 IGM d   1     -29.050  40.401  -1.916  0.00  0.00     0.097 A 
ATOM     30 CL2  IGM d   1     -26.785  41.608  -0.901  0.00  0.00    -0.083 Cl
ATOM     31  C16 IGM d   1     -30.037  39.434  -1.995  0.00  0.00    -0.042 A 
ATOM     32  H10 IGM d   1     -30.818  39.500  -2.744  0.00  0.00     0.087 H 
BRANCH  29  33
ATOM     33  S21 IGM d   1     -29.083  41.691  -2.987  0.00  0.00     0.245 S 
ATOM     34  O25 IGM d   1     -29.926  41.328  -4.083  0.00  0.00    -0.206 OA
ATOM     35  O24 IGM d   1     -29.675  42.831  -2.335  0.00  0.00    -0.206 OA
BRANCH  33  36
ATOM     36  N23 IGM d   1     -27.647  42.060  -3.411  0.00  0.00    -0.202 NA
ATOM     37  C27 IGM d   1     -27.024  41.078  -4.315  0.00  0.00     0.013 C 
ATOM     38  C29 IGM d   1     -25.598  41.497  -4.662  0.00  0.00     0.031 C 
ATOM     39  H1  IGM d   1     -27.616  41.011  -5.239  0.00  0.00     0.060 H 
ATOM     40  H2  IGM d   1     -27.002  40.095  -3.821  0.00  0.00     0.060 H 
ATOM     41  O31 IGM d   1     -25.253  42.724  -3.997  0.00  0.00    -0.389 OA
ATOM     42  H3  IGM d   1     -25.518  41.641  -5.750  0.00  0.00     0.076 H 
ATOM     43  H4  IGM d   1     -24.902  40.706  -4.345  0.00  0.00     0.076 H 
ATOM     44  C30 IGM d   1     -26.123  43.829  -4.263  0.00  0.00     0.031 C 
ATOM     45  C28 IGM d   1     -27.560  43.451  -3.907  0.00  0.00     0.013 C 
ATOM     46  H5  IGM d   1     -26.067  44.090  -5.330  0.00  0.00     0.076 H 
ATOM     47  H6  IGM d   1     -25.812  44.693  -3.658  0.00  0.00     0.076 H 
ATOM     48  H7  IGM d   1     -27.926  44.133  -3.125  0.00  0.00     0.060 H 
ATOM     49  H8  IGM d   1     -28.189  43.551  -4.804  0.00  0.00     0.060 H 
ENDBRANCH  33  36
ENDBRANCH  29  33
ENDBRANCH   1  23
BRANCH  12  50
ATOM     50  C32 IGM d   1     -37.233  32.023  -2.078  0.00  0.00     0.107 C 
ATOM     51  H19 IGM d   1     -36.666  31.604  -2.922  0.00  0.00     0.083 H 
ATOM     52  H20 IGM d   1     -38.069  32.627  -2.461  0.00  0.00     0.083 H 
BRANCH  50  53
ATOM     53  C33 IGM d   1     -37.804  30.879  -1.275  0.00  0.00    -0.032 A 
ATOM     54  C38 IGM d   1     -39.180  30.692  -1.260  0.00  0.00    -0.073 A 
ATOM     55  C37 IGM d   1     -39.742  29.640  -0.544  0.00  0.00    -0.051 A 
ATOM     56  H21 IGM d   1     -39.821  31.371  -1.810  0.00  0.00     0.084 H 
ATOM     57  C36 IGM d   1     -38.924  28.752   0.143  0.00  0.00     0.065 A 
ATOM     58  H22 IGM d   1     -40.818  29.513  -0.522  0.00  0.00     0.087 H 
ATOM     59  C35 IGM d   1     -37.546  28.936   0.105  0.00  0.00    -0.051 A 
ATOM     60  C34 IGM d   1     -36.985  29.989  -0.604  0.00  0.00    -0.073 A 
ATOM     61  H24 IGM d   1     -36.900  28.247   0.637  0.00  0.00     0.087 H 
ATOM     62  H25 IGM d   1     -35.908  30.113  -0.632  0.00  0.00     0.084 H 
BRANCH  57  63
ATOM     63  O39 IGM d   1     -39.478  27.714   0.847  0.00  0.00    -0.361 OA
ATOM     64  H23 IGM d   1     -39.973  27.160   0.255  0.00  0.00     0.217 HD
ENDBRANCH  57  63
ENDBRANCH  50  53
ENDBRANCH  12  50
TORSDOF 6
