REMARK  7 active torsions:
REMARK  status: ('A' for Active; 'I' for Inactive)
REMARK    1  A    between atoms: S21_2  and  N23_4 
REMARK    2  A    between atoms: S21_2  and  C18_10 
REMARK    3  A    between atoms: C14_17  and  C13_18 
REMARK       I    between atoms: C13_18  and  N10_20 
REMARK    4  A    between atoms: N10_20  and  C5_21 
REMARK    5  A    between atoms: N12_28  and  C32_32 
REMARK    6  A    between atoms: C32_32  and  C33_33 
REMARK    7  A    between atoms: C36_36  and  C06_39 
ROOT
ATOM      1  C5  2GN d   1      31.564  35.064   0.290  0.00  0.00     0.098 A 
ATOM      2  C2  2GN d   1      32.407  34.670  -0.747  0.00  0.00     0.086 A 
ATOM      3  C6  2GN d   1      32.305  35.228  -2.037  0.00  0.00     0.103 C 
ATOM      4  N11 2GN d   1      32.239  35.732  -3.089  0.00  0.00    -0.191 NA
ATOM      5  S7  2GN d   1      32.000  34.225   1.713  0.00  0.00    -0.073 SA
ATOM      6  C3  2GN d   1      33.269  33.289   0.914  0.00  0.00     0.018 A 
ATOM      7  C8  2GN d   1      34.046  32.321   1.715  0.00  0.00     0.114 C 
ATOM      8  N12 2GN d   1      34.907  31.569   0.820  0.00  0.00    -0.062 N 
ATOM      9  C9  2GN d   1      34.985  31.728  -0.637  0.00  0.00     0.088 C 
ATOM     10  C4  2GN d   1      34.445  32.996  -1.297  0.00  0.00    -0.016 C 
ATOM     11  C1  2GN d   1      33.422  33.636  -0.406  0.00  0.00    -0.018 A 
ATOM     12  H12 2GN d   1      33.361  31.635   2.235  0.00  0.00     0.084 H 
ATOM     13  H13 2GN d   1      34.658  32.858   2.455  0.00  0.00     0.084 H 
ATOM     14  H14 2GN d   1      35.623  32.272   0.919  0.00  0.00     0.280 HD
ATOM     15  H15 2GN d   1      34.437  30.882  -1.079  0.00  0.00     0.076 H 
ATOM     16  H16 2GN d   1      36.049  31.657  -0.908  0.00  0.00     0.076 H 
ATOM     17  H17 2GN d   1      33.980  32.737  -2.260  0.00  0.00     0.042 H 
ATOM     18  H18 2GN d   1      35.273  33.700  -1.467  0.00  0.00     0.042 H 
ENDROOT
BRANCH   1  19
ATOM     19  N10 2GN d   1      30.581  35.988   0.188  0.00  0.00    -0.316 N 
ATOM     20  C13 2GN d   1      29.778  36.275   1.366  0.00  0.00     0.258 C 
ATOM     21  O15 2GN d   1      30.009  35.805   2.466  0.00  0.00    -0.267 OA
ATOM     22  H11 2GN d   1      30.411  36.462  -0.676  0.00  0.00     0.169 HD
BRANCH  20  23
ATOM     23  C14 2GN d   1      28.742  37.314   1.193  0.00  0.00     0.055 A 
ATOM     24  C16 2GN d   1      28.778  38.401   2.073  0.00  0.00    -0.042 A 
ATOM     25  C18 2GN d   1      27.887  39.445   1.899  0.00  0.00     0.097 A 
ATOM     26  H9  2GN d   1      29.497  38.425   2.884  0.00  0.00     0.087 H 
ATOM     27  C22 2GN d   1      26.933  39.377   0.874  0.00  0.00     0.058 A 
ATOM     28 CL2  2GN d   1      25.736  40.634   0.532  0.00  0.00    -0.083 Cl
ATOM     29  C19 2GN d   1      26.902  38.296   0.012  0.00  0.00    -0.038 A 
ATOM     30  C17 2GN d   1      27.813  37.276   0.149  0.00  0.00     0.051 A 
ATOM     31  H10 2GN d   1      26.157  38.253  -0.774  0.00  0.00     0.088 H 
ATOM     32 CL1  2GN d   1      27.689  35.924  -0.997  0.00  0.00    -0.083 Cl
BRANCH  25  33
ATOM     33  S21 2GN d   1      27.967  40.677   2.961  0.00  0.00     0.245 S 
ATOM     34  O25 2GN d   1      28.835  40.295   4.035  0.00  0.00    -0.206 OA
ATOM     35  O24 2GN d   1      28.341  41.914   2.358  0.00  0.00    -0.206 OA
BRANCH  33  36
ATOM     36  N23 2GN d   1      26.406  40.859   3.605  0.00  0.00    -0.202 NA
ATOM     37  C28 2GN d   1      26.032  42.232   3.930  0.00  0.00     0.013 C 
ATOM     38  C30 2GN d   1      24.521  42.124   3.900  0.00  0.00     0.031 C 
ATOM     39  H1  2GN d   1      26.403  42.943   3.177  0.00  0.00     0.060 H 
ATOM     40  H2  2GN d   1      26.398  42.528   4.924  0.00  0.00     0.060 H 
ATOM     41  O31 2GN d   1      24.083  41.180   4.880  0.00  0.00    -0.389 OA
ATOM     42  H3  2GN d   1      24.198  41.791   2.902  0.00  0.00     0.076 H 
ATOM     43  H4  2GN d   1      24.080  43.108   4.118  0.00  0.00     0.076 H 
ATOM     44  C29 2GN d   1      24.545  39.857   4.584  0.00  0.00     0.031 C 
ATOM     45  C27 2GN d   1      26.076  39.872   4.600  0.00  0.00     0.013 C 
ATOM     46  H5  2GN d   1      24.186  39.550   3.591  0.00  0.00     0.076 H 
ATOM     47  H6  2GN d   1      24.171  39.153   5.342  0.00  0.00     0.076 H 
ATOM     48  H7  2GN d   1      26.457  40.166   5.589  0.00  0.00     0.060 H 
ATOM     49  H8  2GN d   1      26.483  38.887   4.328  0.00  0.00     0.060 H 
ENDBRANCH  33  36
ENDBRANCH  25  33
ENDBRANCH  20  23
ENDBRANCH   1  19
BRANCH   8  50
ATOM     50  C32 2GN d   1      35.740  30.578   1.471  0.00  0.00     0.107 C 
ATOM     51  H19 2GN d   1      35.151  30.106   2.271  0.00  0.00     0.083 H 
ATOM     52  H20 2GN d   1      36.608  31.092   1.909  0.00  0.00     0.083 H 
BRANCH  50  53
ATOM     53  C33 2GN d   1      36.252  29.482   0.546  0.00  0.00    -0.033 A 
ATOM     54  C38 2GN d   1      35.463  28.921  -0.463  0.00  0.00    -0.074 A 
ATOM     55  C37 2GN d   1      35.980  27.923  -1.287  0.00  0.00    -0.069 A 
ATOM     56  H21 2GN d   1      34.444  29.264  -0.605  0.00  0.00     0.084 H 
ATOM     57  C36 2GN d   1      37.297  27.490  -1.077  0.00  0.00     0.015 A 
ATOM     58  H22 2GN d   1      35.375  27.490  -2.075  0.00  0.00     0.085 H 
ATOM     59  C35 2GN d   1      38.088  28.047  -0.064  0.00  0.00    -0.069 A 
ATOM     60  C34 2GN d   1      37.565  29.046   0.745  0.00  0.00    -0.074 A 
ATOM     61  H23 2GN d   1      39.104  27.700   0.087  0.00  0.00     0.085 H 
ATOM     62  H24 2GN d   1      38.172  29.486   1.528  0.00  0.00     0.084 H 
BRANCH  57  63
ATOM     63  C06 2GN d   1      37.910  26.431  -1.935  0.00  0.00     0.197 A 
ATOM     64  N01 2GN d   1      37.756  26.341  -3.282  0.00  0.00    -0.136 NA
ATOM     65  N04 2GN d   1      38.497  25.237  -3.738  0.00  0.00     0.022 NA
ATOM     66  N05 2GN d   1      39.122  24.674  -2.613  0.00  0.00    -0.200 N 
ATOM     67  N02 2GN d   1      38.736  25.445  -1.506  0.00  0.00    -0.139 NA
ATOM     68  H25 2GN d   1      39.744  23.853  -2.603  0.00  0.00     0.208 HD
ENDBRANCH  57  63
ENDBRANCH  50  53
ENDBRANCH   8  50
TORSDOF 7
