REMARK  5 active torsions:
REMARK  status: ('A' for Active; 'I' for Inactive)
REMARK    1  A    between atoms: C7_9  and  C4_3 
REMARK       I    between atoms: N9_6  and  C7_9 
REMARK    2  A    between atoms: C12_13  and  N9_6 
REMARK    3  A    between atoms: C5_27  and  C16_16 
REMARK    4  A    between atoms: C5_27  and  C20_19 
REMARK    5  A    between atoms: C23_21  and  N24_28 
ROOT
ATOM      1  C2  6Z0 d   1     -21.589  43.697   2.436  0.00  0.00    -0.059 A 
ATOM      2  C3  6Z0 d   1     -21.759  43.068   3.648  0.00  0.00    -0.048 A 
ATOM      3  C4  6Z0 d   1     -20.819  42.132   4.077  0.00  0.00     0.124 A 
ATOM      4  N5  6Z0 d   1     -19.738  41.869   3.357  0.00  0.00    -0.254 NA
ATOM      5  C6  6Z0 d   1     -19.526  42.490   2.220  0.00  0.00     0.023 A 
ATOM      6  C1  6Z0 d   1     -20.428  43.417   1.708  0.00  0.00     0.062 A 
ATOM      7  C10 6Z0 d   1     -20.213  44.023   0.428  0.00  0.00     0.101 C 
ATOM      8  N11 6Z0 d   1     -20.006  44.492  -0.599  0.00  0.00    -0.191 NA
ATOM      9  H1  6Z0 d   1     -22.332  44.389   2.057  0.00  0.00     0.086 H 
ATOM     10  H2  6Z0 d   1     -22.619  43.299   4.266  0.00  0.00     0.087 H 
ATOM     11  H3  6Z0 d   1     -18.621  42.274   1.664  0.00  0.00     0.117 H 
ENDROOT
BRANCH   3  12
ATOM     12  C7  6Z0 d   1     -20.947  41.484   5.386  0.00  0.00     0.274 C 
ATOM     13  N9  6Z0 d   1     -19.830  40.887   5.869  0.00  0.00    -0.322 N 
ATOM     14  H4  6Z0 d   1     -19.038  40.900   5.259  0.00  0.00     0.169 HD
ATOM     15  O8  6Z0 d   1     -22.016  41.537   5.975  0.00  0.00    -0.266 OA
BRANCH  13  16
ATOM     16  C12 6Z0 d   1     -19.631  40.256   7.100  0.00  0.00     0.035 A 
ATOM     17  C13 6Z0 d   1     -20.666  39.853   7.953  0.00  0.00    -0.054 A 
ATOM     18  C14 6Z0 d   1     -20.361  39.287   9.170  0.00  0.00    -0.043 A 
ATOM     19  H5  6Z0 d   1     -21.700  39.986   7.657  0.00  0.00     0.087 H 
ATOM     20  C15 6Z0 d   1     -19.054  39.132   9.556  0.00  0.00     0.125 A 
ATOM     21  H6  6Z0 d   1     -21.159  38.962   9.828  0.00  0.00     0.088 H 
ATOM     22  C16 6Z0 d   1     -18.010  39.526   8.715  0.00  0.00     0.016 A 
ATOM     23  F18 6Z0 d   1     -18.758  38.586  10.739  0.00  0.00    -0.205 F 
ATOM     24  C17 6Z0 d   1     -18.318  40.096   7.527  0.00  0.00    -0.045 A 
ATOM     25  H7  6Z0 d   1     -17.514  40.439   6.887  0.00  0.00     0.088 H 
BRANCH  22  26
ATOM     26  C5  6Z0 d   1     -16.579  39.355   9.125  0.00  0.00     0.128 C 
ATOM     27  N28 6Z0 d   1     -15.717  39.419   7.939  0.00  0.00    -0.337 N 
ATOM     28  C23 6Z0 d   1     -15.071  40.501   7.617  0.00  0.00     0.213 C 
ATOM     29  H11 6Z0 d   1     -15.621  38.583   7.345  0.00  0.00     0.164 HD
ATOM     30  O22 6Z0 d   1     -15.090  41.665   8.242  0.00  0.00    -0.316 OA
ATOM     31  C60 6Z0 d   1     -16.034  41.809   9.327  0.00  0.00     0.092 C 
ATOM     32  C25 6Z0 d   1     -16.112  40.492  10.069  0.00  0.00     0.293 C 
ATOM     33  H12 6Z0 d   1     -17.025  42.069   8.926  0.00  0.00     0.084 H 
ATOM     34  H13 6Z0 d   1     -15.696  42.602  10.011  0.00  0.00     0.084 H 
ATOM     35  F26 6Z0 d   1     -14.848  40.229  10.607  0.00  0.00    -0.201 F 
ATOM     36  F27 6Z0 d   1     -17.018  40.614  11.134  0.00  0.00    -0.201 F 
BRANCH  26  37
ATOM     37  C20 6Z0 d   1     -16.326  37.957   9.704  0.00  0.00    -0.043 C 
ATOM     38  H8  6Z0 d   1     -15.269  37.866   9.994  0.00  0.00     0.031 H 
ATOM     39  H9  6Z0 d   1     -16.565  37.197   8.945  0.00  0.00     0.031 H 
ATOM     40  H10 6Z0 d   1     -16.963  37.806  10.588  0.00  0.00     0.031 H 
ENDBRANCH  26  37
BRANCH  28  41
ATOM     41  N24 6Z0 d   1     -14.258  40.523   6.521  0.00  0.00    -0.365 N 
ATOM     42  H14 6Z0 d   1     -14.152  39.678   5.941  0.00  0.00     0.159 HD
ATOM     43  H15 6Z0 d   1     -13.751  41.385   6.273  0.00  0.00     0.159 HD
ENDBRANCH  28  41
ENDBRANCH  22  26
ENDBRANCH  13  16
ENDBRANCH   3  12
TORSDOF 5
