REMARK  6 active torsions:
REMARK  status: ('A' for Active; 'I' for Inactive)
REMARK    1  A    between atoms: C5_2  and  O3_3 
REMARK       I    between atoms: C5_2  and  N1_9 
REMARK    2  A    between atoms: O3_3  and  C6_4 
REMARK    3  A    between atoms: N1_9  and  C4_10 
REMARK    4  A    between atoms: C4_10  and  C3_11 
REMARK    5  A    between atoms: C4_10  and  C11_14 
REMARK    6  A    between atoms: C3_11  and  C2_12 
ROOT
ATOM      1  O2  L62 d   1      -9.355   9.466 -49.062  0.00  0.00    -0.238 OA
ATOM      2  C5  L62 d   1      -9.923   8.640 -48.353  0.00  0.00     0.361 C 
ATOM      3  N1  L62 d   1     -10.452   7.433 -48.916  0.00  0.00    -0.328 N 
ATOM      4  H10 L62 d   1     -10.801   6.666 -48.377  0.00  0.00     0.165 HD
ENDROOT
BRANCH   3   5
ATOM      5  C4  L62 d   1     -10.418   7.464 -50.351  0.00  0.00     0.045 C 
ATOM      6  H11 L62 d   1     -10.089   8.459 -50.685  0.00  0.00     0.081 H 
BRANCH   5   7
ATOM      7  C3  L62 d   1     -11.796   7.200 -50.867  0.00  0.00     0.006 C 
ATOM      8  H12 L62 d   1     -12.096   6.172 -50.615  0.00  0.00     0.046 H 
ATOM      9  H13 L62 d   1     -11.815   7.330 -51.959  0.00  0.00     0.046 H 
BRANCH   7  10
ATOM     10  C2  L62 d   1     -12.733   8.168 -50.229  0.00  0.00     0.090 C 
ATOM     11  O1  L62 d   1     -12.498   9.377 -50.298  0.00  0.00    -0.307 OA
ATOM     12  H14 L62 d   1     -13.619   7.810 -49.706  0.00  0.00     0.143 H 
ENDBRANCH   7  10
ENDBRANCH   5   7
BRANCH   5  13
ATOM     13  C11 L62 d   1      -9.464   6.438 -50.873  0.00  0.00    -0.035 A 
ATOM     14  C12 L62 d   1      -9.812   5.668 -51.978  0.00  0.00    -0.075 A 
ATOM     15  C13 L62 d   1      -8.936   4.711 -52.472  0.00  0.00    -0.082 A 
ATOM     16  H15 L62 d   1     -10.773   5.816 -52.456  0.00  0.00     0.084 H 
ATOM     17  C14 L62 d   1      -7.697   4.520 -51.869  0.00  0.00    -0.083 A 
ATOM     18  H16 L62 d   1      -9.218   4.111 -53.330  0.00  0.00     0.083 H 
ATOM     19  C15 L62 d   1      -7.336   5.296 -50.774  0.00  0.00    -0.082 A 
ATOM     20  H17 L62 d   1      -7.016   3.769 -52.252  0.00  0.00     0.083 H 
ATOM     21  C16 L62 d   1      -8.218   6.243 -50.278  0.00  0.00    -0.075 A 
ATOM     22  H18 L62 d   1      -6.366   5.161 -50.309  0.00  0.00     0.083 H 
ATOM     23  H19 L62 d   1      -7.936   6.839 -49.418  0.00  0.00     0.084 H 
ENDBRANCH   5  13
ENDBRANCH   3   5
BRANCH   2  24
ATOM     24  O3  L62 d   1      -9.990   8.876 -46.995  0.00  0.00    -0.299 OA
BRANCH  24  25
ATOM     25  C6  L62 d   1      -9.075   9.739 -46.410  0.00  0.00     0.050 C 
ATOM     26  C7  L62 d   1      -9.728  11.055 -46.247  0.00  0.00    -0.040 C 
ATOM     27  C8  L62 d   1     -10.423  10.825 -44.943  0.00  0.00    -0.063 C 
ATOM     28  H2  L62 d   1     -10.439  11.264 -47.060  0.00  0.00     0.036 H 
ATOM     29  H3  L62 d   1      -8.994  11.872 -46.183  0.00  0.00     0.036 H 
ATOM     30  C9  L62 d   1      -9.360  10.147 -44.113  0.00  0.00    -0.063 C 
ATOM     31  H4  L62 d   1     -11.301  10.174 -45.071  0.00  0.00     0.033 H 
ATOM     32  H5  L62 d   1     -10.735  11.776 -44.487  0.00  0.00     0.033 H 
ATOM     33  C10 L62 d   1      -8.669   9.234 -45.070  0.00  0.00    -0.040 C 
ATOM     34  H6  L62 d   1      -9.814   9.576 -43.289  0.00  0.00     0.033 H 
ATOM     35  H7  L62 d   1      -8.656  10.886 -43.703  0.00  0.00     0.033 H 
ATOM     36  H8  L62 d   1      -7.578   9.291 -44.945  0.00  0.00     0.036 H 
ATOM     37  H9  L62 d   1      -9.001   8.195 -44.927  0.00  0.00     0.036 H 
ATOM     38  H1  L62 d   1      -8.188   9.834 -47.053  0.00  0.00     0.084 H 
ENDBRANCH  24  25
ENDBRANCH   2  24
TORSDOF 6
