REMARK  6 active torsions:
REMARK  status: ('A' for Active; 'I' for Inactive)
REMARK    1  A    between atoms: C2_2  and  C3_3 
REMARK    2  A    between atoms: C3_3  and  C4_4 
REMARK    3  A    between atoms: C4_4  and  C12_5 
REMARK    4  A    between atoms: C4_4  and  N1_11 
REMARK       I    between atoms: N1_11  and  C5_12 
REMARK    5  A    between atoms: C5_12  and  O3_14 
REMARK    6  A    between atoms: O3_14  and  C6_15 
ROOT
ATOM      1  C4  L6C d   1      11.597  -5.807  50.938  0.00  0.00     0.045 C 
ATOM      2  H4  L6C d   1      12.379  -5.051  51.104  0.00  0.00     0.081 H 
ENDROOT
BRANCH   1   3
ATOM      3  C3  L6C d   1      12.043  -7.094  51.489  0.00  0.00     0.006 C 
ATOM      4  H2  L6C d   1      12.139  -7.045  52.584  0.00  0.00     0.046 H 
ATOM      5  H3  L6C d   1      11.349  -7.903  51.218  0.00  0.00     0.046 H 
BRANCH   3   6
ATOM      6  C2  L6C d   1      13.363  -7.284  50.845  0.00  0.00     0.090 C 
ATOM      7  O1  L6C d   1      14.118  -6.335  50.737  0.00  0.00    -0.307 OA
ATOM      8  H1  L6C d   1      13.656  -8.264  50.471  0.00  0.00     0.143 H 
ENDBRANCH   3   6
ENDBRANCH   1   3
BRANCH   1   9
ATOM      9  C12 L6C d   1      10.315  -5.305  51.505  0.00  0.00    -0.035 A 
ATOM     10  C17 L6C d   1      10.299  -4.280  52.457  0.00  0.00    -0.075 A 
ATOM     11  C16 L6C d   1       9.104  -3.789  52.989  0.00  0.00    -0.082 A 
ATOM     12  H5  L6C d   1      11.239  -3.855  52.791  0.00  0.00     0.084 H 
ATOM     13  C15 L6C d   1       7.888  -4.311  52.571  0.00  0.00    -0.083 A 
ATOM     14  H6  L6C d   1       9.127  -2.998  53.730  0.00  0.00     0.083 H 
ATOM     15  C14 L6C d   1       7.882  -5.313  51.618  0.00  0.00    -0.082 A 
ATOM     16  H7  L6C d   1       6.958  -3.939  52.985  0.00  0.00     0.083 H 
ATOM     17  C13 L6C d   1       9.080  -5.797  51.089  0.00  0.00    -0.075 A 
ATOM     18  H8  L6C d   1       6.939  -5.726  51.279  0.00  0.00     0.083 H 
ATOM     19  H9  L6C d   1       9.048  -6.575  50.335  0.00  0.00     0.084 H 
ENDBRANCH   1   9
BRANCH   1  20
ATOM     20  N1  L6C d   1      11.399  -6.029  49.532  0.00  0.00    -0.328 N 
ATOM     21  C5  L6C d   1      11.959  -4.927  48.800  0.00  0.00     0.366 C 
ATOM     22  O2  L6C d   1      12.695  -4.120  49.379  0.00  0.00    -0.238 OA
ATOM     23  H10 L6C d   1      10.944  -6.823  49.128  0.00  0.00     0.165 HD
BRANCH  21  24
ATOM     24  O3  L6C d   1      12.048  -5.072  47.437  0.00  0.00    -0.262 OA
BRANCH  24  25
ATOM     25  C6  L6C d   1      12.912  -4.257  46.752  0.00  0.00     0.081 A 
ATOM     26  C7  L6C d   1      14.297  -4.444  46.840  0.00  0.00    -0.050 A 
ATOM     27  C8  L6C d   1      15.156  -3.611  46.143  0.00  0.00    -0.080 A 
ATOM     28  H11 L6C d   1      14.697  -5.242  47.455  0.00  0.00     0.087 H 
ATOM     29  C9  L6C d   1      14.666  -2.583  45.348  0.00  0.00    -0.083 A 
ATOM     30  H12 L6C d   1      16.227  -3.764  46.219  0.00  0.00     0.083 H 
ATOM     31  C10 L6C d   1      13.296  -2.407  45.243  0.00  0.00    -0.080 A 
ATOM     32  H13 L6C d   1      15.346  -1.927  44.817  0.00  0.00     0.083 H 
ATOM     33  C11 L6C d   1      12.422  -3.225  45.938  0.00  0.00    -0.050 A 
ATOM     34  H14 L6C d   1      12.904  -1.620  44.609  0.00  0.00     0.083 H 
ATOM     35  H15 L6C d   1      11.353  -3.067  45.853  0.00  0.00     0.087 H 
ENDBRANCH  24  25
ENDBRANCH  21  24
ENDBRANCH   1  20
TORSDOF 6
