REMARK  9 active torsions:
REMARK  status: ('A' for Active; 'I' for Inactive)
REMARK    1  A    between atoms: C2_2  and  C3_3 
REMARK    2  A    between atoms: C3_3  and  C4_4 
REMARK    3  A    between atoms: C4_4  and  N1_5 
REMARK    4  A    between atoms: C4_4  and  C10_10 
REMARK       I    between atoms: N1_5  and  C5_6 
REMARK    5  A    between atoms: C5_6  and  O3_7 
REMARK    6  A    between atoms: O3_7  and  C6_8 
REMARK    7  A    between atoms: C6_8  and  C7_16 
REMARK    8  A    between atoms: C7_16  and  C8_17 
REMARK    9  A    between atoms: C7_16  and  C9_18 
ROOT
ATOM      1  C4  L61 d   1     -10.403  -7.239  50.527  0.00  0.00     0.045 C 
ATOM      2  H4  L61 d   1     -10.009  -8.236  50.774  0.00  0.00     0.081 H 
ENDROOT
BRANCH   1   3
ATOM      3  C3  L61 d   1     -11.820  -7.111  50.976  0.00  0.00     0.006 C 
ATOM      4  H2  L61 d   1     -11.899  -7.377  52.040  0.00  0.00     0.046 H 
ATOM      5  H3  L61 d   1     -12.165  -6.077  50.830  0.00  0.00     0.046 H 
BRANCH   3   6
ATOM      6  C2  L61 d   1     -12.655  -8.042  50.159  0.00  0.00     0.090 C 
ATOM      7  O1  L61 d   1     -12.238  -9.180  49.877  0.00  0.00    -0.307 OA
ATOM      8  H1  L61 d   1     -13.635  -7.723  49.808  0.00  0.00     0.143 H 
ENDBRANCH   3   6
ENDBRANCH   1   3
BRANCH   1   9
ATOM      9  N1  L61 d   1     -10.402  -7.059  49.098  0.00  0.00    -0.328 N 
ATOM     10  C5  L61 d   1      -9.225  -7.590  48.437  0.00  0.00     0.361 C 
ATOM     11  O2  L61 d   1      -8.371  -6.831  48.007  0.00  0.00    -0.239 OA
ATOM     12  H5  L61 d   1     -11.146  -6.608  48.605  0.00  0.00     0.165 HD
BRANCH  10  13
ATOM     13  O3  L61 d   1      -9.445  -8.721  47.640  0.00  0.00    -0.304 OA
BRANCH  13  14
ATOM     14  C6  L61 d   1      -8.995  -8.559  46.370  0.00  0.00     0.033 C 
ATOM     15  H6  L61 d   1      -8.000  -8.091  46.384  0.00  0.00     0.075 H 
ATOM     16  H7  L61 d   1      -9.692  -7.923  45.805  0.00  0.00     0.075 H 
BRANCH  14  17
ATOM     17  C7  L61 d   1      -8.909  -9.947  45.715  0.00  0.00    -0.040 C 
ATOM     18  H13 L61 d   1      -8.085 -10.549  46.127  0.00  0.00     0.042 H 
BRANCH  17  19
ATOM     19  C8  L61 d   1      -8.681  -9.647  44.331  0.00  0.00    -0.071 C 
ATOM     20  H14 L61 d   1      -8.602 -10.584  43.761  0.00  0.00     0.028 H 
ATOM     21  H15 L61 d   1      -7.746  -9.076  44.229  0.00  0.00     0.028 H 
ATOM     22  H16 L61 d   1      -9.520  -9.051  43.942  0.00  0.00     0.028 H 
ENDBRANCH  17  19
BRANCH  17  23
ATOM     23  C9  L61 d   1     -10.208 -10.625  45.955  0.00  0.00    -0.071 C 
ATOM     24  H17 L61 d   1     -10.323 -10.827  47.030  0.00  0.00     0.028 H 
ATOM     25  H18 L61 d   1     -10.235 -11.574  45.399  0.00  0.00     0.028 H 
ATOM     26  H19 L61 d   1     -11.029  -9.977  45.614  0.00  0.00     0.028 H 
ENDBRANCH  17  23
ENDBRANCH  14  17
ENDBRANCH  13  14
ENDBRANCH  10  13
ENDBRANCH   1   9
BRANCH   1  27
ATOM     27  C10 L61 d   1      -9.595  -6.199  51.235  0.00  0.00    -0.035 A 
ATOM     28  C15 L61 d   1      -8.395  -5.712  50.746  0.00  0.00    -0.075 A 
ATOM     29  C14 L61 d   1      -7.663  -4.745  51.435  0.00  0.00    -0.082 A 
ATOM     30  H8  L61 d   1      -8.015  -6.091  49.804  0.00  0.00     0.084 H 
ATOM     31  C13 L61 d   1      -8.153  -4.255  52.649  0.00  0.00    -0.083 A 
ATOM     32  H9  L61 d   1      -6.725  -4.378  51.034  0.00  0.00     0.083 H 
ATOM     33  C12 L61 d   1      -9.346  -4.727  53.157  0.00  0.00    -0.082 A 
ATOM     34  H10 L61 d   1      -7.594  -3.502  53.193  0.00  0.00     0.083 H 
ATOM     35  C11 L61 d   1     -10.063  -5.694  52.463  0.00  0.00    -0.075 A 
ATOM     36  H11 L61 d   1      -9.724  -4.343  54.098  0.00  0.00     0.083 H 
ATOM     37  H12 L61 d   1     -10.996  -6.065  52.873  0.00  0.00     0.084 H 
ENDBRANCH   1  27
TORSDOF 9
