REMARK  8 active torsions:
REMARK  status: ('A' for Active; 'I' for Inactive)
REMARK    1  A    between atoms: C1_1  and  C2_2 
REMARK    2  A    between atoms: C4_4  and  N3_7 
REMARK    3  A    between atoms: N3_7  and  C5_8 
REMARK    4  A    between atoms: C6_10  and  N8_25 
REMARK    5  A    between atoms: C8_12  and  O1_14 
REMARK    6  A    between atoms: O1_14  and  C9_15 
REMARK    7  A    between atoms: C9_15  and  C10_16 
REMARK    8  A    between atoms: C9_15  and  C11_17 
ROOT
ATOM      1  C5  F9J d   1      -1.213   2.917  27.273  0.00  0.00     0.732 A 
ATOM      2  N4  F9J d   1      -2.212   3.059  28.159  0.00  0.00    -0.042 NA
ATOM      3  C6  F9J d   1      -3.371   3.603  27.766  0.00  0.00     0.188 A 
ATOM      4  C7  F9J d   1      -3.479   3.993  26.447  0.00  0.00     0.215 A 
ATOM      5  C8  F9J d   1      -2.424   3.821  25.577  0.00  0.00     0.227 A 
ATOM      6  N5  F9J d   1      -1.268   3.281  25.981  0.00  0.00    -0.035 NA
ATOM      7  F2  F9J d   1      -4.603   4.539  25.993  0.00  0.00    -0.197 F 
ENDROOT
BRANCH   5   8
ATOM      8  O1  F9J d   1      -2.627   4.255  24.252  0.00  0.00    -0.319 OA
BRANCH   8   9
ATOM      9  C9  F9J d   1      -1.595   3.852  23.303  0.00  0.00     0.102 C 
ATOM     10  H7  F9J d   1      -1.263   2.834  23.555  0.00  0.00     0.096 H 
BRANCH   9  11
ATOM     11  C10 F9J d   1      -2.187   3.843  21.911  0.00  0.00    -0.045 C 
ATOM     12  H8  F9J d   1      -1.416   3.540  21.187  0.00  0.00     0.031 H 
ATOM     13  H9  F9J d   1      -2.550   4.851  21.660  0.00  0.00     0.031 H 
ATOM     14  H10 F9J d   1      -3.025   3.132  21.874  0.00  0.00     0.031 H 
ENDBRANCH   9  11
BRANCH   9  15
ATOM     15  C11 F9J d   1      -0.403   4.767  23.366  0.00  0.00     0.154 A 
ATOM     16  N6  F9J d   1      -0.604   6.035  23.761  0.00  0.00    -0.240 NA
ATOM     17  C12 F9J d   1       0.479   6.822  23.841  0.00  0.00     0.043 A 
ATOM     18  C13 F9J d   1       1.727   6.347  23.523  0.00  0.00     0.151 A 
ATOM     19  H11 F9J d   1       0.367   7.851  24.162  0.00  0.00     0.119 H 
ATOM     20  C14 F9J d   1       1.844   5.039  23.118  0.00  0.00     0.043 A 
ATOM     21  F1  F9J d   1       2.791   7.141  23.601  0.00  0.00    -0.203 F 
ATOM     22  N7  F9J d   1       0.776   4.229  23.038  0.00  0.00    -0.240 NA
ATOM     23  H12 F9J d   1       2.822   4.652  22.857  0.00  0.00     0.119 H 
ENDBRANCH   9  15
ENDBRANCH   8   9
ENDBRANCH   5   8
BRANCH   3  24
ATOM     24  N8  F9J d   1      -4.431   3.760  28.720  0.00  0.00    -0.359 N 
ATOM     25  C15 F9J d   1      -4.310   3.070  30.005  0.00  0.00     0.016 C 
ATOM     26  C16 F9J d   1      -5.589   2.319  30.355  0.00  0.00     0.034 C 
ATOM     27  H13 F9J d   1      -4.104   3.811  30.791  0.00  0.00     0.067 H 
ATOM     28  H14 F9J d   1      -3.478   2.353  29.949  0.00  0.00     0.067 H 
ATOM     29  O2  F9J d   1      -6.748   3.132  30.084  0.00  0.00    -0.388 OA
ATOM     30  H15 F9J d   1      -5.573   2.058  31.423  0.00  0.00     0.076 H 
ATOM     31  H16 F9J d   1      -5.644   1.400  29.753  0.00  0.00     0.076 H 
ATOM     32  C17 F9J d   1      -6.800   3.513  28.706  0.00  0.00     0.034 C 
ATOM     33  C18 F9J d   1      -5.660   4.482  28.435  0.00  0.00     0.016 C 
ATOM     34  H17 F9J d   1      -7.762   4.001  28.491  0.00  0.00     0.076 H 
ATOM     35  H18 F9J d   1      -6.690   2.623  28.070  0.00  0.00     0.076 H 
ATOM     36  H19 F9J d   1      -5.677   4.804  27.384  0.00  0.00     0.067 H 
ATOM     37  H20 F9J d   1      -5.745   5.362  29.090  0.00  0.00     0.067 H 
ENDBRANCH   3  24
BRANCH   1  38
ATOM     38  N3  F9J d   1      -0.052   2.349  27.805  0.00  0.00    -0.171 N 
ATOM     39  H6  F9J d   1      -0.062   2.204  28.825  0.00  0.00     0.186 HD
BRANCH  38  40
ATOM     40  C4  F9J d   1       1.096   1.957  27.172  0.00  0.00     0.139 A 
ATOM     41  C3  F9J d   1       1.326   2.031  25.777  0.00  0.00    -0.014 A 
ATOM     42  C2  F9J d   1       2.589   1.526  25.587  0.00  0.00     0.054 A 
ATOM     43  H4  F9J d   1       0.645   2.409  25.015  0.00  0.00     0.092 H 
ATOM     44  N2  F9J d   1       3.050   1.180  26.821  0.00  0.00    -0.178 NA
ATOM     45  N1  F9J d   1       2.165   1.432  27.787  0.00  0.00    -0.262 N 
ATOM     46  H5  F9J d   1       2.279   1.259  28.796  0.00  0.00     0.191 HD
BRANCH  42  47
ATOM     47  C1  F9J d   1       3.412   1.331  24.374  0.00  0.00    -0.034 C 
ATOM     48  H1  F9J d   1       2.852   1.675  23.492  0.00  0.00     0.035 H 
ATOM     49  H2  F9J d   1       3.653   0.264  24.262  0.00  0.00     0.035 H 
ATOM     50  H3  F9J d   1       4.343   1.909  24.466  0.00  0.00     0.035 H 
ENDBRANCH  42  47
ENDBRANCH  38  40
ENDBRANCH   1  38
TORSDOF 8
