REMARK  12 active torsions:
REMARK  status: ('A' for Active; 'I' for Inactive)
REMARK    1  A    between atoms: N_1  and  CA_2 
REMARK    2  A    between atoms: CA_2  and  C_3 
REMARK    3  A    between atoms: CA_2  and  CB_5 
REMARK       I    between atoms: C_3  and  N_6 
REMARK    4  A    between atoms: N_6  and  CA_7 
REMARK    5  A    between atoms: CA_7  and  C_8 
REMARK    6  A    between atoms: CA_7  and  CB_10 
REMARK       I    between atoms: C_8  and  N_24 
REMARK    7  A    between atoms: CB_10  and  CG_11 
REMARK    8  A    between atoms: CZ_16  and  C1_17 
REMARK    9  A    between atoms: C1_17  and  P_20 
REMARK   10  A    between atoms: N_24  and  CA_25 
REMARK   11  A    between atoms: CA_25  and  C_26 
REMARK   12  A    between atoms: CA_25  and  CB_28 
ROOT
ATOM      1  CA  FTY d   1     -13.262 -15.130 -36.788  0.00  0.00     0.093 C 
ATOM      2  H   FTY d   1     -13.459 -14.120 -37.178  0.00  0.00     0.088 H 
ENDROOT
BRANCH   1   3
ATOM      3  N   FTY d   1     -14.399 -15.556 -35.986  0.00  0.00    -0.346 N 
ATOM      4  C   GLN d   1     -15.666 -15.404 -36.374  0.00  0.00     0.248 C 
ATOM      5  O   GLN d   1     -15.990 -14.931 -37.458  0.00  0.00    -0.271 OA
ATOM      6  H   FTY d   1     -14.222 -15.984 -35.100  0.00  0.00     0.163 HD
BRANCH   4   7
ATOM      7  CA  GLN d   1     -16.725 -15.920 -35.411  0.00  0.00     0.172 C 
ATOM      8  H   GLN d   1     -16.264 -16.008 -34.416  0.00  0.00     0.098 H 
BRANCH   7   9
ATOM      9  N   GLN d   1     -17.858 -15.005 -35.303  0.00  0.00    -0.067 N 
ATOM     10  H   GLN d   1     -18.534 -15.382 -34.658  0.00  0.00     0.275 HD
ATOM     11  H   GLN d   1     -18.285 -14.891 -36.209  0.00  0.00     0.275 HD
ATOM     12  H   GLN d   1     -17.537 -14.110 -34.968  0.00  0.00     0.275 HD
ENDBRANCH   7   9
BRANCH   7  13
ATOM     13  CB  GLN d   1     -17.204 -17.307 -35.841  0.00  0.00    -0.042 C 
ATOM     14  H   GLN d   1     -16.341 -17.985 -35.918  0.00  0.00     0.030 H 
ATOM     15  H   GLN d   1     -17.703 -17.236 -36.819  0.00  0.00     0.030 H 
ATOM     16  H   GLN d   1     -17.912 -17.698 -35.095  0.00  0.00     0.030 H 
ENDBRANCH   7  13
ENDBRANCH   4   7
ENDBRANCH   1   3
BRANCH   1  17
ATOM     17  C   FTY d   1     -12.994 -16.047 -37.952  0.00  0.00     0.241 C 
ATOM     18  O   FTY d   1     -13.152 -15.621 -39.139  0.00  0.00    -0.271 OA
ATOM     19  N   GLN d   1     -12.575 -17.282 -37.643  0.00  0.00    -0.345 N 
ATOM     20  H   GLN d   1     -12.456 -17.500 -36.674  0.00  0.00     0.163 HD
BRANCH  19  21
ATOM     21  CA  GLN d   1     -12.275 -18.345 -38.623  0.00  0.00     0.093 C 
ATOM     22  H   GLN d   1     -11.510 -18.986 -38.161  0.00  0.00     0.089 H 
BRANCH  21  23
ATOM     23  C   GLN d   1     -11.683 -17.848 -39.947  0.00  0.00     0.196 C 
ATOM     24  O   GLN d   1     -11.157 -18.623 -40.746  0.00  0.00    -0.646 OA
ATOM     25  H   GLN d   1     -11.729 -16.785 -40.186  0.00  0.00    -0.646 OA
ENDBRANCH  21  23
BRANCH  21  26
ATOM     26  CB  GLN d   1     -13.511 -19.224 -38.877  0.00  0.00    -0.048 C 
ATOM     27  H   GLN d   1     -13.261 -20.006 -39.609  0.00  0.00     0.030 H 
ATOM     28  H   GLN d   1     -14.329 -18.602 -39.270  0.00  0.00     0.030 H 
ATOM     29  H   GLN d   1     -13.828 -19.693 -37.934  0.00  0.00     0.030 H 
ENDBRANCH  21  26
ENDBRANCH  19  21
ENDBRANCH   1  17
BRANCH   1  30
ATOM     30  CB  FTY d   1     -12.065 -15.095 -35.885  0.00  0.00    -0.014 C 
ATOM     31  H   FTY d   1     -11.835 -16.132 -35.600  0.00  0.00     0.043 H 
ATOM     32  H   FTY d   1     -12.343 -14.521 -34.989  0.00  0.00     0.043 H 
BRANCH  30  33
ATOM     33  CG  FTY d   1     -10.808 -14.488 -36.439  0.00  0.00    -0.056 A 
ATOM     34  CD1 FTY d   1      -9.696 -15.283 -36.707  0.00  0.00    -0.076 A 
ATOM     35  CE1 FTY d   1      -8.525 -14.717 -37.201  0.00  0.00    -0.070 A 
ATOM     36  H   FTY d   1      -9.743 -16.351 -36.529  0.00  0.00     0.084 H 
ATOM     37  CZ  FTY d   1      -8.453 -13.351 -37.422  0.00  0.00     0.027 A 
ATOM     38  H   FTY d   1      -7.668 -15.345 -37.413  0.00  0.00     0.084 H 
ATOM     39  CE2 FTY d   1      -9.557 -12.561 -37.153  0.00  0.00    -0.070 A 
ATOM     40  CD2 FTY d   1     -10.725 -13.123 -36.656  0.00  0.00    -0.076 A 
ATOM     41  H   FTY d   1      -9.509 -11.493 -37.332  0.00  0.00     0.084 H 
ATOM     42  H   FTY d   1     -11.577 -12.490 -36.437  0.00  0.00     0.084 H 
BRANCH  37  43
ATOM     43  C1  FTY d   1      -7.201 -12.739 -37.968  0.00  0.00     0.380 C 
ATOM     44  F1  FTY d   1      -6.385 -13.675 -38.434  0.00  0.00    -0.185 F 
ATOM     45  F2  FTY d   1      -7.487 -11.924 -38.980  0.00  0.00    -0.185 F 
BRANCH  43  46
ATOM     46  P   FTY d   1      -6.272 -11.765 -36.741  0.00  0.00     0.339 P 
ATOM     47  O1P FTY d   1      -5.007 -11.309 -37.540  0.00  0.00    -0.635 OA
ATOM     48  O2P FTY d   1      -7.082 -10.595 -36.275  0.00  0.00    -0.635 OA
ATOM     49  O3P FTY d   1      -5.819 -12.588 -35.504  0.00  0.00    -0.635 OA
ENDBRANCH  43  46
ENDBRANCH  37  43
ENDBRANCH  30  33
ENDBRANCH   1  30
TORSDOF 12
