REMARK  26 active torsions:
REMARK  status: ('A' for Active; 'I' for Inactive)
REMARK    1  A    between atoms: CA_2  and  C_3 
REMARK       I    between atoms: C_3  and  N_8 
REMARK    2  A    between atoms: N_8  and  CA_9 
REMARK    3  A    between atoms: CA_9  and  C_10 
REMARK    4  A    between atoms: CA_9  and  CB_12 
REMARK       I    between atoms: C_10  and  N_19 
REMARK    5  A    between atoms: CB_12  and  CG_13 
REMARK    6  A    between atoms: CG_13  and  CD_14 
REMARK    7  A    between atoms: CD_14  and  NE_15 
REMARK       I    between atoms: NE_15  and  CZ_16 
REMARK       I    between atoms: CZ_16  and  NH1_17 
REMARK    8  A    between atoms: N_19  and  CA_20 
REMARK    9  A    between atoms: CA_20  and  C_21 
REMARK   10  A    between atoms: CA_20  and  CB_23 
REMARK       I    between atoms: C_21  and  N_25 
REMARK   11  A    between atoms: CB_23  and  OG_24 
REMARK   12  A    between atoms: N_25  and  CA_26 
REMARK   13  A    between atoms: CA_26  and  C_27 
REMARK   14  A    between atoms: CA_26  and  CB_29 
REMARK       I    between atoms: C_27  and  N_36 
REMARK   15  A    between atoms: CB_29  and  CG_30 
REMARK   16  A    between atoms: N_36  and  CA_37 
REMARK   17  A    between atoms: CA_37  and  C_38 
REMARK   18  A    between atoms: CA_37  and  CB_40 
REMARK       I    between atoms: C_38  and  N_44 
REMARK   19  A    between atoms: CB_40  and  CG_41 
REMARK   20  A    between atoms: CG_41  and  CD1_42 
REMARK   21  A    between atoms: CG_41  and  CD2_43 
REMARK   22  A    between atoms: N_44  and  CA_45 
REMARK   23  A    between atoms: CA_45  and  C_46 
REMARK   24  A    between atoms: CA_45  and  CB_48 
REMARK   25  A    between atoms: CB_48  and  CG1_49 
REMARK   26  A    between atoms: CB_48  and  CG2_50 
ROOT
ATOM      1  CA  PHE d   1      -5.235  51.786  81.615  0.00  0.00     0.093 C 
ATOM      2  H29 PHE d   1      -6.314  51.840  81.825  0.00  0.00     0.088 H 
ENDROOT
BRANCH   1   3
ATOM      3  N   PHE d   1      -4.591  51.244  82.817  0.00  0.00    -0.346 N 
ATOM      4  C   SER d   1      -5.145  50.257  83.525  0.00  0.00     0.243 C 
ATOM      5  O   SER d   1      -6.194  49.703  83.192  0.00  0.00    -0.271 OA
ATOM      6  H28 PHE d   1      -3.715  51.624  83.113  0.00  0.00     0.163 HD
BRANCH   4   7
ATOM      7  CA  SER d   1      -4.425  49.826  84.808  0.00  0.00     0.109 C 
ATOM      8  H24 SER d   1      -4.711  48.781  85.001  0.00  0.00     0.090 H 
BRANCH   7   9
ATOM      9  N   SER d   1      -2.955  49.860  84.749  0.00  0.00    -0.344 N 
ATOM     10  C   ARG d   1      -2.247  49.351  83.742  0.00  0.00     0.241 C 
ATOM     11  O   ARG d   1      -2.761  48.857  82.742  0.00  0.00    -0.271 OA
ATOM     12  H23 SER d   1      -2.461  50.288  85.506  0.00  0.00     0.163 HD
BRANCH  10  13
ATOM     13  CA  ARG d   1      -0.718  49.432  83.869  0.00  0.00     0.089 C 
ATOM     14  H11 ARG d   1      -0.303  49.439  82.850  0.00  0.00     0.087 H 
BRANCH  13  15
ATOM     15  N   ARG d   1      -0.282  50.661  84.534  0.00  0.00    -0.346 N 
ATOM     16  C   PRO d   1      -0.656  51.874  84.127  0.00  0.00     0.249 C 
ATOM     17  O   PRO d   1      -1.329  52.077  83.112  0.00  0.00    -0.271 OA
ATOM     18  H10 ARG d   1       0.322  50.587  85.328  0.00  0.00     0.163 HD
BRANCH  16  19
ATOM     19  CA  PRO d   1      -0.212  53.048  85.002  0.00  0.00     0.178 C 
ATOM     20  N   PRO d   1      -0.431  54.335  84.352  0.00  0.00    -0.062 N 
ATOM     21  CD  PRO d   1      -1.619  55.028  84.880  0.00  0.00     0.083 C 
ATOM     22  H1  PRO d   1      -0.556  54.183  83.364  0.00  0.00     0.278 HD
ATOM     23  H2  PRO d   1       0.378  54.917  84.502  0.00  0.00     0.278 HD
ATOM     24  CG  PRO d   1      -2.227  54.024  85.819  0.00  0.00    -0.040 C 
ATOM     25  H8  PRO d   1      -2.318  55.281  84.070  0.00  0.00     0.075 H 
ATOM     26  H9  PRO d   1      -1.333  55.944  85.417  0.00  0.00     0.075 H 
ATOM     27  CB  PRO d   1      -1.101  53.141  86.243  0.00  0.00    -0.028 C 
ATOM     28  H6  PRO d   1      -2.667  54.530  86.691  0.00  0.00     0.035 H 
ATOM     29  H7  PRO d   1      -3.003  53.438  85.305  0.00  0.00     0.035 H 
ATOM     30  H4  PRO d   1      -0.551  53.587  87.085  0.00  0.00     0.036 H 
ATOM     31  H5  PRO d   1      -1.472  52.147  86.533  0.00  0.00     0.036 H 
ATOM     32  H3  PRO d   1       0.846  52.922  85.276  0.00  0.00     0.099 H 
ENDBRANCH  16  19
ENDBRANCH  13  15
BRANCH  13  33
ATOM     33  CB  ARG d   1      -0.151  48.204  84.600  0.00  0.00    -0.036 C 
ATOM     34  H12 ARG d   1      -0.253  48.376  85.682  0.00  0.00     0.036 H 
ATOM     35  H13 ARG d   1       0.915  48.117  84.341  0.00  0.00     0.036 H 
BRANCH  33  36
ATOM     36  CG  ARG d   1      -0.825  46.878  84.269  0.00  0.00    -0.048 C 
ATOM     37  H14 ARG d   1      -0.971  46.812  83.181  0.00  0.00     0.035 H 
ATOM     38  H15 ARG d   1      -1.802  46.836  84.773  0.00  0.00     0.035 H 
BRANCH  36  39
ATOM     39  CD  ARG d   1       0.019  45.703  84.727  0.00  0.00     0.009 C 
ATOM     40  H16 ARG d   1      -0.648  44.873  85.004  0.00  0.00     0.064 H 
ATOM     41  H17 ARG d   1       0.607  46.009  85.605  0.00  0.00     0.064 H 
BRANCH  39  42
ATOM     42  NE  ARG d   1       0.935  45.244  83.682  0.00  0.00    -0.227 N 
ATOM     43  CZ  ARG d   1       2.085  44.612  83.906  0.00  0.00     0.665 C 
ATOM     44  NH1 ARG d   1       2.492  44.368  85.146  0.00  0.00    -0.235 N 
ATOM     45  NH2 ARG d   1       2.840  44.232  82.885  0.00  0.00    -0.235 N 
ATOM     46  H19 ARG d   1       3.384  43.878  85.308  0.00  0.00     0.174 HD
ATOM     47  H20 ARG d   1       1.916  44.668  85.945  0.00  0.00     0.174 HD
ATOM     48  H21 ARG d   1       2.532  44.417  81.920  0.00  0.00     0.174 HD
ATOM     49  H22 ARG d   1       3.735  43.752  83.057  0.00  0.00     0.174 HD
ATOM     50  H18 ARG d   1       0.671  45.423  82.703  0.00  0.00     0.177 HD
ENDBRANCH  39  42
ENDBRANCH  36  39
ENDBRANCH  33  36
ENDBRANCH  13  33
ENDBRANCH  10  13
ENDBRANCH   7   9
BRANCH   7  51
ATOM     51  CB  SER d   1      -4.929  50.679  85.979  0.00  0.00     0.044 C 
ATOM     52  H25 SER d   1      -6.009  50.513  86.105  0.00  0.00     0.077 H 
ATOM     53  H26 SER d   1      -4.745  51.740  85.755  0.00  0.00     0.077 H 
BRANCH  51  54
ATOM     54  OG  SER d   1      -4.267  50.341  87.183  0.00  0.00    -0.398 OA
ATOM     55  H27 SER d   1      -4.599  50.884  87.889  0.00  0.00     0.209 HD
ENDBRANCH  51  54
ENDBRANCH   7  51
ENDBRANCH   4   7
ENDBRANCH   1   3
BRANCH   1  56
ATOM     56  C   PHE d   1      -5.055  50.908  80.377  0.00  0.00     0.241 C 
ATOM     57  O   PHE d   1      -5.762  51.089  79.381  0.00  0.00    -0.271 OA
ATOM     58  N   LEU d   1      -4.113  49.965  80.455  0.00  0.00    -0.346 N 
ATOM     59  H37 LEU d   1      -3.623  49.856  81.320  0.00  0.00     0.163 HD
BRANCH  58  60
ATOM     60  CA  LEU d   1      -3.758  49.080  79.341  0.00  0.00     0.089 C 
ATOM     61  H38 LEU d   1      -3.285  49.689  78.557  0.00  0.00     0.087 H 
BRANCH  60  62
ATOM     62  C   LEU d   1      -4.989  48.402  78.742  0.00  0.00     0.241 C 
ATOM     63  O   LEU d   1      -5.735  47.705  79.438  0.00  0.00    -0.271 OA
ATOM     64  N   VAL d   1      -5.192  48.625  77.448  0.00  0.00    -0.344 N 
ATOM     65  H48 VAL d   1      -4.533  49.188  76.949  0.00  0.00     0.163 HD
BRANCH  64  66
ATOM     66  CA  VAL d   1      -6.338  48.081  76.726  0.00  0.00     0.099 C 
ATOM     67  H49 VAL d   1      -7.230  48.226  77.353  0.00  0.00     0.090 H 
BRANCH  66  68
ATOM     68  C   VAL d   1      -6.182  46.578  76.486  0.00  0.00     0.197 C 
ATOM     69  O   VAL d   1      -5.070  46.073  76.177  0.00  0.00    -0.646 OA
ATOM     70  O   VAL d   1      -7.189  45.829  76.600  0.00  0.00    -0.646 OA
ENDBRANCH  66  68
BRANCH  66  71
ATOM     71  CB  VAL d   1      -6.562  48.851  75.404  0.00  0.00    -0.032 C 
ATOM     72  H50 VAL d   1      -5.578  49.160  75.022  0.00  0.00     0.042 H 
BRANCH  71  73
ATOM     73  CG1 VAL d   1      -7.214  47.976  74.344  0.00  0.00    -0.071 C 
ATOM     74  H51 VAL d   1      -7.355  48.560  73.423  0.00  0.00     0.028 H 
ATOM     75  H52 VAL d   1      -8.191  47.624  74.709  0.00  0.00     0.028 H 
ATOM     76  H53 VAL d   1      -6.568  47.111  74.134  0.00  0.00     0.028 H 
ENDBRANCH  71  73
BRANCH  71  77
ATOM     77  CG2 VAL d   1      -7.381  50.106  75.665  0.00  0.00    -0.071 C 
ATOM     78  H54 VAL d   1      -6.883  50.715  76.434  0.00  0.00     0.028 H 
ATOM     79  H55 VAL d   1      -8.385  49.823  76.014  0.00  0.00     0.028 H 
ATOM     80  H56 VAL d   1      -7.467  50.688  74.735  0.00  0.00     0.028 H 
ENDBRANCH  71  77
ENDBRANCH  66  71
ENDBRANCH  64  66
ENDBRANCH  60  62
BRANCH  60  81
ATOM     81  CB  LEU d   1      -2.754  48.020  79.805  0.00  0.00    -0.035 C 
ATOM     82  H39 LEU d   1      -3.297  47.064  79.832  0.00  0.00     0.037 H 
ATOM     83  H40 LEU d   1      -2.452  48.299  80.825  0.00  0.00     0.037 H 
BRANCH  81  84
ATOM     84  CG  LEU d   1      -1.465  47.768  79.021  0.00  0.00    -0.059 C 
ATOM     85  H41 LEU d   1      -0.861  48.687  79.054  0.00  0.00     0.038 H 
BRANCH  84  86
ATOM     86  CD1 LEU d   1      -0.681  46.649  79.689  0.00  0.00    -0.073 C 
ATOM     87  H42 LEU d   1       0.247  46.465  79.127  0.00  0.00     0.028 H 
ATOM     88  H43 LEU d   1      -1.289  45.732  79.702  0.00  0.00     0.028 H 
ATOM     89  H44 LEU d   1      -0.434  46.940  80.721  0.00  0.00     0.028 H 
ENDBRANCH  84  86
BRANCH  84  90
ATOM     90  CD2 LEU d   1      -1.722  47.432  77.562  0.00  0.00    -0.073 C 
ATOM     91  H45 LEU d   1      -2.289  48.249  77.092  0.00  0.00     0.028 H 
ATOM     92  H46 LEU d   1      -2.301  46.499  77.497  0.00  0.00     0.028 H 
ATOM     93  H47 LEU d   1      -0.762  47.305  77.040  0.00  0.00     0.028 H 
ENDBRANCH  84  90
ENDBRANCH  81  84
ENDBRANCH  60  81
ENDBRANCH  58  60
ENDBRANCH   1  56
BRANCH   1  94
ATOM     94  CB  PHE d   1      -4.745  53.209  81.313  0.00  0.00    -0.014 C 
ATOM     95  H30 PHE d   1      -5.153  53.515  80.338  0.00  0.00     0.043 H 
ATOM     96  H31 PHE d   1      -3.646  53.192  81.262  0.00  0.00     0.043 H 
BRANCH  94  97
ATOM     97  CG  PHE d   1      -5.154  54.231  82.338  0.00  0.00    -0.056 A 
ATOM     98  CD1 PHE d   1      -6.367  54.125  83.015  0.00  0.00    -0.077 A 
ATOM     99  CE1 PHE d   1      -6.739  55.071  83.957  0.00  0.00    -0.082 A 
ATOM    100  H32 PHE d   1      -7.028  53.292  82.802  0.00  0.00     0.084 H 
ATOM    101  CZ  PHE d   1      -5.908  56.148  84.218  0.00  0.00    -0.083 A 
ATOM    102  H34 PHE d   1      -7.678  54.968  84.488  0.00  0.00     0.083 H 
ATOM    103  CE2 PHE d   1      -4.705  56.274  83.542  0.00  0.00    -0.082 A 
ATOM    104  H36 PHE d   1      -6.199  56.892  84.951  0.00  0.00     0.083 H 
ATOM    105  CD2 PHE d   1      -4.335  55.322  82.605  0.00  0.00    -0.077 A 
ATOM    106  H35 PHE d   1      -4.054  57.116  83.746  0.00  0.00     0.083 H 
ATOM    107  H33 PHE d   1      -3.396  55.429  82.074  0.00  0.00     0.084 H 
ENDBRANCH  94  97
ENDBRANCH   1  94
TORSDOF 26
