REMARK  27 active torsions:
REMARK  status: ('A' for Active; 'I' for Inactive)
REMARK    1  A    between atoms: CA_2  and  C_3 
REMARK       I    between atoms: C_3  and  N_8 
REMARK    2  A    between atoms: N_8  and  CA_9 
REMARK    3  A    between atoms: CA_9  and  C_10 
REMARK    4  A    between atoms: CA_9  and  CB_12 
REMARK       I    between atoms: C_10  and  N_17 
REMARK    5  A    between atoms: CB_12  and  CG_13 
REMARK    6  A    between atoms: CG_13  and  CD_14 
REMARK    7  A    between atoms: CD_14  and  CE_15 
REMARK    8  A    between atoms: CE_15  and  NZ_16 
REMARK    9  A    between atoms: N_17  and  CA_18 
REMARK   10  A    between atoms: CA_18  and  C_19 
REMARK   11  A    between atoms: CA_18  and  CB_21 
REMARK       I    between atoms: C_19  and  N_23 
REMARK   12  A    between atoms: CB_21  and  OG_22 
REMARK   13  A    between atoms: N_23  and  CA_24 
REMARK   14  A    between atoms: CA_24  and  C_25 
REMARK   15  A    between atoms: CA_24  and  CB_27 
REMARK       I    between atoms: C_25  and  N_34 
REMARK   16  A    between atoms: CB_27  and  CG_28 
REMARK   17  A    between atoms: N_34  and  CA_35 
REMARK   18  A    between atoms: CA_35  and  C_36 
REMARK   19  A    between atoms: CA_35  and  CB_38 
REMARK       I    between atoms: C_36  and  N_42 
REMARK   20  A    between atoms: CB_38  and  CG_39 
REMARK   21  A    between atoms: CG_39  and  CD1_40 
REMARK   22  A    between atoms: CG_39  and  CD2_41 
REMARK   23  A    between atoms: N_42  and  CA_43 
REMARK   24  A    between atoms: CA_43  and  C_44 
REMARK   25  A    between atoms: CA_43  and  CB_46 
REMARK   26  A    between atoms: CB_46  and  CG1_47 
REMARK   27  A    between atoms: CB_46  and  CG2_48 
ROOT
ATOM      1  CA  PHE d   1      -5.014  51.667  81.513  0.00  0.00     0.093 C 
ATOM      2  H29 PHE d   1      -6.094  51.742  81.708  0.00  0.00     0.088 H 
ENDROOT
BRANCH   1   3
ATOM      3  N   PHE d   1      -4.411  51.076  82.713  0.00  0.00    -0.346 N 
ATOM      4  C   SER d   1      -5.051  50.140  83.416  0.00  0.00     0.243 C 
ATOM      5  O   SER d   1      -6.172  49.726  83.106  0.00  0.00    -0.271 OA
ATOM      6  H28 PHE d   1      -3.505  51.380  83.009  0.00  0.00     0.163 HD
BRANCH   4   7
ATOM      7  CA  SER d   1      -4.337  49.564  84.652  0.00  0.00     0.109 C 
ATOM      8  H24 SER d   1      -4.460  48.472  84.594  0.00  0.00     0.090 H 
BRANCH   7   9
ATOM      9  N   SER d   1      -2.893  49.808  84.727  0.00  0.00    -0.344 N 
ATOM     10  C   LYS d   1      -2.022  49.301  83.856  0.00  0.00     0.241 C 
ATOM     11  O   LYS d   1      -2.353  48.698  82.832  0.00  0.00    -0.271 OA
ATOM     12  H23 SER d   1      -2.545  50.383  85.468  0.00  0.00     0.163 HD
BRANCH  10  13
ATOM     13  CA  LYS d   1      -0.547  49.509  84.189  0.00  0.00     0.089 C 
ATOM     14  H11 LYS d   1       0.028  49.364  83.263  0.00  0.00     0.087 H 
BRANCH  13  15
ATOM     15  N   LYS d   1      -0.226  50.848  84.697  0.00  0.00    -0.346 N 
ATOM     16  C   PRO d   1      -0.651  51.973  84.118  0.00  0.00     0.249 C 
ATOM     17  O   PRO d   1      -1.305  51.998  83.071  0.00  0.00    -0.271 OA
ATOM     18  H10 LYS d   1       0.340  50.921  85.518  0.00  0.00     0.163 HD
BRANCH  16  19
ATOM     19  CA  PRO d   1      -0.280  53.284  84.821  0.00  0.00     0.178 C 
ATOM     20  N   PRO d   1      -1.032  54.425  84.305  0.00  0.00    -0.062 N 
ATOM     21  CD  PRO d   1      -2.149  54.805  85.189  0.00  0.00     0.083 C 
ATOM     22  H1  PRO d   1      -1.403  54.186  83.399  0.00  0.00     0.278 HD
ATOM     23  H2  PRO d   1      -0.407  55.211  84.216  0.00  0.00     0.278 HD
ATOM     24  CG  PRO d   1      -2.078  53.800  86.306  0.00  0.00    -0.040 C 
ATOM     25  H8  PRO d   1      -3.110  54.735  84.659  0.00  0.00     0.075 H 
ATOM     26  H9  PRO d   1      -2.015  55.827  85.572  0.00  0.00     0.075 H 
ATOM     27  CB  PRO d   1      -0.693  53.242  86.294  0.00  0.00    -0.028 C 
ATOM     28  H6  PRO d   1      -2.281  54.290  87.270  0.00  0.00     0.035 H 
ATOM     29  H7  PRO d   1      -2.812  52.997  86.141  0.00  0.00     0.035 H 
ATOM     30  H4  PRO d   1      -0.019  53.860  86.905  0.00  0.00     0.036 H 
ATOM     31  H5  PRO d   1      -0.686  52.209  86.671  0.00  0.00     0.036 H 
ATOM     32  H3  PRO d   1       0.802  53.454  84.719  0.00  0.00     0.099 H 
ENDBRANCH  16  19
ENDBRANCH  13  15
BRANCH  13  33
ATOM     33  CB  LYS d   1      -0.119  48.440  85.197  0.00  0.00    -0.038 C 
ATOM     34  H12 LYS d   1      -1.005  47.847  85.468  0.00  0.00     0.036 H 
ATOM     35  H13 LYS d   1       0.271  48.947  86.092  0.00  0.00     0.036 H 
BRANCH  33  36
ATOM     36  CG  LYS d   1       0.947  47.494  84.685  0.00  0.00    -0.061 C 
ATOM     37  H14 LYS d   1       1.906  48.030  84.623  0.00  0.00     0.033 H 
ATOM     38  H15 LYS d   1       0.662  47.136  83.685  0.00  0.00     0.033 H 
BRANCH  36  39
ATOM     39  CD  LYS d   1       1.101  46.306  85.612  0.00  0.00    -0.043 C 
ATOM     40  H16 LYS d   1       0.116  45.841  85.767  0.00  0.00     0.035 H 
ATOM     41  H17 LYS d   1       1.500  46.652  86.577  0.00  0.00     0.035 H 
BRANCH  39  42
ATOM     42  CE  LYS d   1       2.049  45.276  85.024  0.00  0.00     0.080 C 
ATOM     43  H18 LYS d   1       2.942  45.791  84.639  0.00  0.00     0.075 H 
ATOM     44  H19 LYS d   1       1.542  44.755  84.199  0.00  0.00     0.075 H 
BRANCH  42  45
ATOM     45  NZ  LYS d   1       2.470  44.275  86.041  0.00  0.00    -0.079 N 
ATOM     46  H20 LYS d   1       3.097  43.609  85.617  0.00  0.00     0.274 HD
ATOM     47  H21 LYS d   1       1.658  43.794  86.395  0.00  0.00     0.274 HD
ATOM     48  H22 LYS d   1       2.940  44.744  86.799  0.00  0.00     0.274 HD
ENDBRANCH  42  45
ENDBRANCH  39  42
ENDBRANCH  36  39
ENDBRANCH  33  36
ENDBRANCH  13  33
ENDBRANCH  10  13
ENDBRANCH   7   9
BRANCH   7  49
ATOM     49  CB  SER d   1      -5.025  50.029  85.945  0.00  0.00     0.044 C 
ATOM     50  H25 SER d   1      -4.807  49.306  86.745  0.00  0.00     0.077 H 
ATOM     51  H26 SER d   1      -6.111  50.072  85.775  0.00  0.00     0.077 H 
BRANCH  49  52
ATOM     52  OG  SER d   1      -4.572  51.310  86.348  0.00  0.00    -0.398 OA
ATOM     53  H27 SER d   1      -5.017  51.565  87.148  0.00  0.00     0.209 HD
ENDBRANCH  49  52
ENDBRANCH   7  49
ENDBRANCH   4   7
ENDBRANCH   1   3
BRANCH   1  54
ATOM     54  C   PHE d   1      -4.847  50.810  80.254  0.00  0.00     0.241 C 
ATOM     55  O   PHE d   1      -5.456  51.106  79.222  0.00  0.00    -0.271 OA
ATOM     56  N   LEU d   1      -4.028  49.759  80.342  0.00  0.00    -0.346 N 
ATOM     57  H37 LEU d   1      -3.551  49.594  81.206  0.00  0.00     0.163 HD
BRANCH  56  58
ATOM     58  CA  LEU d   1      -3.797  48.833  79.223  0.00  0.00     0.089 C 
ATOM     59  H38 LEU d   1      -3.295  49.398  78.424  0.00  0.00     0.087 H 
BRANCH  58  60
ATOM     60  C   LEU d   1      -5.097  48.273  78.654  0.00  0.00     0.241 C 
ATOM     61  O   LEU d   1      -5.984  47.848  79.400  0.00  0.00    -0.271 OA
ATOM     62  N   VAL d   1      -5.187  48.270  77.328  0.00  0.00    -0.344 N 
ATOM     63  H48 VAL d   1      -4.392  48.553  76.792  0.00  0.00     0.163 HD
BRANCH  62  64
ATOM     64  CA  VAL d   1      -6.401  47.870  76.623  0.00  0.00     0.099 C 
ATOM     65  H49 VAL d   1      -7.255  48.273  77.187  0.00  0.00     0.090 H 
BRANCH  64  66
ATOM     66  C   VAL d   1      -6.577  46.352  76.559  0.00  0.00     0.197 C 
ATOM     67  O   VAL d   1      -5.585  45.588  76.419  0.00  0.00    -0.646 OA
ATOM     68  O   VAL d   1      -7.733  45.858  76.647  0.00  0.00    -0.646 OA
ENDBRANCH  64  66
BRANCH  64  69
ATOM     69  CB  VAL d   1      -6.435  48.493  75.213  0.00  0.00    -0.032 C 
ATOM     70  H50 VAL d   1      -5.404  48.538  74.834  0.00  0.00     0.042 H 
BRANCH  69  71
ATOM     71  CG1 VAL d   1      -7.248  47.639  74.252  0.00  0.00    -0.071 C 
ATOM     72  H51 VAL d   1      -7.253  48.109  73.258  0.00  0.00     0.028 H 
ATOM     73  H52 VAL d   1      -8.280  47.553  74.622  0.00  0.00     0.028 H 
ATOM     74  H53 VAL d   1      -6.799  46.637  74.182  0.00  0.00     0.028 H 
ENDBRANCH  69  71
BRANCH  69  75
ATOM     75  CG2 VAL d   1      -6.974  49.914  75.286  0.00  0.00    -0.071 C 
ATOM     76  H54 VAL d   1      -6.364  50.502  75.988  0.00  0.00     0.028 H 
ATOM     77  H55 VAL d   1      -8.017  49.893  75.635  0.00  0.00     0.028 H 
ATOM     78  H56 VAL d   1      -6.930  50.374  74.288  0.00  0.00     0.028 H 
ENDBRANCH  69  75
ENDBRANCH  64  69
ENDBRANCH  62  64
ENDBRANCH  58  60
BRANCH  58  79
ATOM     79  CB  LEU d   1      -2.880  47.678  79.638  0.00  0.00    -0.035 C 
ATOM     80  H39 LEU d   1      -3.247  46.777  79.124  0.00  0.00     0.037 H 
ATOM     81  H40 LEU d   1      -2.995  47.553  80.725  0.00  0.00     0.037 H 
BRANCH  79  82
ATOM     82  CG  LEU d   1      -1.379  47.770  79.357  0.00  0.00    -0.059 C 
ATOM     83  H41 LEU d   1      -1.005  48.716  79.775  0.00  0.00     0.038 H 
BRANCH  82  84
ATOM     84  CD1 LEU d   1      -0.657  46.619  80.043  0.00  0.00    -0.073 C 
ATOM     85  H42 LEU d   1       0.422  46.689  79.838  0.00  0.00     0.028 H 
ATOM     86  H43 LEU d   1      -1.042  45.663  79.658  0.00  0.00     0.028 H 
ATOM     87  H44 LEU d   1      -0.829  46.673  81.128  0.00  0.00     0.028 H 
ENDBRANCH  82  84
BRANCH  82  88
ATOM     88  CD2 LEU d   1      -1.092  47.765  77.862  0.00  0.00    -0.073 C 
ATOM     89  H45 LEU d   1      -1.621  48.602  77.384  0.00  0.00     0.028 H 
ATOM     90  H46 LEU d   1      -1.437  46.816  77.425  0.00  0.00     0.028 H 
ATOM     91  H47 LEU d   1      -0.010  47.873  77.696  0.00  0.00     0.028 H 
ENDBRANCH  82  88
ENDBRANCH  79  82
ENDBRANCH  58  79
ENDBRANCH  56  58
ENDBRANCH   1  54
BRANCH   1  92
ATOM     92  CB  PHE d   1      -4.496  53.089  81.257  0.00  0.00    -0.014 C 
ATOM     93  H30 PHE d   1      -4.791  53.385  80.240  0.00  0.00     0.043 H 
ATOM     94  H31 PHE d   1      -3.399  53.074  81.331  0.00  0.00     0.043 H 
BRANCH  92  95
ATOM     95  CG  PHE d   1      -5.019  54.123  82.219  0.00  0.00    -0.056 A 
ATOM     96  CD1 PHE d   1      -6.204  53.919  82.927  0.00  0.00    -0.077 A 
ATOM     97  CE1 PHE d   1      -6.678  54.879  83.808  0.00  0.00    -0.082 A 
ATOM     98  H32 PHE d   1      -6.760  52.999  82.787  0.00  0.00     0.084 H 
ATOM     99  CZ  PHE d   1      -5.982  56.066  83.976  0.00  0.00    -0.083 A 
ATOM    100  H34 PHE d   1      -7.591  54.702  84.364  0.00  0.00     0.083 H 
ATOM    101  CE2 PHE d   1      -4.812  56.289  83.267  0.00  0.00    -0.082 A 
ATOM    102  H36 PHE d   1      -6.353  56.819  84.662  0.00  0.00     0.083 H 
ATOM    103  CD2 PHE d   1      -4.339  55.323  82.393  0.00  0.00    -0.077 A 
ATOM    104  H35 PHE d   1      -4.268  57.218  83.396  0.00  0.00     0.083 H 
ATOM    105  H33 PHE d   1      -3.426  55.506  81.837  0.00  0.00     0.084 H 
ENDBRANCH  92  95
ENDBRANCH   1  92
TORSDOF 27
