REMARK  26 active torsions:
REMARK  status: ('A' for Active; 'I' for Inactive)
REMARK    1  A    between atoms: CA_2  and  C_3 
REMARK       I    between atoms: C_3  and  N_8 
REMARK    2  A    between atoms: N_8  and  CA_9 
REMARK    3  A    between atoms: CA_9  and  C_10 
REMARK    4  A    between atoms: CA_9  and  CB_12 
REMARK       I    between atoms: C_10  and  N_16 
REMARK    5  A    between atoms: CB_12  and  CG_13 
REMARK    6  A    between atoms: CG_13  and  CD1_14 
REMARK    7  A    between atoms: CG_13  and  CD2_15 
REMARK    8  A    between atoms: N_16  and  CA_17 
REMARK    9  A    between atoms: CA_17  and  C_18 
REMARK   10  A    between atoms: CA_17  and  CB_20 
REMARK       I    between atoms: C_18  and  N_22 
REMARK   11  A    between atoms: CB_20  and  OG_21 
REMARK   12  A    between atoms: N_22  and  CA_23 
REMARK   13  A    between atoms: CA_23  and  C_24 
REMARK   14  A    between atoms: CA_23  and  CB_26 
REMARK       I    between atoms: C_24  and  N_33 
REMARK   15  A    between atoms: CB_26  and  CG_27 
REMARK   16  A    between atoms: N_33  and  CA_34 
REMARK   17  A    between atoms: CA_34  and  C_35 
REMARK   18  A    between atoms: CA_34  and  CB_37 
REMARK       I    between atoms: C_35  and  N_41 
REMARK   19  A    between atoms: CB_37  and  CG_38 
REMARK   20  A    between atoms: CG_38  and  CD1_39 
REMARK   21  A    between atoms: CG_38  and  CD2_40 
REMARK   22  A    between atoms: N_41  and  CA_42 
REMARK   23  A    between atoms: CA_42  and  C_43 
REMARK   24  A    between atoms: CA_42  and  CB_45 
REMARK   25  A    between atoms: CB_45  and  CG1_46 
REMARK   26  A    between atoms: CB_45  and  CG2_47 
ROOT
ATOM      1  CA  PHE d   1      -5.795  48.943 -35.228  0.00  0.00     0.093 C 
ATOM      2  H27 PHE d   1      -6.877  49.066 -35.074  0.00  0.00     0.088 H 
ENDROOT
BRANCH   1   3
ATOM      3  N   PHE d   1      -5.258  48.243 -34.066  0.00  0.00    -0.346 N 
ATOM      4  C   SER d   1      -5.933  47.280 -33.441  0.00  0.00     0.243 C 
ATOM      5  O   SER d   1      -7.055  46.911 -33.791  0.00  0.00    -0.271 OA
ATOM      6  H26 PHE d   1      -4.352  48.495 -33.727  0.00  0.00     0.163 HD
BRANCH   4   7
ATOM      7  CA  SER d   1      -5.228  46.611 -32.253  0.00  0.00     0.109 C 
ATOM      8  H22 SER d   1      -5.338  45.524 -32.383  0.00  0.00     0.090 H 
BRANCH   7   9
ATOM      9  N   SER d   1      -3.793  46.897 -32.209  0.00  0.00    -0.344 N 
ATOM     10  C   LEU d   1      -2.990  46.665 -33.246  0.00  0.00     0.241 C 
ATOM     11  O   LEU d   1      -3.385  46.253 -34.340  0.00  0.00    -0.271 OA
ATOM     12  H21 SER d   1      -3.402  47.280 -31.372  0.00  0.00     0.163 HD
BRANCH  10  13
ATOM     13  CA  LEU d   1      -1.517  46.935 -33.022  0.00  0.00     0.089 C 
ATOM     14  H11 LEU d   1      -1.030  46.995 -34.007  0.00  0.00     0.087 H 
BRANCH  13  15
ATOM     15  N   LEU d   1      -1.271  48.200 -32.332  0.00  0.00    -0.346 N 
ATOM     16  C   PRO d   1      -1.665  49.374 -32.826  0.00  0.00     0.249 C 
ATOM     17  O   PRO d   1      -2.264  49.497 -33.899  0.00  0.00    -0.271 OA
ATOM     18  H10 LEU d   1      -0.789  48.184 -31.456  0.00  0.00     0.163 HD
BRANCH  16  19
ATOM     19  CA  PRO d   1      -1.319  50.611 -31.989  0.00  0.00     0.178 C 
ATOM     20  N   PRO d   1      -1.658  51.865 -32.657  0.00  0.00    -0.062 N 
ATOM     21  CD  PRO d   1      -2.962  52.387 -32.227  0.00  0.00     0.083 C 
ATOM     22  H1  PRO d   1      -1.684  51.706 -33.652  0.00  0.00     0.278 HD
ATOM     23  H2  PRO d   1      -0.948  52.548 -32.444  0.00  0.00     0.278 HD
ATOM     24  CG  PRO d   1      -3.156  51.753 -30.878  0.00  0.00    -0.040 C 
ATOM     25  H8  PRO d   1      -3.758  52.084 -32.924  0.00  0.00     0.075 H 
ATOM     26  H9  PRO d   1      -2.942  53.484 -32.148  0.00  0.00     0.075 H 
ATOM     27  CB  PRO d   1      -2.156  50.652 -30.697  0.00  0.00    -0.028 C 
ATOM     28  H6  PRO d   1      -3.014  52.510 -30.093  0.00  0.00     0.035 H 
ATOM     29  H7  PRO d   1      -4.173  51.340 -30.810  0.00  0.00     0.035 H 
ATOM     30  H4  PRO d   1      -1.510  50.862 -29.832  0.00  0.00     0.036 H 
ATOM     31  H5  PRO d   1      -2.670  49.691 -30.546  0.00  0.00     0.036 H 
ATOM     32  H3  PRO d   1      -0.245  50.587 -31.752  0.00  0.00     0.099 H 
ENDBRANCH  16  19
ENDBRANCH  13  15
BRANCH  13  33
ATOM     33  CB  LEU d   1      -0.906  45.759 -32.257  0.00  0.00    -0.035 C 
ATOM     34  H12 LEU d   1      -1.719  45.053 -32.033  0.00  0.00     0.037 H 
ATOM     35  H13 LEU d   1      -0.494  46.155 -31.317  0.00  0.00     0.037 H 
BRANCH  33  36
ATOM     36  CG  LEU d   1       0.207  44.972 -32.950  0.00  0.00    -0.059 C 
ATOM     37  H14 LEU d   1       1.037  45.663 -33.160  0.00  0.00     0.038 H 
BRANCH  36  38
ATOM     38  CD1 LEU d   1       0.722  43.872 -32.031  0.00  0.00    -0.073 C 
ATOM     39  H15 LEU d   1       1.521  43.313 -32.540  0.00  0.00     0.028 H 
ATOM     40  H16 LEU d   1      -0.102  43.187 -31.781  0.00  0.00     0.028 H 
ATOM     41  H17 LEU d   1       1.119  44.321 -31.108  0.00  0.00     0.028 H 
ENDBRANCH  36  38
BRANCH  36  42
ATOM     42  CD2 LEU d   1      -0.272  44.392 -34.275  0.00  0.00    -0.073 C 
ATOM     43  H18 LEU d   1      -0.638  45.204 -34.920  0.00  0.00     0.028 H 
ATOM     44  H19 LEU d   1      -1.086  43.676 -34.089  0.00  0.00     0.028 H 
ATOM     45  H20 LEU d   1       0.563  43.877 -34.773  0.00  0.00     0.028 H 
ENDBRANCH  36  42
ENDBRANCH  33  36
ENDBRANCH  13  33
ENDBRANCH  10  13
ENDBRANCH   7   9
BRANCH   7  46
ATOM     46  CB  SER d   1      -5.897  46.986 -30.927  0.00  0.00     0.044 C 
ATOM     47  H23 SER d   1      -5.535  46.308 -30.140  0.00  0.00     0.077 H 
ATOM     48  H24 SER d   1      -6.986  46.877 -31.033  0.00  0.00     0.077 H 
BRANCH  46  49
ATOM     49  OG  SER d   1      -5.603  48.321 -30.554  0.00  0.00    -0.398 OA
ATOM     50  H25 SER d   1      -6.032  48.520 -29.730  0.00  0.00     0.209 HD
ENDBRANCH  46  49
ENDBRANCH   7  46
ENDBRANCH   4   7
ENDBRANCH   1   3
BRANCH   1  51
ATOM     51  C   PHE d   1      -5.588  48.166 -36.525  0.00  0.00     0.241 C 
ATOM     52  O   PHE d   1      -6.211  48.495 -37.532  0.00  0.00    -0.271 OA
ATOM     53  N   LEU d   1      -4.714  47.154 -36.508  0.00  0.00    -0.346 N 
ATOM     54  H35 LEU d   1      -4.215  46.959 -35.663  0.00  0.00     0.163 HD
BRANCH  53  55
ATOM     55  CA  LEU d   1      -4.461  46.314 -37.697  0.00  0.00     0.089 C 
ATOM     56  H36 LEU d   1      -3.972  46.951 -38.448  0.00  0.00     0.087 H 
BRANCH  55  57
ATOM     57  C   LEU d   1      -5.741  45.768 -38.307  0.00  0.00     0.241 C 
ATOM     58  O   LEU d   1      -6.581  45.197 -37.608  0.00  0.00    -0.271 OA
ATOM     59  N   VAL d   1      -5.880  45.945 -39.613  0.00  0.00    -0.344 N 
ATOM     60  H46 VAL d   1      -5.157  46.410 -40.123  0.00  0.00     0.163 HD
BRANCH  59  61
ATOM     61  CA  VAL d   1      -7.062  45.477 -40.320  0.00  0.00     0.099 C 
ATOM     62  H47 VAL d   1      -7.935  45.663 -39.677  0.00  0.00     0.090 H 
BRANCH  61  63
ATOM     63  C   VAL d   1      -6.975  43.972 -40.558  0.00  0.00     0.197 C 
ATOM     64  O   VAL d   1      -5.905  43.429 -40.942  0.00  0.00    -0.646 OA
ATOM     65  O   VAL d   1      -7.995  43.258 -40.367  0.00  0.00    -0.646 OA
ENDBRANCH  61  63
BRANCH  61  66
ATOM     66  CB  VAL d   1      -7.277  46.262 -41.629  0.00  0.00    -0.032 C 
ATOM     67  H48 VAL d   1      -6.292  46.472 -42.072  0.00  0.00     0.042 H 
BRANCH  66  68
ATOM     68  CG1 VAL d   1      -8.086  45.462 -42.637  0.00  0.00    -0.071 C 
ATOM     69  H49 VAL d   1      -8.217  46.054 -43.554  0.00  0.00     0.028 H 
ATOM     70  H50 VAL d   1      -9.071  45.224 -42.210  0.00  0.00     0.028 H 
ATOM     71  H51 VAL d   1      -7.555  44.529 -42.876  0.00  0.00     0.028 H 
ENDBRANCH  66  68
BRANCH  66  72
ATOM     72  CG2 VAL d   1      -7.958  47.583 -41.323  0.00  0.00    -0.071 C 
ATOM     73  H52 VAL d   1      -7.357  48.145 -40.593  0.00  0.00     0.028 H 
ATOM     74  H53 VAL d   1      -8.958  47.392 -40.906  0.00  0.00     0.028 H 
ATOM     75  H54 VAL d   1      -8.053  48.170 -42.249  0.00  0.00     0.028 H 
ENDBRANCH  66  72
ENDBRANCH  61  66
ENDBRANCH  59  61
ENDBRANCH  55  57
BRANCH  55  76
ATOM     76  CB  LEU d   1      -3.526  45.138 -37.391  0.00  0.00    -0.035 C 
ATOM     77  H37 LEU d   1      -4.048  44.227 -37.718  0.00  0.00     0.037 H 
ATOM     78  H38 LEU d   1      -3.396  45.115 -36.299  0.00  0.00     0.037 H 
BRANCH  76  79
ATOM     79  CG  LEU d   1      -2.122  45.081 -38.001  0.00  0.00    -0.059 C 
ATOM     80  H39 LEU d   1      -1.420  45.539 -37.289  0.00  0.00     0.038 H 
BRANCH  79  81
ATOM     81  CD1 LEU d   1      -1.722  43.632 -38.220  0.00  0.00    -0.073 C 
ATOM     82  H40 LEU d   1      -0.714  43.592 -38.658  0.00  0.00     0.028 H 
ATOM     83  H41 LEU d   1      -2.438  43.153 -38.904  0.00  0.00     0.028 H 
ATOM     84  H42 LEU d   1      -1.724  43.101 -37.257  0.00  0.00     0.028 H 
ENDBRANCH  79  81
BRANCH  79  85
ATOM     85  CD2 LEU d   1      -2.024  45.836 -39.316  0.00  0.00    -0.073 C 
ATOM     86  H43 LEU d   1      -2.313  46.886 -39.159  0.00  0.00     0.028 H 
ATOM     87  H44 LEU d   1      -2.698  45.376 -40.054  0.00  0.00     0.028 H 
ATOM     88  H45 LEU d   1      -0.990  45.793 -39.688  0.00  0.00     0.028 H 
ENDBRANCH  79  85
ENDBRANCH  76  79
ENDBRANCH  55  76
ENDBRANCH  53  55
ENDBRANCH   1  51
BRANCH   1  89
ATOM     89  CB  PHE d   1      -5.168  50.332 -35.367  0.00  0.00    -0.014 C 
ATOM     90  H28 PHE d   1      -5.309  50.670 -36.404  0.00  0.00     0.043 H 
ATOM     91  H29 PHE d   1      -4.093  50.246 -35.153  0.00  0.00     0.043 H 
BRANCH  89  92
ATOM     92  CG  PHE d   1      -5.749  51.381 -34.447  0.00  0.00    -0.056 A 
ATOM     93  CD1 PHE d   1      -6.031  51.102 -33.112  0.00  0.00    -0.077 A 
ATOM     94  CE1 PHE d   1      -6.545  52.081 -32.275  0.00  0.00    -0.082 A 
ATOM     95  H30 PHE d   1      -5.846  50.107 -32.722  0.00  0.00     0.084 H 
ATOM     96  CZ  PHE d   1      -6.765  53.360 -32.759  0.00  0.00    -0.083 A 
ATOM     97  H32 PHE d   1      -6.775  51.845 -31.242  0.00  0.00     0.083 H 
ATOM     98  CE2 PHE d   1      -6.484  53.656 -34.081  0.00  0.00    -0.082 A 
ATOM     99  H34 PHE d   1      -7.157  54.128 -32.103  0.00  0.00     0.083 H 
ATOM    100  CD2 PHE d   1      -5.973  52.672 -34.915  0.00  0.00    -0.077 A 
ATOM    101  H33 PHE d   1      -6.663  54.654 -34.464  0.00  0.00     0.083 H 
ATOM    102  H31 PHE d   1      -5.745  52.913 -35.947  0.00  0.00     0.084 H 
ENDBRANCH  89  92
ENDBRANCH   1  89
TORSDOF 26
