REMARK  23 active torsions:
REMARK  status: ('A' for Active; 'I' for Inactive)
REMARK    1  A    between atoms: CA_2  and  C_3 
REMARK       I    between atoms: C_3  and  N_8 
REMARK    2  A    between atoms: N_8  and  CA_9 
REMARK    3  A    between atoms: CA_9  and  C_10 
REMARK    4  A    between atoms: CA_9  and  CB_12 
REMARK       I    between atoms: C_10  and  N_19 
REMARK    5  A    between atoms: CB_12  and  CG_13 
REMARK    6  A    between atoms: CG_13  and  CD_14 
REMARK    7  A    between atoms: CD_14  and  NE_15 
REMARK       I    between atoms: NE_15  and  CZ_16 
REMARK       I    between atoms: CZ_16  and  NH1_17 
REMARK    8  A    between atoms: N_19  and  CA_20 
REMARK    9  A    between atoms: CA_20  and  C_21 
REMARK   10  A    between atoms: CA_20  and  CB_23 
REMARK       I    between atoms: C_21  and  N_25 
REMARK   11  A    between atoms: CB_23  and  OG_24 
REMARK   12  A    between atoms: N_25  and  CA_26 
REMARK   13  A    between atoms: CA_26  and  C_27 
REMARK   14  A    between atoms: CA_26  and  CB_29 
REMARK       I    between atoms: C_27  and  N_36 
REMARK   15  A    between atoms: CB_29  and  CG_30 
REMARK   16  A    between atoms: N_36  and  CA_37 
REMARK   17  A    between atoms: CA_37  and  C_38 
REMARK   18  A    between atoms: CA_37  and  CB_40 
REMARK       I    between atoms: C_38  and  N_41 
REMARK   19  A    between atoms: N_41  and  CA_42 
REMARK   20  A    between atoms: CA_42  and  C_43 
REMARK   21  A    between atoms: CA_42  and  CB_45 
REMARK   22  A    between atoms: CB_45  and  CG1_46 
REMARK   23  A    between atoms: CB_45  and  CG2_47 
ROOT
ATOM      1  CA  SER d   1      -4.745  48.680  84.885  0.00  0.00     0.109 C 
ATOM      2  H24 SER d   1      -4.792  47.592  84.728  0.00  0.00     0.090 H 
ENDROOT
BRANCH   1   3
ATOM      3  N   SER d   1      -3.326  49.039  84.909  0.00  0.00    -0.344 N 
ATOM      4  C   ARG d   1      -2.521  48.800  83.878  0.00  0.00     0.241 C 
ATOM      5  O   ARG d   1      -2.919  48.325  82.816  0.00  0.00    -0.271 OA
ATOM      6  H23 SER d   1      -2.951  49.477  85.726  0.00  0.00     0.163 HD
BRANCH   4   7
ATOM      7  CA  ARG d   1      -1.044  49.156  84.064  0.00  0.00     0.089 C 
ATOM      8  H11 ARG d   1      -0.611  49.301  83.063  0.00  0.00     0.087 H 
BRANCH   7   9
ATOM      9  N   ARG d   1      -0.833  50.399  84.812  0.00  0.00    -0.346 N 
ATOM     10  C   PRO d   1      -1.413  51.552  84.473  0.00  0.00     0.249 C 
ATOM     11  O   PRO d   1      -2.210  51.668  83.535  0.00  0.00    -0.271 OA
ATOM     12  H10 ARG d   1      -0.230  50.382  85.609  0.00  0.00     0.163 HD
BRANCH  10  13
ATOM     13  CA  PRO d   1      -1.061  52.770  85.331  0.00  0.00     0.178 C 
ATOM     14  N   PRO d   1      -1.656  53.998  84.815  0.00  0.00    -0.062 N 
ATOM     15  CD  PRO d   1      -2.874  54.375  85.554  0.00  0.00     0.083 C 
ATOM     16  H1  PRO d   1      -1.893  53.862  83.845  0.00  0.00     0.278 HD
ATOM     17  H2  PRO d   1      -0.983  54.744  84.895  0.00  0.00     0.278 HD
ATOM     18  CG  PRO d   1      -3.044  53.267  86.555  0.00  0.00    -0.040 C 
ATOM     19  H8  PRO d   1      -3.741  54.429  84.879  0.00  0.00     0.075 H 
ATOM     20  H9  PRO d   1      -2.742  55.343  86.060  0.00  0.00     0.075 H 
ATOM     21  CB  PRO d   1      -1.700  52.641  86.713  0.00  0.00    -0.028 C 
ATOM     22  H6  PRO d   1      -3.392  53.672  87.517  0.00  0.00     0.035 H 
ATOM     23  H7  PRO d   1      -3.769  52.527  86.185  0.00  0.00     0.035 H 
ATOM     24  H4  PRO d   1      -1.107  53.177  87.469  0.00  0.00     0.036 H 
ATOM     25  H5  PRO d   1      -1.794  51.584  87.002  0.00  0.00     0.036 H 
ATOM     26  H3  PRO d   1       0.033  52.864  85.403  0.00  0.00     0.099 H 
ENDBRANCH  10  13
ENDBRANCH   7   9
BRANCH   7  27
ATOM     27  CB  ARG d   1      -0.315  47.986  84.729  0.00  0.00    -0.036 C 
ATOM     28  H12 ARG d   1      -0.899  47.662  85.603  0.00  0.00     0.036 H 
ATOM     29  H13 ARG d   1       0.676  48.333  85.058  0.00  0.00     0.036 H 
BRANCH  27  30
ATOM     30  CG  ARG d   1      -0.127  46.795  83.805  0.00  0.00    -0.048 C 
ATOM     31  H14 ARG d   1       0.838  46.896  83.287  0.00  0.00     0.035 H 
ATOM     32  H15 ARG d   1      -0.941  46.787  83.065  0.00  0.00     0.035 H 
BRANCH  30  33
ATOM     33  CD  ARG d   1      -0.141  45.481  84.563  0.00  0.00     0.009 C 
ATOM     34  H16 ARG d   1      -1.151  45.311  84.964  0.00  0.00     0.064 H 
ATOM     35  H17 ARG d   1       0.578  45.541  85.394  0.00  0.00     0.064 H 
BRANCH  33  36
ATOM     36  NE  ARG d   1       0.223  44.354  83.701  0.00  0.00    -0.227 N 
ATOM     37  CZ  ARG d   1       1.400  43.731  83.721  0.00  0.00     0.665 C 
ATOM     38  NH1 ARG d   1       2.355  44.107  84.566  0.00  0.00    -0.235 N 
ATOM     39  NH2 ARG d   1       1.623  42.719  82.895  0.00  0.00    -0.235 N 
ATOM     40  H19 ARG d   1       3.261  43.617  84.571  0.00  0.00     0.174 HD
ATOM     41  H20 ARG d   1       2.189  44.889  85.216  0.00  0.00     0.174 HD
ATOM     42  H21 ARG d   1       0.889  42.420  82.237  0.00  0.00     0.174 HD
ATOM     43  H22 ARG d   1       2.530  42.231  82.911  0.00  0.00     0.174 HD
ATOM     44  H18 ARG d   1      -0.483  44.019  83.030  0.00  0.00     0.177 HD
ENDBRANCH  33  36
ENDBRANCH  30  33
ENDBRANCH  27  30
ENDBRANCH   7  27
ENDBRANCH   4   7
ENDBRANCH   1   3
BRANCH   1  45
ATOM     45  C   SER d   1      -5.535  49.324  83.741  0.00  0.00     0.243 C 
ATOM     46  O   SER d   1      -6.632  48.868  83.412  0.00  0.00    -0.271 OA
ATOM     47  N   PHE d   1      -4.973  50.368  83.133  0.00  0.00    -0.346 N 
ATOM     48  H28 PHE d   1      -4.085  50.698  83.453  0.00  0.00     0.163 HD
BRANCH  47  49
ATOM     49  CA  PHE d   1      -5.623  51.045  82.009  0.00  0.00     0.093 C 
ATOM     50  H29 PHE d   1      -6.689  51.153  82.259  0.00  0.00     0.088 H 
BRANCH  49  51
ATOM     51  C   PHE d   1      -5.522  50.249  80.714  0.00  0.00     0.241 C 
ATOM     52  O   PHE d   1      -6.379  50.383  79.837  0.00  0.00    -0.271 OA
ATOM     53  N   ALA d   1      -4.471  49.431  80.604  0.00  0.00    -0.346 N 
ATOM     54  H37 ALA d   1      -3.862  49.328  81.391  0.00  0.00     0.163 HD
BRANCH  53  55
ATOM     55  CA  ALA d   1      -4.170  48.678  79.382  0.00  0.00     0.086 C 
ATOM     56  H38 ALA d   1      -4.025  49.408  78.572  0.00  0.00     0.086 H 
BRANCH  55  57
ATOM     57  C   ALA d   1      -5.310  47.760  78.972  0.00  0.00     0.240 C 
ATOM     58  O   ALA d   1      -5.855  47.014  79.789  0.00  0.00    -0.271 OA
ATOM     59  N   VAL d   1      -5.659  47.837  77.693  0.00  0.00    -0.344 N 
ATOM     60  H42 VAL d   1      -5.158  48.470  77.103  0.00  0.00     0.163 HD
BRANCH  59  61
ATOM     61  CA  VAL d   1      -6.733  47.048  77.104  0.00  0.00     0.099 C 
ATOM     62  H43 VAL d   1      -7.659  47.259  77.659  0.00  0.00     0.090 H 
BRANCH  61  63
ATOM     63  C   VAL d   1      -6.448  45.553  77.199  0.00  0.00     0.197 C 
ATOM     64  O   VAL d   1      -5.287  45.090  77.040  0.00  0.00    -0.646 OA
ATOM     65  O   VAL d   1      -7.397  44.761  77.443  0.00  0.00    -0.646 OA
ENDBRANCH  61  63
BRANCH  61  66
ATOM     66  CB  VAL d   1      -6.943  47.447  75.635  0.00  0.00    -0.032 C 
ATOM     67  H44 VAL d   1      -5.973  47.397  75.120  0.00  0.00     0.042 H 
BRANCH  66  68
ATOM     68  CG1 VAL d   1      -7.898  46.494  74.939  0.00  0.00    -0.071 C 
ATOM     69  H45 VAL d   1      -8.028  46.805  73.892  0.00  0.00     0.028 H 
ATOM     70  H46 VAL d   1      -8.872  46.512  75.450  0.00  0.00     0.028 H 
ATOM     71  H47 VAL d   1      -7.486  45.474  74.970  0.00  0.00     0.028 H 
ENDBRANCH  66  68
BRANCH  66  72
ATOM     72  CG2 VAL d   1      -7.454  48.873  75.560  0.00  0.00    -0.071 C 
ATOM     73  H48 VAL d   1      -6.747  49.543  76.070  0.00  0.00     0.028 H 
ATOM     74  H49 VAL d   1      -8.437  48.937  76.049  0.00  0.00     0.028 H 
ATOM     75  H50 VAL d   1      -7.549  49.174  74.506  0.00  0.00     0.028 H 
ENDBRANCH  66  72
ENDBRANCH  61  66
ENDBRANCH  59  61
ENDBRANCH  55  57
BRANCH  55  76
ATOM     76  CB  ALA d   1      -2.876  47.888  79.535  0.00  0.00    -0.049 C 
ATOM     77  H39 ALA d   1      -2.673  47.333  78.607  0.00  0.00     0.030 H 
ATOM     78  H40 ALA d   1      -2.975  47.180  80.371  0.00  0.00     0.030 H 
ATOM     79  H41 ALA d   1      -2.046  48.580  79.737  0.00  0.00     0.030 H 
ENDBRANCH  55  76
ENDBRANCH  53  55
ENDBRANCH  49  51
BRANCH  49  80
ATOM     80  CB  PHE d   1      -5.040  52.446  81.783  0.00  0.00    -0.014 C 
ATOM     81  H30 PHE d   1      -5.318  52.775  80.771  0.00  0.00     0.043 H 
ATOM     82  H31 PHE d   1      -3.945  52.379  81.859  0.00  0.00     0.043 H 
BRANCH  80  83
ATOM     83  CG  PHE d   1      -5.518  53.484  82.764  0.00  0.00    -0.056 A 
ATOM     84  CD1 PHE d   1      -6.582  53.232  83.630  0.00  0.00    -0.077 A 
ATOM     85  CE1 PHE d   1      -7.013  54.199  84.524  0.00  0.00    -0.082 A 
ATOM     86  H32 PHE d   1      -7.078  52.268  83.603  0.00  0.00     0.084 H 
ATOM     87  CZ  PHE d   1      -6.395  55.437  84.550  0.00  0.00    -0.083 A 
ATOM     88  H34 PHE d   1      -7.832  53.986  85.201  0.00  0.00     0.083 H 
ATOM     89  CE2 PHE d   1      -5.352  55.710  83.683  0.00  0.00    -0.082 A 
ATOM     90  H36 PHE d   1      -6.729  56.194  85.251  0.00  0.00     0.083 H 
ATOM     91  CD2 PHE d   1      -4.919  54.738  82.795  0.00  0.00    -0.077 A 
ATOM     92  H35 PHE d   1      -4.874  56.683  83.698  0.00  0.00     0.083 H 
ATOM     93  H33 PHE d   1      -4.103  54.958  82.116  0.00  0.00     0.084 H 
ENDBRANCH  80  83
ENDBRANCH  49  80
ENDBRANCH  47  49
ENDBRANCH   1  45
BRANCH   1  94
ATOM     94  CB  SER d   1      -5.407  48.975  86.236  0.00  0.00     0.044 C 
ATOM     95  H25 SER d   1      -5.202  48.141  86.924  0.00  0.00     0.077 H 
ATOM     96  H26 SER d   1      -6.493  49.071  86.088  0.00  0.00     0.077 H 
BRANCH  94  97
ATOM     97  OG  SER d   1      -4.913  50.174  86.807  0.00  0.00    -0.398 OA
ATOM     98  H27 SER d   1      -5.342  50.327  87.641  0.00  0.00     0.209 HD
ENDBRANCH  94  97
ENDBRANCH   1  94
TORSDOF 23
