REMARK  21 active torsions:
REMARK  status: ('A' for Active; 'I' for Inactive)
REMARK    1  A    between atoms: CA_2  and  C_3 
REMARK       I    between atoms: C_3  and  N_8 
REMARK    2  A    between atoms: N_8  and  CA_9 
REMARK    3  A    between atoms: CA_9  and  C_10 
REMARK    4  A    between atoms: CA_9  and  CB_12 
REMARK       I    between atoms: C_10  and  N_19 
REMARK    5  A    between atoms: CB_12  and  CG_13 
REMARK    6  A    between atoms: CG_13  and  CD_14 
REMARK    7  A    between atoms: CD_14  and  NE_15 
REMARK       I    between atoms: NE_15  and  CZ_16 
REMARK       I    between atoms: CZ_16  and  NH1_17 
REMARK    8  A    between atoms: N_19  and  CA_20 
REMARK    9  A    between atoms: CA_20  and  C_21 
REMARK   10  A    between atoms: CA_20  and  CB_23 
REMARK       I    between atoms: C_21  and  N_25 
REMARK   11  A    between atoms: CB_23  and  OG_24 
REMARK   12  A    between atoms: N_25  and  CA_26 
REMARK   13  A    between atoms: CA_26  and  C_27 
REMARK   14  A    between atoms: CA_26  and  CB_29 
REMARK       I    between atoms: C_27  and  N_36 
REMARK   15  A    between atoms: CB_29  and  CG_30 
REMARK   16  A    between atoms: N_36  and  CA_37 
REMARK   17  A    between atoms: CA_37  and  C_38 
REMARK   18  A    between atoms: CA_37  and  CB_40 
REMARK       I    between atoms: C_38  and  N_41 
REMARK   19  A    between atoms: N_41  and  CA_42 
REMARK   20  A    between atoms: CA_42  and  C_43 
REMARK   21  A    between atoms: CA_42  and  CB_45 
ROOT
ATOM      1  CA  SER d   1      -4.853  49.468  84.450  0.00  0.00     0.109 C 
ATOM      2  H24 SER d   1      -5.008  48.380  84.503  0.00  0.00     0.090 H 
ENDROOT
BRANCH   1   3
ATOM      3  N   SER d   1      -3.404  49.693  84.423  0.00  0.00    -0.344 N 
ATOM      4  C   ARG d   1      -2.606  49.228  83.463  0.00  0.00     0.241 C 
ATOM      5  O   ARG d   1      -3.024  48.639  82.466  0.00  0.00    -0.271 OA
ATOM      6  H23 SER d   1      -2.993  50.224  85.165  0.00  0.00     0.163 HD
BRANCH   4   7
ATOM      7  CA  ARG d   1      -1.103  49.481  83.646  0.00  0.00     0.089 C 
ATOM      8  H11 ARG d   1      -0.691  49.787  82.673  0.00  0.00     0.087 H 
BRANCH   7   9
ATOM      9  N   ARG d   1      -0.851  50.564  84.601  0.00  0.00    -0.346 N 
ATOM     10  C   PRO d   1      -1.200  51.825  84.349  0.00  0.00     0.249 C 
ATOM     11  O   PRO d   1      -1.700  52.192  83.281  0.00  0.00    -0.271 OA
ATOM     12  H10 ARG d   1      -0.403  50.350  85.469  0.00  0.00     0.163 HD
BRANCH  10  13
ATOM     13  CA  PRO d   1      -0.966  52.837  85.472  0.00  0.00     0.178 C 
ATOM     14  N   PRO d   1      -0.797  54.195  84.975  0.00  0.00    -0.062 N 
ATOM     15  CD  PRO d   1      -2.066  54.943  84.962  0.00  0.00     0.083 C 
ATOM     16  H1  PRO d   1      -0.434  54.154  84.035  0.00  0.00     0.278 HD
ATOM     17  H2  PRO d   1      -0.141  54.679  85.568  0.00  0.00     0.278 HD
ATOM     18  CG  PRO d   1      -2.998  54.087  85.778  0.00  0.00    -0.040 C 
ATOM     19  H8  PRO d   1      -2.441  55.060  83.934  0.00  0.00     0.075 H 
ATOM     20  H9  PRO d   1      -1.941  55.934  85.422  0.00  0.00     0.075 H 
ATOM     21  CB  PRO d   1      -2.216  52.948  86.350  0.00  0.00    -0.028 C 
ATOM     22  H6  PRO d   1      -3.433  54.684  86.593  0.00  0.00     0.035 H 
ATOM     23  H7  PRO d   1      -3.803  53.700  85.137  0.00  0.00     0.035 H 
ATOM     24  H4  PRO d   1      -1.937  53.157  87.393  0.00  0.00     0.036 H 
ATOM     25  H5  PRO d   1      -2.802  52.018  86.306  0.00  0.00     0.036 H 
ATOM     26  H3  PRO d   1      -0.091  52.528  86.063  0.00  0.00     0.099 H 
ENDBRANCH  10  13
ENDBRANCH   7   9
BRANCH   7  27
ATOM     27  CB  ARG d   1      -0.391  48.190  84.080  0.00  0.00    -0.036 C 
ATOM     28  H12 ARG d   1      -0.954  47.746  84.915  0.00  0.00     0.036 H 
ATOM     29  H13 ARG d   1       0.623  48.449  84.418  0.00  0.00     0.036 H 
BRANCH  27  30
ATOM     30  CG  ARG d   1      -0.278  47.151  82.968  0.00  0.00    -0.048 C 
ATOM     31  H14 ARG d   1       0.610  47.381  82.360  0.00  0.00     0.035 H 
ATOM     32  H15 ARG d   1      -1.179  47.210  82.339  0.00  0.00     0.035 H 
BRANCH  30  33
ATOM     33  CD  ARG d   1      -0.148  45.730  83.501  0.00  0.00     0.009 C 
ATOM     34  H16 ARG d   1      -0.587  45.035  82.770  0.00  0.00     0.064 H 
ATOM     35  H17 ARG d   1      -0.696  45.656  84.452  0.00  0.00     0.064 H 
BRANCH  33  36
ATOM     36  NE  ARG d   1       1.254  45.352  83.731  0.00  0.00    -0.227 N 
ATOM     37  CZ  ARG d   1       1.700  44.097  83.767  0.00  0.00     0.665 C 
ATOM     38  NH1 ARG d   1       0.861  43.075  83.581  0.00  0.00    -0.235 N 
ATOM     39  NH2 ARG d   1       2.994  43.861  83.984  0.00  0.00    -0.235 N 
ATOM     40  H19 ARG d   1       1.213  42.108  83.610  0.00  0.00     0.174 HD
ATOM     41  H20 ARG d   1      -0.139  43.254  83.408  0.00  0.00     0.174 HD
ATOM     42  H21 ARG d   1       3.644  44.647  84.128  0.00  0.00     0.174 HD
ATOM     43  H22 ARG d   1       3.344  42.893  84.008  0.00  0.00     0.174 HD
ATOM     44  H18 ARG d   1       1.938  46.109  83.874  0.00  0.00     0.177 HD
ENDBRANCH  33  36
ENDBRANCH  30  33
ENDBRANCH  27  30
ENDBRANCH   7  27
ENDBRANCH   4   7
ENDBRANCH   1   3
BRANCH   1  45
ATOM     45  C   SER d   1      -5.603  49.972  83.212  0.00  0.00     0.243 C 
ATOM     46  O   SER d   1      -6.619  49.392  82.828  0.00  0.00    -0.271 OA
ATOM     47  N   PHE d   1      -5.105  51.045  82.597  0.00  0.00    -0.346 N 
ATOM     48  H28 PHE d   1      -4.247  51.439  82.928  0.00  0.00     0.163 HD
BRANCH  47  49
ATOM     49  CA  PHE d   1      -5.778  51.666  81.448  0.00  0.00     0.093 C 
ATOM     50  H29 PHE d   1      -6.847  51.726  81.699  0.00  0.00     0.088 H 
BRANCH  49  51
ATOM     51  C   PHE d   1      -5.659  50.862  80.153  0.00  0.00     0.241 C 
ATOM     52  O   PHE d   1      -6.485  51.019  79.249  0.00  0.00    -0.271 OA
ATOM     53  N   ALA d   1      -4.632  50.013  80.073  0.00  0.00    -0.346 N 
ATOM     54  H37 ALA d   1      -4.050  49.895  80.877  0.00  0.00     0.163 HD
BRANCH  53  55
ATOM     55  CA  ALA d   1      -4.314  49.243  78.864  0.00  0.00     0.086 C 
ATOM     56  H38 ALA d   1      -3.990  49.962  78.097  0.00  0.00     0.086 H 
BRANCH  55  57
ATOM     57  C   ALA d   1      -5.517  48.486  78.293  0.00  0.00     0.240 C 
ATOM     58  O   ALA d   1      -6.289  47.868  79.034  0.00  0.00    -0.271 OA
ATOM     59  N   ALA d   1      -5.661  48.554  76.970  0.00  0.00    -0.345 N 
ATOM     60  H42 ALA d   1      -4.989  49.077  76.445  0.00  0.00     0.163 HD
BRANCH  59  61
ATOM     61  CA  ALA d   1      -6.752  47.903  76.248  0.00  0.00     0.093 C 
ATOM     62  H43 ALA d   1      -7.701  48.237  76.694  0.00  0.00     0.089 H 
BRANCH  61  63
ATOM     63  C   ALA d   1      -6.689  46.380  76.363  0.00  0.00     0.196 C 
ATOM     64  O   ALA d   1      -5.588  45.776  76.468  0.00  0.00    -0.646 OA
ATOM     65  O   ALA d   1      -7.759  45.715  76.352  0.00  0.00    -0.646 OA
ENDBRANCH  61  63
BRANCH  61  66
ATOM     66  CB  ALA d   1      -6.736  48.326  74.789  0.00  0.00    -0.048 C 
ATOM     67  H44 ALA d   1      -7.560  47.831  74.255  0.00  0.00     0.030 H 
ATOM     68  H45 ALA d   1      -5.777  48.036  74.334  0.00  0.00     0.030 H 
ATOM     69  H46 ALA d   1      -6.859  49.417  74.722  0.00  0.00     0.030 H 
ENDBRANCH  61  66
ENDBRANCH  59  61
ENDBRANCH  55  57
BRANCH  55  70
ATOM     70  CB  ALA d   1      -3.152  48.292  79.126  0.00  0.00    -0.049 C 
ATOM     71  H39 ALA d   1      -2.929  47.725  78.210  0.00  0.00     0.030 H 
ATOM     72  H40 ALA d   1      -3.424  47.595  79.932  0.00  0.00     0.030 H 
ATOM     73  H41 ALA d   1      -2.265  48.870  79.424  0.00  0.00     0.030 H 
ENDBRANCH  55  70
ENDBRANCH  53  55
ENDBRANCH  49  51
BRANCH  49  74
ATOM     74  CB  PHE d   1      -5.273  53.097  81.206  0.00  0.00    -0.014 C 
ATOM     75  H30 PHE d   1      -5.725  53.469  80.275  0.00  0.00     0.043 H 
ATOM     76  H31 PHE d   1      -4.179  53.062  81.095  0.00  0.00     0.043 H 
BRANCH  74  77
ATOM     77  CG  PHE d   1      -5.604  54.067  82.311  0.00  0.00    -0.056 A 
ATOM     78  CD1 PHE d   1      -6.737  53.898  83.105  0.00  0.00    -0.077 A 
ATOM     79  CE1 PHE d   1      -7.032  54.796  84.118  0.00  0.00    -0.082 A 
ATOM     80  H32 PHE d   1      -7.395  53.055  82.928  0.00  0.00     0.084 H 
ATOM     81  CZ  PHE d   1      -6.209  55.888  84.335  0.00  0.00    -0.083 A 
ATOM     82  H34 PHE d   1      -7.907  54.644  84.740  0.00  0.00     0.083 H 
ATOM     83  CE2 PHE d   1      -5.090  56.077  83.543  0.00  0.00    -0.082 A 
ATOM     84  H36 PHE d   1      -6.441  56.594  85.124  0.00  0.00     0.083 H 
ATOM     85  CD2 PHE d   1      -4.792  55.172  82.537  0.00  0.00    -0.077 A 
ATOM     86  H35 PHE d   1      -4.447  56.933  83.710  0.00  0.00     0.083 H 
ATOM     87  H33 PHE d   1      -3.915  55.328  81.919  0.00  0.00     0.084 H 
ENDBRANCH  74  77
ENDBRANCH  49  74
ENDBRANCH  47  49
ENDBRANCH   1  45
BRANCH   1  88
ATOM     88  CB  SER d   1      -5.465  50.097  85.707  0.00  0.00     0.044 C 
ATOM     89  H25 SER d   1      -6.519  49.791  85.784  0.00  0.00     0.077 H 
ATOM     90  H26 SER d   1      -5.406  51.192  85.624  0.00  0.00     0.077 H 
BRANCH  88  91
ATOM     91  OG  SER d   1      -4.778  49.685  86.877  0.00  0.00    -0.398 OA
ATOM     92  H27 SER d   1      -5.179  50.090  87.637  0.00  0.00     0.209 HD
ENDBRANCH  88  91
ENDBRANCH   1  88
TORSDOF 21
