REMARK  29 active torsions:
REMARK  status: ('A' for Active; 'I' for Inactive)
REMARK    1  A    between atoms: CA_2  and  C_3 
REMARK       I    between atoms: C_3  and  N_8 
REMARK    2  A    between atoms: N_8  and  CA_9 
REMARK    3  A    between atoms: CA_9  and  C_10 
REMARK    4  A    between atoms: CA_9  and  CB_12 
REMARK       I    between atoms: C_10  and  N_19 
REMARK    5  A    between atoms: CB_12  and  CG_13 
REMARK    6  A    between atoms: CG_13  and  CD_14 
REMARK    7  A    between atoms: CD_14  and  NE_15 
REMARK       I    between atoms: NE_15  and  CZ_16 
REMARK       I    between atoms: CZ_16  and  NH1_17 
REMARK    8  A    between atoms: N_19  and  CA_20 
REMARK    9  A    between atoms: CA_20  and  C_21 
REMARK   10  A    between atoms: CA_20  and  CB_23 
REMARK       I    between atoms: C_21  and  N_27 
REMARK   11  A    between atoms: CB_23  and  CG_24 
REMARK   12  A    between atoms: CG_24  and  CD1_25 
REMARK   13  A    between atoms: CG_24  and  CD2_26 
REMARK   14  A    between atoms: N_27  and  CA_28 
REMARK   15  A    between atoms: CA_28  and  C_29 
REMARK   16  A    between atoms: CA_28  and  CB_31 
REMARK       I    between atoms: C_29  and  N_39 
REMARK   17  A    between atoms: CB_31  and  CG_32 
REMARK   18  A    between atoms: CZ_37  and  OH_38 
REMARK   19  A    between atoms: N_39  and  CA_40 
REMARK   20  A    between atoms: CA_40  and  C_41 
REMARK   21  A    between atoms: CA_40  and  CB_43 
REMARK       I    between atoms: C_41  and  N_47 
REMARK   22  A    between atoms: CB_43  and  CG_44 
REMARK   23  A    between atoms: CG_44  and  CD1_45 
REMARK   24  A    between atoms: CG_44  and  CD2_46 
REMARK   25  A    between atoms: N_47  and  CA_48 
REMARK   26  A    between atoms: CA_48  and  C_49 
REMARK   27  A    between atoms: CA_48  and  CB_51 
REMARK   28  A    between atoms: CB_51  and  CG1_52 
REMARK   29  A    between atoms: CB_51  and  CG2_53 
ROOT
ATOM      1  C   LEU d   1      -4.867  50.278  82.981  0.00  0.00     0.241 C 
ATOM      2  O   LEU d   1      -5.909  49.681  82.701  0.00  0.00    -0.271 OA
ATOM      3  N   TYR d   1      -4.303  51.177  82.175  0.00  0.00    -0.346 N 
ATOM      4  H34 TYR d   1      -3.398  51.536  82.403  0.00  0.00     0.163 HD
ENDROOT
BRANCH   1   5
ATOM      5  CA  LEU d   1      -4.161  50.009  84.308  0.00  0.00     0.089 C 
ATOM      6  H24 LEU d   1      -4.390  48.974  84.601  0.00  0.00     0.087 H 
BRANCH   5   7
ATOM      7  N   LEU d   1      -2.696  50.122  84.243  0.00  0.00    -0.346 N 
ATOM      8  C   ARG d   1      -1.952  49.411  83.397  0.00  0.00     0.241 C 
ATOM      9  O   ARG d   1      -2.433  48.702  82.514  0.00  0.00    -0.271 OA
ATOM     10  H23 LEU d   1      -2.238  50.761  84.861  0.00  0.00     0.163 HD
BRANCH   8  11
ATOM     11  CA  ARG d   1      -0.431  49.520  83.555  0.00  0.00     0.089 C 
ATOM     12  H11 ARG d   1       0.008  49.578  82.548  0.00  0.00     0.087 H 
BRANCH  11  13
ATOM     13  N   ARG d   1      -0.014  50.711  84.292  0.00  0.00    -0.346 N 
ATOM     14  C   PRO d   1      -0.172  51.942  83.810  0.00  0.00     0.249 C 
ATOM     15  O   PRO d   1      -0.710  52.182  82.726  0.00  0.00    -0.271 OA
ATOM     16  H10 ARG d   1       0.406  50.597  85.192  0.00  0.00     0.163 HD
BRANCH  14  17
ATOM     17  CA  PRO d   1       0.338  53.087  84.690  0.00  0.00     0.178 C 
ATOM     18  N   PRO d   1       0.260  54.378  84.019  0.00  0.00    -0.062 N 
ATOM     19  CD  PRO d   1      -0.934  55.141  84.428  0.00  0.00     0.083 C 
ATOM     20  H1  PRO d   1       0.224  54.226  83.023  0.00  0.00     0.278 HD
ATOM     21  H2  PRO d   1       1.083  54.914  84.247  0.00  0.00     0.278 HD
ATOM     22  CG  PRO d   1      -1.624  54.227  85.406  0.00  0.00    -0.040 C 
ATOM     23  H8  PRO d   1      -1.581  55.350  83.563  0.00  0.00     0.075 H 
ATOM     24  H9  PRO d   1      -0.648  56.088  84.910  0.00  0.00     0.075 H 
ATOM     25  CB  PRO d   1      -0.581  53.279  85.895  0.00  0.00    -0.028 C 
ATOM     26  H6  PRO d   1      -2.036  54.807  86.245  0.00  0.00     0.035 H 
ATOM     27  H7  PRO d   1      -2.436  53.677  84.907  0.00  0.00     0.035 H 
ATOM     28  H4  PRO d   1      -0.029  53.709  86.743  0.00  0.00     0.036 H 
ATOM     29  H5  PRO d   1      -1.033  52.323  86.198  0.00  0.00     0.036 H 
ATOM     30  H3  PRO d   1       1.370  52.872  85.006  0.00  0.00     0.099 H 
ENDBRANCH  14  17
ENDBRANCH  11  13
BRANCH  11  31
ATOM     31  CB  ARG d   1       0.110  48.269  84.247  0.00  0.00    -0.036 C 
ATOM     32  H12 ARG d   1      -0.598  47.979  85.038  0.00  0.00     0.036 H 
ATOM     33  H13 ARG d   1       1.082  48.518  84.698  0.00  0.00     0.036 H 
BRANCH  31  34
ATOM     34  CG  ARG d   1       0.305  47.080  83.325  0.00  0.00    -0.048 C 
ATOM     35  H14 ARG d   1       1.200  47.247  82.707  0.00  0.00     0.035 H 
ATOM     36  H15 ARG d   1      -0.577  46.981  82.674  0.00  0.00     0.035 H 
BRANCH  34  37
ATOM     37  CD  ARG d   1       0.482  45.799  84.117  0.00  0.00     0.009 C 
ATOM     38  H16 ARG d   1      -0.505  45.344  84.285  0.00  0.00     0.064 H 
ATOM     39  H17 ARG d   1       0.944  46.040  85.086  0.00  0.00     0.064 H 
BRANCH  37  40
ATOM     40  NE  ARG d   1       1.332  44.840  83.411  0.00  0.00    -0.227 N 
ATOM     41  CZ  ARG d   1       2.619  44.626  83.683  0.00  0.00     0.665 C 
ATOM     42  NH1 ARG d   1       3.221  45.296  84.660  0.00  0.00    -0.235 N 
ATOM     43  NH2 ARG d   1       3.307  43.733  82.980  0.00  0.00    -0.235 N 
ATOM     44  H19 ARG d   1       4.216  45.125  84.865  0.00  0.00     0.174 HD
ATOM     45  H20 ARG d   1       2.693  45.986  85.213  0.00  0.00     0.174 HD
ATOM     46  H21 ARG d   1       2.847  43.210  82.221  0.00  0.00     0.174 HD
ATOM     47  H22 ARG d   1       4.300  43.564  83.194  0.00  0.00     0.174 HD
ATOM     48  H18 ARG d   1       0.906  44.292  82.650  0.00  0.00     0.177 HD
ENDBRANCH  37  40
ENDBRANCH  34  37
ENDBRANCH  31  34
ENDBRANCH  11  31
ENDBRANCH   8  11
ENDBRANCH   5   7
BRANCH   5  49
ATOM     49  CB  LEU d   1      -4.753  50.948  85.374  0.00  0.00    -0.035 C 
ATOM     50  H25 LEU d   1      -5.704  50.489  85.683  0.00  0.00     0.037 H 
ATOM     51  H26 LEU d   1      -4.955  51.898  84.858  0.00  0.00     0.037 H 
BRANCH  49  52
ATOM     52  CG  LEU d   1      -4.028  51.324  86.674  0.00  0.00    -0.059 C 
ATOM     53  H27 LEU d   1      -3.175  51.963  86.403  0.00  0.00     0.038 H 
BRANCH  52  54
ATOM     54  CD1 LEU d   1      -4.965  52.136  87.559  0.00  0.00    -0.073 C 
ATOM     55  H28 LEU d   1      -4.447  52.406  88.491  0.00  0.00     0.028 H 
ATOM     56  H29 LEU d   1      -5.857  51.537  87.796  0.00  0.00     0.028 H 
ATOM     57  H30 LEU d   1      -5.268  53.051  87.029  0.00  0.00     0.028 H 
ENDBRANCH  52  54
BRANCH  52  58
ATOM     58  CD2 LEU d   1      -3.470  50.125  87.438  0.00  0.00    -0.073 C 
ATOM     59  H31 LEU d   1      -2.797  49.553  86.782  0.00  0.00     0.028 H 
ATOM     60  H32 LEU d   1      -4.299  49.480  87.764  0.00  0.00     0.028 H 
ATOM     61  H33 LEU d   1      -2.912  50.478  88.318  0.00  0.00     0.028 H 
ENDBRANCH  52  58
ENDBRANCH  49  52
ENDBRANCH   5  49
ENDBRANCH   1   5
BRANCH   3  62
ATOM     62  CA  TYR d   1      -4.975  51.652  80.963  0.00  0.00     0.093 C 
ATOM     63  H35 TYR d   1      -6.053  51.651  81.184  0.00  0.00     0.088 H 
BRANCH  62  64
ATOM     64  C   TYR d   1      -4.784  50.765  79.738  0.00  0.00     0.241 C 
ATOM     65  O   TYR d   1      -5.490  50.940  78.740  0.00  0.00    -0.271 OA
ATOM     66  N   LEU d   1      -3.841  49.822  79.818  0.00  0.00    -0.346 N 
ATOM     67  H43 LEU d   1      -3.300  49.752  80.656  0.00  0.00     0.163 HD
BRANCH  66  68
ATOM     68  CA  LEU d   1      -3.571  48.886  78.722  0.00  0.00     0.089 C 
ATOM     69  H44 LEU d   1      -3.073  49.456  77.924  0.00  0.00     0.087 H 
BRANCH  68  70
ATOM     70  C   LEU d   1      -4.838  48.285  78.133  0.00  0.00     0.241 C 
ATOM     71  O   LEU d   1      -5.640  47.662  78.836  0.00  0.00    -0.271 OA
ATOM     72  N   VAL d   1      -5.000  48.494  76.832  0.00  0.00    -0.344 N 
ATOM     73  H54 VAL d   1      -4.301  49.014  76.340  0.00  0.00     0.163 HD
BRANCH  72  74
ATOM     74  CA  VAL d   1      -6.149  48.000  76.091  0.00  0.00     0.099 C 
ATOM     75  H55 VAL d   1      -7.049  48.161  76.703  0.00  0.00     0.090 H 
BRANCH  74  76
ATOM     76  C   VAL d   1      -6.013  46.500  75.840  0.00  0.00     0.197 C 
ATOM     77  O   VAL d   1      -4.915  45.983  75.499  0.00  0.00    -0.646 OA
ATOM     78  O   VAL d   1      -7.024  45.760  75.977  0.00  0.00    -0.646 OA
ENDBRANCH  74  76
BRANCH  74  79
ATOM     79  CB  VAL d   1      -6.321  48.788  74.778  0.00  0.00    -0.032 C 
ATOM     80  H56 VAL d   1      -5.320  49.011  74.379  0.00  0.00     0.042 H 
BRANCH  79  81
ATOM     81  CG1 VAL d   1      -7.069  47.980  73.732  0.00  0.00    -0.071 C 
ATOM     82  H57 VAL d   1      -7.171  48.575  72.813  0.00  0.00     0.028 H 
ATOM     83  H58 VAL d   1      -8.068  47.721  74.114  0.00  0.00     0.028 H 
ATOM     84  H59 VAL d   1      -6.510  47.058  73.512  0.00  0.00     0.028 H 
ENDBRANCH  79  81
BRANCH  79  85
ATOM     85  CG2 VAL d   1      -7.026  50.106  75.058  0.00  0.00    -0.071 C 
ATOM     86  H60 VAL d   1      -6.463  50.669  75.817  0.00  0.00     0.028 H 
ATOM     87  H61 VAL d   1      -8.043  49.907  75.428  0.00  0.00     0.028 H 
ATOM     88  H62 VAL d   1      -7.082  50.696  74.131  0.00  0.00     0.028 H 
ENDBRANCH  79  85
ENDBRANCH  74  79
ENDBRANCH  72  74
ENDBRANCH  68  70
BRANCH  68  89
ATOM     89  CB  LEU d   1      -2.625  47.767  79.156  0.00  0.00    -0.035 C 
ATOM     90  H45 LEU d   1      -3.009  46.824  78.739  0.00  0.00     0.037 H 
ATOM     91  H46 LEU d   1      -2.647  47.718  80.255  0.00  0.00     0.037 H 
BRANCH  89  92
ATOM     92  CG  LEU d   1      -1.167  47.904  78.728  0.00  0.00    -0.059 C 
ATOM     93  H47 LEU d   1      -0.750  48.809  79.195  0.00  0.00     0.038 H 
BRANCH  92  94
ATOM     94  CD1 LEU d   1      -0.376  46.701  79.212  0.00  0.00    -0.073 C 
ATOM     95  H48 LEU d   1       0.674  46.804  78.901  0.00  0.00     0.028 H 
ATOM     96  H49 LEU d   1      -0.799  45.784  78.776  0.00  0.00     0.028 H 
ATOM     97  H50 LEU d   1      -0.430  46.644  80.309  0.00  0.00     0.028 H 
ENDBRANCH  92  94
BRANCH  92  98
ATOM     98  CD2 LEU d   1      -1.049  48.047  77.221  0.00  0.00    -0.073 C 
ATOM     99  H51 LEU d   1      -1.627  48.922  76.889  0.00  0.00     0.028 H 
ATOM    100  H52 LEU d   1      -1.442  47.142  76.735  0.00  0.00     0.028 H 
ATOM    101  H53 LEU d   1       0.008  48.181  76.947  0.00  0.00     0.028 H 
ENDBRANCH  92  98
ENDBRANCH  89  92
ENDBRANCH  68  89
ENDBRANCH  66  68
ENDBRANCH  62  64
BRANCH  62 102
ATOM    102  CB  TYR d   1      -4.577  53.097  80.646  0.00  0.00    -0.014 C 
ATOM    103  H36 TYR d   1      -5.022  53.380  79.681  0.00  0.00     0.043 H 
ATOM    104  H37 TYR d   1      -3.481  53.151  80.574  0.00  0.00     0.043 H 
BRANCH 102 105
ATOM    105  CG  TYR d   1      -5.038  54.078  81.693  0.00  0.00    -0.056 A 
ATOM    106  CD1 TYR d   1      -6.399  54.332  81.885  0.00  0.00    -0.074 A 
ATOM    107  CE1 TYR d   1      -6.830  55.221  82.853  0.00  0.00    -0.051 A 
ATOM    108  H38 TYR d   1      -7.129  53.824  81.265  0.00  0.00     0.084 H 
ATOM    109  CZ  TYR d   1      -5.895  55.871  83.639  0.00  0.00     0.065 A 
ATOM    110  H40 TYR d   1      -7.889  55.407  82.994  0.00  0.00     0.087 H 
ATOM    111  CE2 TYR d   1      -4.541  55.638  83.469  0.00  0.00    -0.051 A 
ATOM    112  CD2 TYR d   1      -4.118  54.745  82.500  0.00  0.00    -0.074 A 
ATOM    113  H41 TYR d   1      -3.817  56.152  84.091  0.00  0.00     0.087 H 
ATOM    114  H39 TYR d   1      -3.058  54.562  82.367  0.00  0.00     0.084 H 
BRANCH 109 115
ATOM    115  OH  TYR d   1      -6.316  56.755  84.599  0.00  0.00    -0.361 OA
ATOM    116  H42 TYR d   1      -5.952  57.614  84.418  0.00  0.00     0.217 HD
ENDBRANCH 109 115
ENDBRANCH 102 105
ENDBRANCH  62 102
ENDBRANCH   3  62
TORSDOF 29
