REMARK  10 active torsions:
REMARK  status: ('A' for Active; 'I' for Inactive)
REMARK    1  A    between atoms: C3_1  and  C4_7 
REMARK    2  A    between atoms: C2_21  and  C3_1 
REMARK    3  A    between atoms: C11_4  and  N1_20 
REMARK    4  A    between atoms: S1_6  and  N2_11 
REMARK    5  A    between atoms: C7_14  and  S1_6 
REMARK    6  A    between atoms: C4_7  and  O1_22 
REMARK    7  A    between atoms: C6_9  and  C5_8 
REMARK    8  A    between atoms: N1_20  and  C6_9 
REMARK    9  A    between atoms: N3_19  and  C2_21 
REMARK   10  A    between atoms: O1_22  and  C1_23 
ROOT
ATOM      1  C9  BZ1 d   1       3.859  35.617  18.605  0.00  0.00     0.005 A 
ATOM      2  C10 BZ1 d   1       4.706  35.898  19.868  0.00  0.00     0.125 A 
ATOM      3  C11 BZ1 d   1       2.340  35.369  18.683  0.00  0.00     0.141 C 
ATOM      4  C12 BZ1 d   1       1.901  35.077  20.133  0.00  0.00     0.024 C 
ATOM      5  S2  BZ1 d   1       6.421  36.229  19.493  0.00  0.00    -0.063 SA
ATOM      6  C7  BZ1 d   1       5.927  35.885  17.831  0.00  0.00     0.121 A 
ATOM      7  C8  BZ1 d   1       4.658  35.610  17.527  0.00  0.00    -0.043 A 
ATOM      8  S3  BZ1 d   1       3.934  35.946  21.491  0.00  0.00     0.251 S 
ATOM      9  O2  BZ1 d   1       4.431  37.223  22.288  0.00  0.00    -0.205 OA
ATOM     10  O5  BZ1 d   1       4.201  34.637  22.362  0.00  0.00    -0.205 OA
ATOM     11  N3  BZ1 d   1       2.246  36.087  21.182  0.00  0.00    -0.204 NA
ATOM     12  H3  BZ1 d   1       1.852  36.289  18.329  0.00  0.00     0.094 H 
ATOM     13  H4  BZ1 d   1       2.363  34.124  20.430  0.00  0.00     0.061 H 
ATOM     14  H5  BZ1 d   1       0.806  34.968  20.129  0.00  0.00     0.061 H 
ATOM     15  H15 BZ1 d   1       4.309  35.403  16.516  0.00  0.00     0.087 H 
ENDROOT
BRANCH  11  16
ATOM     16  C2  BZ1 d   1       1.753  37.481  21.031  0.00  0.00    -0.005 C 
ATOM     17  H18 BZ1 d   1       2.601  38.166  21.176  0.00  0.00     0.057 H 
ATOM     18  H19 BZ1 d   1       1.356  37.600  20.012  0.00  0.00     0.057 H 
BRANCH  16  19
ATOM     19  C3  BZ1 d   1       0.663  37.855  22.015  0.00  0.00    -0.033 C 
ATOM     20  H1  BZ1 d   1      -0.260  38.082  21.462  0.00  0.00     0.037 H 
ATOM     21  H2  BZ1 d   1       0.485  37.009  22.695  0.00  0.00     0.037 H 
BRANCH  19  22
ATOM     22  C4  BZ1 d   1       1.071  39.080  22.834  0.00  0.00     0.020 C 
ATOM     23  H6  BZ1 d   1       0.266  39.829  22.797  0.00  0.00     0.074 H 
ATOM     24  H7  BZ1 d   1       1.992  39.510  22.414  0.00  0.00     0.074 H 
BRANCH  22  25
ATOM     25  O1  BZ1 d   1       1.304  38.695  24.204  0.00  0.00    -0.396 OA
BRANCH  25  26
ATOM     26  C1  BZ1 d   1       0.215  38.258  25.058  0.00  0.00     0.004 C 
ATOM     27  H20 BZ1 d   1       0.607  38.013  26.056  0.00  0.00     0.066 H 
ATOM     28  H21 BZ1 d   1      -0.258  37.366  24.621  0.00  0.00     0.066 H 
ATOM     29  H22 BZ1 d   1      -0.529  39.063  25.144  0.00  0.00     0.066 H 
ENDBRANCH  25  26
ENDBRANCH  22  25
ENDBRANCH  19  22
ENDBRANCH  16  19
ENDBRANCH  11  16
BRANCH   3  30
ATOM     30  N1  BZ1 d   1       1.769  34.205  17.902  0.00  0.00    -0.066 N 
ATOM     31  H16 BZ1 d   1       2.068  34.313  16.945  0.00  0.00     0.278 HD
ATOM     32  H17 BZ1 d   1       0.765  34.278  17.951  0.00  0.00     0.278 HD
BRANCH  30  33
ATOM     33  C6  BZ1 d   1       2.131  32.814  18.323  0.00  0.00     0.079 C 
ATOM     34  H11 BZ1 d   1       2.452  32.811  19.375  0.00  0.00     0.075 H 
ATOM     35  H12 BZ1 d   1       1.265  32.147  18.202  0.00  0.00     0.075 H 
BRANCH  33  36
ATOM     36  C5  BZ1 d   1       3.284  32.346  17.421  0.00  0.00    -0.053 C 
ATOM     37  H8  BZ1 d   1       3.578  31.324  17.702  0.00  0.00     0.029 H 
ATOM     38  H9  BZ1 d   1       4.143  33.022  17.544  0.00  0.00     0.029 H 
ATOM     39  H10 BZ1 d   1       2.956  32.358  16.371  0.00  0.00     0.029 H 
ENDBRANCH  33  36
ENDBRANCH  30  33
ENDBRANCH   3  30
BRANCH   6  40
ATOM     40  S1  BZ1 d   1       7.310  35.995  16.756  0.00  0.00     0.263 S 
ATOM     41  O3  BZ1 d   1       7.527  37.360  15.977  0.00  0.00    -0.200 OA
ATOM     42  O4  BZ1 d   1       8.551  35.471  17.584  0.00  0.00    -0.200 OA
BRANCH  40  43
ATOM     43  N2  BZ1 d   1       7.125  34.909  15.506  0.00  0.00    -0.324 N 
ATOM     44  H13 BZ1 d   1       6.391  35.035  14.838  0.00  0.00     0.169 HD
ATOM     45  H14 BZ1 d   1       7.748  34.131  15.423  0.00  0.00     0.169 HD
ENDBRANCH  40  43
ENDBRANCH   6  40
TORSDOF 10
