REMARK  1 active torsions:
REMARK  status: ('A' for Active; 'I' for Inactive)
REMARK    1  A    between atoms: C1_8  and  N1_10 
ROOT
ATOM      1  N1  SIJ d   1     -29.367 -10.455  -4.217  0.00  0.00    -0.364 N 
ATOM      2  C10 SIJ d   1     -28.485 -10.436  -3.041  0.00  0.00    -0.001 C 
ATOM      3  C9  SIJ d   1     -27.617  -9.190  -2.951  0.00  0.00    -0.019 C 
ATOM      4  C4  SIJ d   1     -26.739  -9.005  -4.200  0.00  0.00     0.129 C 
ATOM      5  C3  SIJ d   1     -27.700  -9.046  -5.402  0.00  0.00    -0.019 C 
ATOM      6  C2  SIJ d   1     -28.612 -10.267  -5.465  0.00  0.00    -0.001 C 
ATOM      7  N2  SIJ d   1     -26.123  -7.611  -4.210  0.00  0.00    -0.066 N 
ATOM      8  C8  SIJ d   1     -25.008  -7.398  -3.273  0.00  0.00     0.083 C 
ATOM      9  C7  SIJ d   1     -23.912  -8.419  -3.477  0.00  0.00    -0.042 C 
ATOM     10  C6  SIJ d   1     -24.445  -9.843  -3.392  0.00  0.00    -0.061 C 
ATOM     11  C5  SIJ d   1     -25.622 -10.061  -4.349  0.00  0.00    -0.034 C 
ATOM     12  H4  SIJ d   1     -27.826 -11.316  -3.086  0.00  0.00     0.064 H 
ATOM     13  H5  SIJ d   1     -29.109 -10.491  -2.137  0.00  0.00     0.064 H 
ATOM     14  H6  SIJ d   1     -26.965  -9.275  -2.069  0.00  0.00     0.039 H 
ATOM     15  H7  SIJ d   1     -28.269  -8.311  -2.842  0.00  0.00     0.039 H 
ATOM     16  H8  SIJ d   1     -27.096  -9.025  -6.321  0.00  0.00     0.039 H 
ATOM     17  H9  SIJ d   1     -28.335  -8.149  -5.360  0.00  0.00     0.039 H 
ATOM     18  H10 SIJ d   1     -29.323 -10.137  -6.294  0.00  0.00     0.064 H 
ATOM     19  H11 SIJ d   1     -27.997 -11.161  -5.646  0.00  0.00     0.064 H 
ATOM     20  H12 SIJ d   1     -26.849  -6.950  -3.982  0.00  0.00     0.278 HD
ATOM     21  H13 SIJ d   1     -25.783  -7.429  -5.141  0.00  0.00     0.278 HD
ATOM     22  H14 SIJ d   1     -25.386  -7.480  -2.243  0.00  0.00     0.075 H 
ATOM     23  H15 SIJ d   1     -24.594  -6.392  -3.433  0.00  0.00     0.075 H 
ATOM     24  H16 SIJ d   1     -23.145  -8.279  -2.701  0.00  0.00     0.035 H 
ATOM     25  H17 SIJ d   1     -23.462  -8.266  -4.469  0.00  0.00     0.035 H 
ATOM     26  H18 SIJ d   1     -24.781 -10.038  -2.363  0.00  0.00     0.033 H 
ATOM     27  H19 SIJ d   1     -23.638 -10.543  -3.653  0.00  0.00     0.033 H 
ATOM     28  H20 SIJ d   1     -25.243 -10.024  -5.381  0.00  0.00     0.036 H 
ATOM     29  H21 SIJ d   1     -26.052 -11.054  -4.151  0.00  0.00     0.036 H 
ENDROOT
BRANCH   1  30
ATOM     30  C1  SIJ d   1     -30.773 -10.291  -4.155  0.00  0.00     0.158 A 
ATOM     31  C11 SIJ d   1     -31.476 -10.282  -2.898  0.00  0.00     0.128 A 
ATOM     32  N3  SIJ d   1     -31.197 -10.364  -1.541  0.00  0.00    -0.345 N 
ATOM     33  C13 SIJ d   1     -32.844 -10.136  -3.097  0.00  0.00     0.182 A 
ATOM     34  C12 SIJ d   1     -32.381 -10.255  -0.971  0.00  0.00     0.067 A 
ATOM     35  H2  SIJ d   1     -30.280 -10.482  -1.086  0.00  0.00     0.167 HD
ATOM     36  N4  SIJ d   1     -33.402 -10.115  -1.852  0.00  0.00    -0.222 NA
ATOM     37  H1  SIJ d   1     -32.526 -10.275   0.108  0.00  0.00     0.143 H 
ATOM     38  N5  SIJ d   1     -33.477 -10.045  -4.281  0.00  0.00    -0.220 NA
ATOM     39  C   SIJ d   1     -32.671 -10.078  -5.345  0.00  0.00     0.091 A 
ATOM     40  N   SIJ d   1     -31.339 -10.180  -5.381  0.00  0.00    -0.222 NA
ATOM     41  H3  SIJ d   1     -33.163 -10.013  -6.309  0.00  0.00     0.146 H 
ENDBRANCH   1  30
TORSDOF 1
