REMARK  1 active torsions:
REMARK  status: ('A' for Active; 'I' for Inactive)
REMARK    1  A    between atoms: C1_8  and  N1_10 
ROOT
ATOM      1  N1  15I d   1     -29.299 -10.313  -3.950  0.00  0.00    -0.364 N 
ATOM      2  C10 15I d   1     -28.466 -10.368  -2.745  0.00  0.00    -0.003 C 
ATOM      3  C9  15I d   1     -27.648  -9.087  -2.650  0.00  0.00    -0.042 C 
ATOM      4  C4  15I d   1     -26.718  -8.859  -3.862  0.00  0.00    -0.013 C 
ATOM      5  C3  15I d   1     -27.539  -9.024  -5.158  0.00  0.00    -0.042 C 
ATOM      6  C2  15I d   1     -28.481 -10.219  -5.166  0.00  0.00    -0.003 C 
ATOM      7  C8  15I d   1     -26.203  -7.371  -3.820  0.00  0.00     0.089 C 
ATOM      8  N2  15I d   1     -25.210  -7.122  -2.720  0.00  0.00    -0.074 N 
ATOM      9  C7  15I d   1     -24.018  -7.984  -2.752  0.00  0.00     0.082 C 
ATOM     10  C6  15I d   1     -24.461  -9.489  -2.783  0.00  0.00    -0.042 C 
ATOM     11  C5  15I d   1     -25.495  -9.802  -3.869  0.00  0.00    -0.055 C 
ATOM     12  H4  15I d   1     -27.790 -11.234  -2.803  0.00  0.00     0.064 H 
ATOM     13  H5  15I d   1     -29.108 -10.463  -1.857  0.00  0.00     0.064 H 
ATOM     14  H6  15I d   1     -27.030  -9.135  -1.741  0.00  0.00     0.036 H 
ATOM     15  H7  15I d   1     -28.341  -8.236  -2.578  0.00  0.00     0.036 H 
ATOM     16  H8  15I d   1     -26.836  -9.136  -5.997  0.00  0.00     0.036 H 
ATOM     17  H9  15I d   1     -28.139  -8.114  -5.302  0.00  0.00     0.036 H 
ATOM     18  H10 15I d   1     -29.151 -10.131  -6.034  0.00  0.00     0.064 H 
ATOM     19  H11 15I d   1     -27.882 -11.137  -5.257  0.00  0.00     0.064 H 
ATOM     20  H12 15I d   1     -27.066  -6.706  -3.670  0.00  0.00     0.076 H 
ATOM     21  H13 15I d   1     -25.724  -7.139  -4.783  0.00  0.00     0.076 H 
ATOM     22  H14 15I d   1     -25.677  -7.267  -1.839  0.00  0.00     0.277 HD
ATOM     23  H15 15I d   1     -24.905  -6.164  -2.785  0.00  0.00     0.277 HD
ATOM     24  H16 15I d   1     -23.408  -7.800  -1.855  0.00  0.00     0.075 H 
ATOM     25  H17 15I d   1     -23.426  -7.758  -3.651  0.00  0.00     0.075 H 
ATOM     26  H18 15I d   1     -24.896  -9.744  -1.805  0.00  0.00     0.035 H 
ATOM     27  H19 15I d   1     -23.571 -10.110  -2.961  0.00  0.00     0.035 H 
ATOM     28  H20 15I d   1     -25.002  -9.722  -4.849  0.00  0.00     0.034 H 
ATOM     29  H21 15I d   1     -25.852 -10.832  -3.721  0.00  0.00     0.034 H 
ENDROOT
BRANCH   1  30
ATOM     30  C1  15I d   1     -30.705 -10.129  -3.954  0.00  0.00     0.158 A 
ATOM     31  C11 15I d   1     -31.465 -10.004  -2.750  0.00  0.00     0.128 A 
ATOM     32  N3  15I d   1     -31.257 -10.029  -1.378  0.00  0.00    -0.345 N 
ATOM     33  C13 15I d   1     -32.820  -9.890  -3.026  0.00  0.00     0.182 A 
ATOM     34  C12 15I d   1     -32.476  -9.969  -0.878  0.00  0.00     0.067 A 
ATOM     35  H2  15I d   1     -30.362 -10.082  -0.870  0.00  0.00     0.167 HD
ATOM     36  N4  15I d   1     -33.448  -9.869  -1.813  0.00  0.00    -0.222 NA
ATOM     37  H1  15I d   1     -32.681  -9.997   0.191  0.00  0.00     0.143 H 
ATOM     38  N5  15I d   1     -33.393  -9.859  -4.245  0.00  0.00    -0.220 NA
ATOM     39  C   15I d   1     -32.533  -9.990  -5.258  0.00  0.00     0.091 A 
ATOM     40  N   15I d   1     -31.206 -10.135  -5.211  0.00  0.00    -0.222 NA
ATOM     41  H3  15I d   1     -32.970  -9.977  -6.250  0.00  0.00     0.146 H 
ENDBRANCH   1  30
TORSDOF 1
