REMARK  2 active torsions:
REMARK  status: ('A' for Active; 'I' for Inactive)
REMARK    1  A    between atoms: C8_7  and  C5_4 
REMARK    2  A    between atoms: C22_16  and  N1_26 
ROOT
ATOM      1  C8  QWI d   1      24.535 -10.268   2.932  0.00  0.00    -0.025 C 
ATOM      2  C9  QWI d   1      23.543  -9.233   3.488  0.00  0.00    -0.035 C 
ATOM      3  C10 QWI d   1      24.182  -8.404   4.588  0.00  0.00     0.083 C 
ATOM      4  N11 QWI d   1      25.424  -7.748   4.144  0.00  0.00    -0.066 N 
ATOM      5  C15 QWI d   1      25.871  -9.613   2.559  0.00  0.00    -0.026 C 
ATOM      6  C17 QWI d   1      28.815  -8.707   2.691  0.00  0.00    -0.001 C 
ATOM      7  C18 QWI d   1      27.557  -7.884   2.921  0.00  0.00    -0.019 C 
ATOM      8  C20 QWI d   1      28.580  -9.241   5.095  0.00  0.00    -0.001 C 
ATOM      9  C21 QWI d   1      27.117  -9.538   4.800  0.00  0.00    -0.019 C 
ATOM     10  C70 QWI d   1      26.491  -8.712   3.662  0.00  0.00     0.129 C 
ATOM     11  N1  QWI d   1      29.438  -9.270   3.898  0.00  0.00    -0.364 N 
ATOM     12  H6  QWI d   1      24.744 -10.965   3.757  0.00  0.00     0.047 H 
ATOM     13  H7  QWI d   1      22.666  -9.758   3.896  0.00  0.00     0.036 H 
ATOM     14  H8  QWI d   1      23.225  -8.566   2.673  0.00  0.00     0.036 H 
ATOM     15  H9  QWI d   1      24.414  -9.063   5.438  0.00  0.00     0.075 H 
ATOM     16  H10 QWI d   1      23.468  -7.630   4.908  0.00  0.00     0.075 H 
ATOM     17  H11 QWI d   1      25.799  -7.221   4.918  0.00  0.00     0.278 HD
ATOM     18  H12 QWI d   1      25.199  -7.121   3.388  0.00  0.00     0.278 HD
ATOM     19  H13 QWI d   1      25.710  -8.994   1.664  0.00  0.00     0.037 H 
ATOM     20  H14 QWI d   1      26.590 -10.412   2.327  0.00  0.00     0.037 H 
ATOM     21  H15 QWI d   1      29.556  -8.061   2.198  0.00  0.00     0.064 H 
ATOM     22  H16 QWI d   1      28.555  -9.542   2.024  0.00  0.00     0.064 H 
ATOM     23  H17 QWI d   1      27.153  -7.563   1.950  0.00  0.00     0.039 H 
ATOM     24  H18 QWI d   1      27.810  -6.999   3.524  0.00  0.00     0.039 H 
ATOM     25  H19 QWI d   1      28.951  -9.992   5.808  0.00  0.00     0.064 H 
ATOM     26  H20 QWI d   1      28.648  -8.241   5.548  0.00  0.00     0.064 H 
ATOM     27  H21 QWI d   1      26.540  -9.345   5.716  0.00  0.00     0.039 H 
ATOM     28  H22 QWI d   1      27.034 -10.602   4.532  0.00  0.00     0.039 H 
ENDROOT
BRANCH   1  29
ATOM     29  C5  QWI d   1      23.993 -11.116   1.793  0.00  0.00    -0.054 A 
ATOM     30  C4  QWI d   1      23.560 -10.540   0.602  0.00  0.00    -0.076 A 
ATOM     31  C3  QWI d   1      23.069 -11.329  -0.433  0.00  0.00    -0.082 A 
ATOM     32  H3  QWI d   1      23.606  -9.464   0.480  0.00  0.00     0.084 H 
ATOM     33  C2  QWI d   1      23.005 -12.700  -0.292  0.00  0.00    -0.083 A 
ATOM     34  H2  QWI d   1      22.735 -10.865  -1.354  0.00  0.00     0.083 H 
ATOM     35  C7  QWI d   1      23.433 -13.286   0.882  0.00  0.00    -0.082 A 
ATOM     36  H1  QWI d   1      22.621 -13.313  -1.099  0.00  0.00     0.083 H 
ATOM     37  C6  QWI d   1      23.925 -12.499   1.919  0.00  0.00    -0.076 A 
ATOM     38  H5  QWI d   1      23.386 -14.363   0.997  0.00  0.00     0.083 H 
ATOM     39  H4  QWI d   1      24.259 -12.970   2.836  0.00  0.00     0.084 H 
ENDBRANCH   1  29
BRANCH  11  40
ATOM     40  C22 QWI d   1      30.831  -9.581   3.951  0.00  0.00     0.158 A 
ATOM     41  N23 QWI d   1      31.331  -9.671   5.205  0.00  0.00    -0.222 NA
ATOM     42  C24 QWI d   1      32.666  -9.789   5.246  0.00  0.00     0.091 A 
ATOM     43  N25 QWI d   1      33.533  -9.824   4.227  0.00  0.00    -0.220 NA
ATOM     44  H23 QWI d   1      33.101  -9.866   6.236  0.00  0.00     0.146 H 
ATOM     45  C26 QWI d   1      32.953  -9.768   3.009  0.00  0.00     0.182 A 
ATOM     46  N27 QWI d   1      33.567  -9.838   1.789  0.00  0.00    -0.222 NA
ATOM     47  C31 QWI d   1      31.592  -9.663   2.741  0.00  0.00     0.128 A 
ATOM     48  C29 QWI d   1      32.581  -9.793   0.861  0.00  0.00     0.067 A 
ATOM     49  N30 QWI d   1      31.369  -9.690   1.373  0.00  0.00    -0.345 N 
ATOM     50  H24 QWI d   1      32.771  -9.838  -0.210  0.00  0.00     0.143 H 
ATOM     51  H25 QWI d   1      30.469  -9.641   0.874  0.00  0.00     0.167 HD
ENDBRANCH  11  40
TORSDOF 2
