REMARK  9 active torsions:
REMARK  status: ('A' for Active; 'I' for Inactive)
REMARK    1  A    between atoms: C20_12  and  N3_2 
REMARK    2  A    between atoms: C5_4  and  C4_3 
REMARK    3  A    between atoms: C6_5  and  C11_26 
REMARK    4  A    between atoms: N2_29  and  C13_9 
REMARK    5  A    between atoms: C17_11  and  C19_33 
REMARK    6  A    between atoms: C16_31  and  C20_12 
REMARK    7  A    between atoms: C3_24  and  C2_23 
REMARK    8  A    between atoms: C12_27  and  C9_25 
REMARK       I    between atoms: C12_27  and  N2_29 
REMARK    9  A    between atoms: N4_39  and  C25_38 
ROOT
ATOM      1  C13 0LI d   1      -6.005   5.232 -39.905  0.00  0.00     0.035 A 
ATOM      2  C15 0LI d   1      -3.966   6.202 -39.051  0.00  0.00    -0.072 A 
ATOM      3  C17 0LI d   1      -3.892   3.990 -39.993  0.00  0.00     0.058 A 
ATOM      4  C14 0LI d   1      -5.338   6.279 -39.333  0.00  0.00    -0.057 A 
ATOM      5  C16 0LI d   1      -3.247   5.045 -39.374  0.00  0.00    -0.017 A 
ATOM      6  C18 0LI d   1      -5.269   4.083 -40.255  0.00  0.00    -0.042 A 
ATOM      7  H   0LI d   1      -3.462   7.039 -38.582  0.00  0.00     0.084 H 
ATOM      8  H   0LI d   1      -5.880   7.187 -39.093  0.00  0.00     0.086 H 
ATOM      9  H   0LI d   1      -5.775   3.254 -40.736  0.00  0.00     0.088 H 
ENDROOT
BRANCH   1  10
ATOM     10  N2  0LI d   1      -7.400   5.288 -40.297  0.00  0.00    -0.323 N 
ATOM     11  C12 0LI d   1      -8.317   4.204 -40.551  0.00  0.00     0.256 C 
ATOM     12  O1  0LI d   1      -7.978   3.022 -40.471  0.00  0.00    -0.267 OA
ATOM     13  H   0LI d   1      -7.779   6.207 -40.407  0.00  0.00     0.169 HD
BRANCH  11  14
ATOM     14  C9  0LI d   1      -9.688   4.521 -41.128  0.00  0.00     0.033 A 
ATOM     15  C8  0LI d   1     -10.128   5.808 -41.467  0.00  0.00    -0.067 A 
ATOM     16  C7  0LI d   1     -11.378   6.018 -42.101  0.00  0.00    -0.075 A 
ATOM     17  H   0LI d   1      -9.499   6.661 -41.239  0.00  0.00     0.085 H 
ATOM     18  C6  0LI d   1     -12.202   4.946 -42.437  0.00  0.00    -0.043 A 
ATOM     19  H   0LI d   1     -11.698   7.029 -42.328  0.00  0.00     0.084 H 
ATOM     20  C5  0LI d   1     -11.788   3.703 -42.080  0.00  0.00     0.025 A 
ATOM     21  C10 0LI d   1     -10.510   3.446 -41.460  0.00  0.00    -0.049 A 
ATOM     22  H   0LI d   1     -10.194   2.430 -41.255  0.00  0.00     0.087 H 
BRANCH  18  23
ATOM     23  C11 0LI d   1     -13.529   5.110 -43.095  0.00  0.00    -0.050 C 
ATOM     24  H   0LI d   1     -13.983   4.121 -43.256  0.00  0.00     0.033 H 
ATOM     25  H   0LI d   1     -13.398   5.615 -44.063  0.00  0.00     0.033 H 
ATOM     26  H   0LI d   1     -14.185   5.715 -42.452  0.00  0.00     0.033 H 
ENDBRANCH  18  23
BRANCH  20  27
ATOM     27  C4  0LI d   1     -12.532   2.474 -42.390  0.00  0.00    -0.059 C 
ATOM     28  C3  0LI d   1     -13.057   1.485 -42.650  0.00  0.00    -0.040 C 
BRANCH  28  29
ATOM     29  C2  0LI d   1     -13.652   0.225 -43.039  0.00  0.00     0.131 A 
ATOM     30  N82 0LI d   1     -14.347  -0.696 -42.352  0.00  0.00    -0.206 N 
ATOM     31  N81 0LI d   1     -14.804  -0.731 -41.082  0.00  0.00    -0.177 NA
ATOM     32  C84 0LI d   1     -14.582  -1.721 -43.246  0.00  0.00     0.151 A 
ATOM     33  C83 0LI d   1     -15.520  -1.824 -40.685  0.00  0.00     0.022 A 
ATOM     34  C82 0LI d   1     -15.802  -2.863 -41.532  0.00  0.00    -0.061 A 
ATOM     35  H   0LI d   1     -15.880  -1.871 -39.658  0.00  0.00     0.117 H 
ATOM     36  C81 0LI d   1     -15.349  -2.838 -42.828  0.00  0.00    -0.035 A 
ATOM     37  H   0LI d   1     -16.387  -3.710 -41.177  0.00  0.00     0.086 H 
ATOM     38  H   0LI d   1     -15.572  -3.653 -43.515  0.00  0.00     0.089 H 
ATOM     39  N1  0LI d   1     -14.008  -1.416 -44.439  0.00  0.00    -0.238 NA
ATOM     40  C1  0LI d   1     -13.419  -0.239 -44.333  0.00  0.00     0.041 A 
ATOM     41  H   0LI d   1     -12.856   0.274 -45.111  0.00  0.00     0.119 H 
ENDBRANCH  28  29
ENDBRANCH  20  27
ENDBRANCH  11  14
ENDBRANCH   1  10
BRANCH   3  42
ATOM     42  C19 0LI d   1      -3.155   2.699 -40.323  0.00  0.00     0.418 C 
ATOM     43  F1  0LI d   1      -2.013   2.982 -40.980  0.00  0.00    -0.166 F 
ATOM     44  F2  0LI d   1      -3.906   1.840 -41.029  0.00  0.00    -0.166 F 
ATOM     45  F3  0LI d   1      -2.880   2.114 -39.165  0.00  0.00    -0.166 F 
ENDBRANCH   3  42
BRANCH   5  46
ATOM     46  C20 0LI d   1      -1.748   5.067 -39.029  0.00  0.00     0.108 C 
ATOM     47  H   0LI d   1      -1.383   4.032 -38.961  0.00  0.00     0.083 H 
ATOM     48  H   0LI d   1      -1.206   5.595 -39.828  0.00  0.00     0.083 H 
BRANCH  46  49
ATOM     49  N3  0LI d   1      -1.493   5.744 -37.756  0.00  0.00    -0.064 N 
ATOM     50  C21 0LI d   1      -0.086   6.051 -37.581  0.00  0.00     0.106 C 
ATOM     51  C22 0LI d   1       0.065   6.871 -36.312  0.00  0.00     0.105 C 
ATOM     52  H   0LI d   1       0.280   6.628 -38.443  0.00  0.00     0.078 H 
ATOM     53  H   0LI d   1       0.491   5.119 -37.493  0.00  0.00     0.078 H 
ATOM     54  N4  0LI d   1      -0.488   6.185 -35.170  0.00  0.00    -0.072 N 
ATOM     55  H   0LI d   1      -0.459   7.829 -36.441  0.00  0.00     0.078 H 
ATOM     56  H   0LI d   1       1.134   7.059 -36.133  0.00  0.00     0.078 H 
ATOM     57  C23 0LI d   1      -1.900   5.904 -35.331  0.00  0.00     0.105 C 
ATOM     58  H   0LI d   1      -0.020   5.294 -35.118  0.00  0.00     0.279 HD
ATOM     59  C24 0LI d   1      -2.076   5.100 -36.596  0.00  0.00     0.106 C 
ATOM     60  H   0LI d   1      -2.266   5.328 -34.469  0.00  0.00     0.078 H 
ATOM     61  H   0LI d   1      -2.462   6.847 -35.407  0.00  0.00     0.078 H 
ATOM     62  H   0LI d   1      -1.595   4.120 -36.459  0.00  0.00     0.078 H 
ATOM     63  H   0LI d   1      -3.152   4.959 -36.776  0.00  0.00     0.078 H 
ATOM     64  H   0LI d   1      -1.961   6.634 -37.828  0.00  0.00     0.280 HD
BRANCH  54  65
ATOM     65  C25 0LI d   1      -0.212   6.879 -33.902  0.00  0.00     0.066 C 
ATOM     66  H   0LI d   1       0.867   7.074 -33.818  0.00  0.00     0.068 H 
ATOM     67  H   0LI d   1      -0.538   6.249 -33.061  0.00  0.00     0.068 H 
ATOM     68  H   0LI d   1      -0.759   7.833 -33.879  0.00  0.00     0.068 H 
ENDBRANCH  54  65
ENDBRANCH  46  49
ENDBRANCH   5  46
TORSDOF 9
