REMARK  6 active torsions:
REMARK  status: ('A' for Active; 'I' for Inactive)
REMARK    1  A    between atoms: C2_2  and  C3_3 
REMARK    2  A    between atoms: C3_3  and  C4_4 
REMARK    3  A    between atoms: C4_4  and  C12_5 
REMARK    4  A    between atoms: C4_4  and  N1_11 
REMARK       I    between atoms: N1_11  and  C5_12 
REMARK    5  A    between atoms: C5_12  and  O3_14 
REMARK    6  A    between atoms: O3_14  and  C6_15 
ROOT
ATOM      1  C4  L6C d   1      -1.021 -12.940 -50.808  0.00  0.00     0.045 C 
ATOM      2  H4  L6C d   1      -2.054 -13.221 -51.061  0.00  0.00     0.081 H 
ENDROOT
BRANCH   1   3
ATOM      3  C3  L6C d   1      -0.078 -13.940 -51.335  0.00  0.00     0.006 C 
ATOM      4  H2  L6C d   1      -0.141 -13.986 -52.432  0.00  0.00     0.046 H 
ATOM      5  H3  L6C d   1       0.951 -13.691 -51.037  0.00  0.00     0.046 H 
BRANCH   3   6
ATOM      6  C2  L6C d   1      -0.489 -15.227 -50.741  0.00  0.00     0.090 C 
ATOM      7  O1  L6C d   1      -1.660 -15.502 -50.590  0.00  0.00    -0.307 OA
ATOM      8  H1  L6C d   1       0.273 -15.942 -50.433  0.00  0.00     0.143 H 
ENDBRANCH   3   6
ENDBRANCH   1   3
BRANCH   1   9
ATOM      9  C12 L6C d   1      -0.719 -11.593 -51.367  0.00  0.00    -0.035 A 
ATOM     10  C17 L6C d   1      -1.465 -11.055 -52.423  0.00  0.00    -0.075 A 
ATOM     11  C16 L6C d   1      -1.189  -9.793 -52.955  0.00  0.00    -0.082 A 
ATOM     12  H5  L6C d   1      -2.281 -11.635 -52.840  0.00  0.00     0.084 H 
ATOM     13  C15 L6C d   1      -0.158  -9.022 -52.436  0.00  0.00    -0.083 A 
ATOM     14  H6  L6C d   1      -1.784  -9.414 -53.778  0.00  0.00     0.083 H 
ATOM     15  C14 L6C d   1       0.587  -9.530 -51.386  0.00  0.00    -0.082 A 
ATOM     16  H7  L6C d   1       0.059  -8.042 -52.845  0.00  0.00     0.083 H 
ATOM     17  C13 L6C d   1       0.313 -10.799 -50.862  0.00  0.00    -0.075 A 
ATOM     18  H8  L6C d   1       1.392  -8.939 -50.965  0.00  0.00     0.083 H 
ATOM     19  H9  L6C d   1       0.917 -11.175 -50.044  0.00  0.00     0.084 H 
ENDBRANCH   1   9
BRANCH   1  20
ATOM     20  N1  L6C d   1      -0.840 -12.924 -49.374  0.00  0.00    -0.328 N 
ATOM     21  C5  L6C d   1      -2.076 -12.732 -48.649  0.00  0.00     0.366 C 
ATOM     22  O2  L6C d   1      -3.178 -12.881 -49.203  0.00  0.00    -0.238 OA
ATOM     23  H10 L6C d   1       0.049 -13.034 -48.929  0.00  0.00     0.165 HD
BRANCH  21  24
ATOM     24  O3  L6C d   1      -1.986 -12.838 -47.278  0.00  0.00    -0.262 OA
BRANCH  24  25
ATOM     25  C6  L6C d   1      -3.097 -13.140 -46.525  0.00  0.00     0.081 A 
ATOM     26  C7  L6C d   1      -3.761 -14.372 -46.667  0.00  0.00    -0.050 A 
ATOM     27  C8  L6C d   1      -4.886 -14.665 -45.896  0.00  0.00    -0.080 A 
ATOM     28  H11 L6C d   1      -3.395 -15.100 -47.382  0.00  0.00     0.087 H 
ATOM     29  C9  L6C d   1      -5.368 -13.747 -44.957  0.00  0.00    -0.083 A 
ATOM     30  H12 L6C d   1      -5.392 -15.615 -46.026  0.00  0.00     0.083 H 
ATOM     31  C10 L6C d   1      -4.699 -12.535 -44.809  0.00  0.00    -0.080 A 
ATOM     32  H13 L6C d   1      -6.243 -13.974 -44.358  0.00  0.00     0.083 H 
ATOM     33  C11 L6C d   1      -3.583 -12.224 -45.572  0.00  0.00    -0.050 A 
ATOM     34  H14 L6C d   1      -5.059 -11.818 -44.080  0.00  0.00     0.083 H 
ATOM     35  H15 L6C d   1      -3.083 -11.272 -45.434  0.00  0.00     0.087 H 
ENDBRANCH  24  25
ENDBRANCH  21  24
ENDBRANCH   1  20
TORSDOF 6
