REMARK  9 active torsions:
REMARK  status: ('A' for Active; 'I' for Inactive)
REMARK    1  A    between atoms: C28_2  and  C27_5 
REMARK    2  A    between atoms: C27_5  and  O26_6 
REMARK    3  A    between atoms: O26_6  and  C18_7 
REMARK    4  A    between atoms: C21_12  and  C24_13 
REMARK       I    between atoms: C24_13  and  N13_15 
REMARK    5  A    between atoms: N13_15  and  C7_16 
REMARK    6  A    between atoms: C11_21  and  C1_22 
REMARK    7  A    between atoms: C1_22  and  C14_26 
REMARK    8  A    between atoms: C5_28  and  N15_29 
REMARK    9  A    between atoms: N4_30  and  C17_31 
ROOT
ATOM      1  C7  WZV d   1     -19.815  40.186  92.634  0.00  0.00     0.035 A 
ATOM      2  C12 WZV d   1     -18.493  39.885  92.989  0.00  0.00    -0.049 A 
ATOM      3  C8  WZV d   1     -20.871  39.814  93.470  0.00  0.00    -0.057 A 
ATOM      4  C9  WZV d   1     -20.597  39.121  94.642  0.00  0.00    -0.080 A 
ATOM      5  C10 WZV d   1     -19.281  38.808  94.980  0.00  0.00    -0.074 A 
ATOM      6  C11 WZV d   1     -18.208  39.184  94.163  0.00  0.00    -0.027 A 
ATOM      7  H7  WZV d   1     -17.681  40.200  92.344  0.00  0.00     0.087 H 
ATOM      8  H8  WZV d   1     -21.892  40.063  93.207  0.00  0.00     0.086 H 
ATOM      9  H9  WZV d   1     -21.409  38.823  95.296  0.00  0.00     0.083 H 
ATOM     10  H10 WZV d   1     -19.084  38.262  95.895  0.00  0.00     0.084 H 
ENDROOT
BRANCH   1  11
ATOM     11  N13 WZV d   1     -20.034  40.900  91.447  0.00  0.00    -0.322 N 
ATOM     12  C24 WZV d   1     -21.158  41.432  90.941  0.00  0.00     0.274 C 
ATOM     13  O25 WZV d   1     -22.277  41.377  91.427  0.00  0.00    -0.266 OA
ATOM     14  H6  WZV d   1     -19.218  41.035  90.885  0.00  0.00     0.169 HD
BRANCH  12  15
ATOM     15  C21 WZV d   1     -21.027  42.147  89.643  0.00  0.00     0.124 A 
ATOM     16  N22 WZV d   1     -19.916  41.957  88.887  0.00  0.00    -0.253 NA
ATOM     17  C23 WZV d   1     -19.734  42.567  87.708  0.00  0.00     0.035 A 
ATOM     18  C18 WZV d   1     -20.717  43.429  87.246  0.00  0.00     0.086 A 
ATOM     19  H3  WZV d   1     -18.836  42.390  87.127  0.00  0.00     0.119 H 
ATOM     20  C19 WZV d   1     -21.884  43.657  88.004  0.00  0.00    -0.047 A 
ATOM     21  C20 WZV d   1     -22.043  43.005  89.223  0.00  0.00    -0.047 A 
ATOM     22  H4  WZV d   1     -22.649  44.333  87.641  0.00  0.00     0.087 H 
ATOM     23  H5  WZV d   1     -22.929  43.159  89.828  0.00  0.00     0.087 H 
BRANCH  18  24
ATOM     24  O26 WZV d   1     -20.553  44.052  86.042  0.00  0.00    -0.341 OA
BRANCH  24  25
ATOM     25  C27 WZV d   1     -21.754  44.393  85.368  0.00  0.00     0.116 C 
ATOM     26  H1  WZV d   1     -22.267  43.480  85.030  0.00  0.00     0.088 H 
ATOM     27  H2  WZV d   1     -22.416  44.957  86.042  0.00  0.00     0.088 H 
BRANCH  25  28
ATOM     28  C28 WZV d   1     -21.383  45.243  84.183  0.00  0.00     0.408 C 
ATOM     29  F30 WZV d   1     -20.867  44.410  83.308  0.00  0.00    -0.169 F 
ATOM     30  F31 WZV d   1     -22.460  45.834  83.723  0.00  0.00    -0.169 F 
ATOM     31  F29 WZV d   1     -20.518  46.178  84.525  0.00  0.00    -0.169 F 
ENDBRANCH  25  28
ENDBRANCH  24  25
ENDBRANCH  18  24
ENDBRANCH  12  15
ENDBRANCH   1  11
BRANCH   6  32
ATOM     32  C1  WZV d   1     -16.798  38.827  94.588  0.00  0.00     0.079 C 
ATOM     33  C2  WZV d   1     -16.444  39.680  95.778  0.00  0.00     0.038 C 
ATOM     34  C3  WZV d   1     -16.091  41.058  95.292  0.00  0.00     0.240 C 
ATOM     35  H11 WZV d   1     -15.584  39.242  96.306  0.00  0.00     0.051 H 
ATOM     36  H12 WZV d   1     -17.304  39.737  96.462  0.00  0.00     0.051 H 
ATOM     37  O16 WZV d   1     -16.344  41.971  96.036  0.00  0.00    -0.272 OA
ATOM     38  N4  WZV d   1     -15.567  41.271  94.072  0.00  0.00    -0.156 N 
ATOM     39  C5  WZV d   1     -15.353  40.216  93.266  0.00  0.00     0.677 C 
ATOM     40  N6  WZV d   1     -15.792  39.072  93.557  0.00  0.00    -0.213 N 
ATOM     41  H16 WZV d   1     -15.421  38.263  93.039  0.00  0.00     0.179 HD
BRANCH  38  42
ATOM     42  C17 WZV d   1     -15.305  42.647  93.635  0.00  0.00     0.005 C 
ATOM     43  H19 WZV d   1     -15.549  43.343  94.451  0.00  0.00     0.058 H 
ATOM     44  H20 WZV d   1     -15.927  42.878  92.757  0.00  0.00     0.058 H 
ATOM     45  H21 WZV d   1     -14.243  42.752  93.370  0.00  0.00     0.058 H 
ENDBRANCH  38  42
BRANCH  39  46
ATOM     46  N15 WZV d   1     -14.706  40.367  92.100  0.00  0.00    -0.234 N 
ATOM     47  H17 WZV d   1     -14.547  39.553  91.490  0.00  0.00     0.174 HD
ATOM     48  H18 WZV d   1     -14.368  41.297  91.815  0.00  0.00     0.174 HD
ENDBRANCH  39  46
BRANCH  32  49
ATOM     49  C14 WZV d   1     -16.700  37.378  95.015  0.00  0.00    -0.048 C 
ATOM     50  H13 WZV d   1     -16.953  36.727  94.165  0.00  0.00     0.031 H 
ATOM     51  H14 WZV d   1     -17.401  37.191  95.842  0.00  0.00     0.031 H 
ATOM     52  H15 WZV d   1     -15.674  37.163  95.348  0.00  0.00     0.031 H 
ENDBRANCH  32  49
ENDBRANCH   6  32
TORSDOF 9
