REMARK  12 active torsions:
REMARK  status: ('A' for Active; 'I' for Inactive)
REMARK    1  A    between atoms: IR_39  and  CL_1 
REMARK    2  A    between atoms: C26_8  and  C27_9 
REMARK    3  A    between atoms: C32_14  and  S1_15 
REMARK    4  A    between atoms: S1_15  and  N2_18 
REMARK    5  A    between atoms: N3_19  and  S2_20 
REMARK    6  A    between atoms: S2_20  and  C13_23 
REMARK    7  A    between atoms: C1_29  and  C11_30 
REMARK    8  A    between atoms: C3_31  and  C4_32 
REMARK    9  A    between atoms: C5_33  and  C6_34 
REMARK   10  A    between atoms: C7_35  and  C8_36 
REMARK   11  A    between atoms: C9_37  and  C10_38 
REMARK   12  A    between atoms: IR_39  and  C9_37 
ROOT
ATOM      1  C21 9TH d   1      16.880   7.595  11.850  0.00  0.00     0.169 C 
ATOM      2  C22 9TH d   1      17.706   6.627  12.626  0.00  0.00     0.064 A 
ATOM      3  C23 9TH d   1      17.122   5.559  13.300  0.00  0.00    -0.047 A 
ATOM      4  N21 9TH d   1      19.092   6.744  12.714  0.00  0.00    -0.264 N 
ATOM      5  C24 9TH d   1      19.898   5.848  13.399  0.00  0.00     0.003 A 
ATOM      6  C25 9TH d   1      19.330   4.800  14.091  0.00  0.00    -0.055 A 
ATOM      7  C26 9TH d   1      17.936   4.674  14.036  0.00  0.00    -0.023 A 
ATOM      8  N3  9TH d   1      17.889   8.419  11.159  0.00  0.00     0.209 N 
ATOM      9 IR   9TH d   1      20.046   8.428  11.734  0.00  0.00     0.000 Ir
ATOM     10  H2  9TH d   1      16.260   8.210  12.519  0.00  0.00     0.091 H 
ATOM     11  H3  9TH d   1      16.235   7.073  11.128  0.00  0.00     0.091 H 
ATOM     12  H4  9TH d   1      16.049   5.409  13.259  0.00  0.00     0.088 H 
ATOM     13  H5  9TH d   1      20.975   5.972  13.390  0.00  0.00     0.114 H 
ATOM     14  H6  9TH d   1      19.938   4.101  14.655  0.00  0.00     0.087 H 
ATOM     15  H13 9TH d   1      18.542   9.017  11.624  0.00  0.00     0.339 HD
ENDROOT
BRANCH   9  16
ATOM     16 CL   9TH d   1      20.926   7.264   9.807  0.00  0.00    -0.145 Cl
ATOM     17  H1  9TH d   1      21.927   7.157   9.868  0.00  0.00     0.145 HD
ENDBRANCH   9  16
BRANCH   9  18
ATOM     18  C9  9TH d   1      20.323   9.051  13.757  0.00  0.00    -0.013 A 
ATOM     19  C1  9TH d   1      19.277   9.848  13.115  0.00  0.00    -0.070 A 
ATOM     20  C3  9TH d   1      19.762  10.613  12.004  0.00  0.00    -0.053 A 
ATOM     21  C5  9TH d   1      21.165  10.308  11.916  0.00  0.00    -0.053 A 
ATOM     22  C7  9TH d   1      21.529   9.360  12.970  0.00  0.00    -0.070 A 
ATOM     23  H31 9TH d   1      20.545   9.854  14.475  0.00  0.00     0.053 H 
BRANCH  19  24
ATOM     24  C11 9TH d   1      17.897   9.903  13.524  0.00  0.00    -0.053 C 
ATOM     25  H19 9TH d   1      17.344  10.583  12.859  0.00  0.00     0.033 H 
ATOM     26  H20 9TH d   1      17.835  10.272  14.558  0.00  0.00     0.033 H 
ATOM     27  H21 9TH d   1      17.457   8.896  13.467  0.00  0.00     0.033 H 
ENDBRANCH  19  24
BRANCH  20  28
ATOM     28  C4  9TH d   1      18.958  11.550  11.131  0.00  0.00    -0.050 C 
ATOM     29  H22 9TH d   1      17.910  11.555  11.466  0.00  0.00     0.033 H 
ATOM     30  H23 9TH d   1      19.007  11.210  10.086  0.00  0.00     0.033 H 
ATOM     31  H24 9TH d   1      19.372  12.566  11.206  0.00  0.00     0.033 H 
ENDBRANCH  20  28
BRANCH  21  32
ATOM     32  C6  9TH d   1      22.079  10.897  10.888  0.00  0.00    -0.050 C 
ATOM     33  H25 9TH d   1      21.509  11.575  10.236  0.00  0.00     0.033 H 
ATOM     34  H26 9TH d   1      22.519  10.090  10.283  0.00  0.00     0.033 H 
ATOM     35  H27 9TH d   1      22.881  11.459  11.389  0.00  0.00     0.033 H 
ENDBRANCH  21  32
BRANCH  22  36
ATOM     36  C8  9TH d   1      22.887   8.799  13.207  0.00  0.00    -0.053 C 
ATOM     37  H28 9TH d   1      23.588   9.209  12.465  0.00  0.00     0.033 H 
ATOM     38  H29 9TH d   1      22.853   7.704  13.113  0.00  0.00     0.033 H 
ATOM     39  H30 9TH d   1      23.224   9.070  14.218  0.00  0.00     0.033 H 
ENDBRANCH  22  36
BRANCH  18  40
ATOM     40  C10 9TH d   1      20.188   8.139  14.936  0.00  0.00    -0.066 C 
ATOM     41  H32 9TH d   1      19.144   8.140  15.283  0.00  0.00     0.028 H 
ATOM     42  H33 9TH d   1      20.844   8.488  15.747  0.00  0.00     0.028 H 
ATOM     43  H34 9TH d   1      20.476   7.118  14.645  0.00  0.00     0.028 H 
ENDBRANCH  18  40
ENDBRANCH   9  18
BRANCH   8  44
ATOM     44  S2  9TH d   1      17.809   8.242   9.626  0.00  0.00     0.374 S 
ATOM     45  O3  9TH d   1      18.756   9.207   9.110  0.00  0.00    -0.191 OA
ATOM     46  O4  9TH d   1      18.274   6.908   9.327  0.00  0.00    -0.191 OA
BRANCH  44  47
ATOM     47  C13 9TH d   1      16.266   8.408   9.123  0.00  0.00     0.088 A 
ATOM     48  C14 9TH d   1      15.658   9.678   9.119  0.00  0.00    -0.060 A 
ATOM     49  C15 9TH d   1      14.325   9.804   8.690  0.00  0.00    -0.082 A 
ATOM     50  H14 9TH d   1      16.213  10.551   9.444  0.00  0.00     0.085 H 
ATOM     51  C16 9TH d   1      13.599   8.677   8.274  0.00  0.00    -0.083 A 
ATOM     52  H15 9TH d   1      13.854  10.780   8.680  0.00  0.00     0.083 H 
ATOM     53  C17 9TH d   1      14.211   7.415   8.274  0.00  0.00    -0.082 A 
ATOM     54  H16 9TH d   1      12.569   8.782   7.954  0.00  0.00     0.083 H 
ATOM     55  C18 9TH d   1      15.541   7.283   8.701  0.00  0.00    -0.060 A 
ATOM     56  H17 9TH d   1      13.657   6.543   7.945  0.00  0.00     0.083 H 
ATOM     57  H18 9TH d   1      16.011   6.306   8.705  0.00  0.00     0.085 H 
ENDBRANCH  44  47
ENDBRANCH   8  44
BRANCH   7  58
ATOM     58  C27 9TH d   1      17.263   3.570  14.709  0.00  0.00    -0.026 A 
ATOM     59  C28 9TH d   1      18.009   2.546  15.304  0.00  0.00    -0.071 A 
ATOM     60  C29 9TH d   1      17.415   1.444  15.967  0.00  0.00    -0.059 A 
ATOM     61  H7  9TH d   1      19.091   2.599  15.255  0.00  0.00     0.084 H 
ATOM     62  C32 9TH d   1      16.040   1.325  16.094  0.00  0.00     0.079 A 
ATOM     63  H8  9TH d   1      18.052   0.674  16.386  0.00  0.00     0.085 H 
ATOM     64  C31 9TH d   1      15.298   2.382  15.502  0.00  0.00    -0.059 A 
ATOM     65  C30 9TH d   1      15.884   3.497  14.827  0.00  0.00    -0.071 A 
ATOM     66  H10 9TH d   1      14.217   2.340  15.566  0.00  0.00     0.085 H 
ATOM     67  H9  9TH d   1      15.257   4.277  14.412  0.00  0.00     0.084 H 
BRANCH  62  68
ATOM     68  S1  9TH d   1      15.430   0.023  16.931  0.00  0.00     0.256 S 
ATOM     69  O1  9TH d   1      15.969   0.121  18.268  0.00  0.00    -0.201 OA
ATOM     70  O2  9TH d   1      13.989   0.190  16.867  0.00  0.00    -0.201 OA
BRANCH  68  71
ATOM     71  N2  9TH d   1      15.888  -1.341  16.268  0.00  0.00    -0.324 N 
ATOM     72  H11 9TH d   1      15.597  -2.212  16.664  0.00  0.00     0.169 HD
ATOM     73  H12 9TH d   1      16.468  -1.331  15.454  0.00  0.00     0.169 HD
ENDBRANCH  68  71
ENDBRANCH  62  68
ENDBRANCH   7  58
TORSDOF 12
