REMARK  1 active torsions:
REMARK  status: ('A' for Active; 'I' for Inactive)
REMARK    1  A    between atoms: N10_6  and  C3_7 
ROOT
ATOM      1  C11 XF5 d   1     -23.273 -13.121  25.416  0.00  0.00     0.018 C 
ATOM      2  C12 XF5 d   1     -24.521 -13.461  24.722  0.00  0.00     0.096 C 
ATOM      3  N13 XF5 d   1     -25.427 -12.312  24.852  0.00  0.00    -0.072 N 
ATOM      4  C14 XF5 d   1     -24.905 -11.155  24.129  0.00  0.00     0.096 C 
ATOM      5  C15 XF5 d   1     -23.597 -10.647  24.648  0.00  0.00     0.018 C 
ATOM      6  N10 XF5 d   1     -22.709 -11.770  25.081  0.00  0.00    -0.377 N 
ATOM      7  H1  XF5 d   1     -22.520 -13.879  25.155  0.00  0.00     0.066 H 
ATOM      8  H2  XF5 d   1     -23.465 -13.152  26.499  0.00  0.00     0.066 H 
ATOM      9  H3  XF5 d   1     -24.976 -14.351  25.181  0.00  0.00     0.078 H 
ATOM     10  H4  XF5 d   1     -24.317 -13.660  23.660  0.00  0.00     0.078 H 
ATOM     11  H5  XF5 d   1     -25.524 -12.076  25.827  0.00  0.00     0.277 HD
ATOM     12  H6  XF5 d   1     -26.329 -12.558  24.475  0.00  0.00     0.277 HD
ATOM     13  H7  XF5 d   1     -25.643 -10.342  24.199  0.00  0.00     0.078 H 
ATOM     14  H8  XF5 d   1     -24.771 -11.439  23.075  0.00  0.00     0.078 H 
ATOM     15  H9  XF5 d   1     -23.785  -9.987  25.508  0.00  0.00     0.066 H 
ATOM     16  H10 XF5 d   1     -23.093 -10.078  23.853  0.00  0.00     0.066 H 
ENDROOT
BRANCH   6  17
ATOM     17  C3  XF5 d   1     -21.381 -11.556  25.270  0.00  0.00     0.043 A 
ATOM     18  C4  XF5 d   1     -20.763 -11.977  26.394  0.00  0.00     0.018 A 
ATOM     19  C5  XF5 d   1     -21.196 -12.619  27.487  0.00  0.00    -0.054 A 
ATOM     20  C8  XF5 d   1     -19.441 -11.762  26.569  0.00  0.00     0.044 A 
ATOM     21  C6  XF5 d   1     -20.170 -12.804  28.316  0.00  0.00    -0.022 A 
ATOM     22  H11 XF5 d   1     -22.221 -12.938  27.669  0.00  0.00     0.087 H 
ATOM     23  N7  XF5 d   1     -19.083 -12.271  27.753  0.00  0.00    -0.365 N 
ATOM     24  H12 XF5 d   1     -20.211 -13.303  29.283  0.00  0.00     0.111 H 
ATOM     25  H13 XF5 d   1     -18.136 -12.255  28.159  0.00  0.00     0.165 HD
ATOM     26  C9  XF5 d   1     -18.694 -11.135  25.652  0.00  0.00    -0.056 A 
ATOM     27  C1  XF5 d   1     -19.261 -10.677  24.479  0.00  0.00    -0.079 A 
ATOM     28  H14 XF5 d   1     -17.636 -10.986  25.832  0.00  0.00     0.086 H 
ATOM     29  C2  XF5 d   1     -20.619 -10.898  24.285  0.00  0.00    -0.056 A 
ATOM     30  H15 XF5 d   1     -18.666 -10.162  23.734  0.00  0.00     0.083 H 
ATOM     31  H16 XF5 d   1     -21.095 -10.562  23.371  0.00  0.00     0.086 H 
ENDBRANCH   6  17
TORSDOF 1
