REMARK  2 active torsions:
REMARK  status: ('A' for Active; 'I' for Inactive)
REMARK    1  A    between atoms: C5_2  and  C6_3 
REMARK    2  A    between atoms: C11_9  and  N10_12 
ROOT
ATOM      1  C4  3WC d   1     -20.884 -11.604  25.098  0.00  0.00    -0.032 A 
ATOM      2  C5  3WC d   1     -19.767 -11.541  25.918  0.00  0.00    -0.046 A 
ATOM      3  C11 3WC d   1     -21.992 -12.347  25.508  0.00  0.00     0.127 A 
ATOM      4  C20 3WC d   1     -18.700 -12.212  28.003  0.00  0.00    -0.070 A 
ATOM      5  C22 3WC d   1     -20.946 -12.974  27.496  0.00  0.00     0.070 A 
ATOM      6  C24 3WC d   1     -21.003 -13.682  28.699  0.00  0.00    -0.054 A 
ATOM      7  C26 3WC d   1     -19.912 -13.660  29.573  0.00  0.00    -0.081 A 
ATOM      8  N11 3WC d   1     -22.001 -13.009  26.689  0.00  0.00    -0.231 NA
ATOM      9  C2  3WC d   1     -19.799 -12.234  27.135  0.00  0.00    -0.001 A 
ATOM     10  C28 3WC d   1     -18.770 -12.921  29.219  0.00  0.00    -0.082 A 
ATOM     11  H1  3WC d   1     -20.896 -11.081  24.148  0.00  0.00     0.090 H 
ATOM     12  H15 3WC d   1     -17.806 -11.656  27.743  0.00  0.00     0.084 H 
ATOM     13  H16 3WC d   1     -21.892 -14.248  28.954  0.00  0.00     0.087 H 
ATOM     14  H17 3WC d   1     -19.946 -14.205  30.510  0.00  0.00     0.083 H 
ATOM     15  H18 3WC d   1     -17.924 -12.896  29.896  0.00  0.00     0.083 H 
ENDROOT
BRANCH   3  16
ATOM     16  N10 3WC d   1     -23.081 -12.441  24.728  0.00  0.00    -0.363 N 
ATOM     17  C8  3WC d   1     -23.900 -13.681  24.788  0.00  0.00     0.019 C 
ATOM     18  C10 3WC d   1     -25.302 -13.208  24.970  0.00  0.00     0.096 C 
ATOM     19  H5  3WC d   1     -23.803 -14.254  23.854  0.00  0.00     0.066 H 
ATOM     20  H6  3WC d   1     -23.590 -14.308  25.637  0.00  0.00     0.066 H 
ATOM     21  N12 3WC d   1     -25.689 -12.359  23.823  0.00  0.00    -0.072 N 
ATOM     22  H7  3WC d   1     -25.374 -12.624  25.899  0.00  0.00     0.078 H 
ATOM     23  H8  3WC d   1     -25.977 -14.075  25.029  0.00  0.00     0.078 H 
ATOM     24  C13 3WC d   1     -24.986 -11.054  23.868  0.00  0.00     0.096 C 
ATOM     25  H9  3WC d   1     -26.684 -12.199  23.852  0.00  0.00     0.277 HD
ATOM     26  H10 3WC d   1     -25.450 -12.833  22.966  0.00  0.00     0.277 HD
ATOM     27  C15 3WC d   1     -23.484 -11.353  23.787  0.00  0.00     0.019 C 
ATOM     28  H11 3WC d   1     -25.217 -10.532  24.808  0.00  0.00     0.078 H 
ATOM     29  H12 3WC d   1     -25.294 -10.429  23.017  0.00  0.00     0.078 H 
ATOM     30  H13 3WC d   1     -22.925 -10.440  24.039  0.00  0.00     0.066 H 
ATOM     31  H14 3WC d   1     -23.238 -11.662  22.760  0.00  0.00     0.066 H 
ENDBRANCH   3  16
BRANCH   2  32
ATOM     32  C6  3WC d   1     -18.657 -10.794  25.511  0.00  0.00    -0.050 C 
ATOM     33  H2  3WC d   1     -18.860 -10.342  24.529  0.00  0.00     0.033 H 
ATOM     34  H3  3WC d   1     -17.779 -11.452  25.437  0.00  0.00     0.033 H 
ATOM     35  H4  3WC d   1     -18.459 -10.000  26.246  0.00  0.00     0.033 H 
ENDBRANCH   2  32
TORSDOF 2
