REMARK  19 active torsions:
REMARK  status: ('A' for Active; 'I' for Inactive)
REMARK    1  A    between atoms: C1_1  and  O1_3 
REMARK    2  A    between atoms: C7_18  and  C1_1 
REMARK    3  A    between atoms: N2_6  and  N3_9 
REMARK    4  A    between atoms: N2_6  and  C9_20 
REMARK    5  A    between atoms: C10_21  and  N2_6 
REMARK    6  A    between atoms: C3_8  and  C4_11 
REMARK       I    between atoms: N3_9  and  C12_23 
REMARK    7  A    between atoms: C4_11  and  C5_14 
REMARK    8  A    between atoms: C4_11  and  C35_46 
REMARK    9  A    between atoms: C13_24  and  N4_12 
REMARK       I    between atoms: N4_12  and  C18_29 
REMARK   10  A    between atoms: C18_29  and  O5_16 
REMARK   11  A    between atoms: O5_16  and  C19_30 
REMARK   12  A    between atoms: C8_19  and  C7_18 
REMARK   13  A    between atoms: C9_20  and  C8_19 
REMARK   14  A    between atoms: C11_22  and  C10_21 
REMARK   15  A    between atoms: C12_23  and  C13_24 
REMARK   16  A    between atoms: C13_24  and  C14_25 
REMARK   17  A    between atoms: C14_25  and  C15_26 
REMARK   18  A    between atoms: C14_25  and  C16_27 
REMARK   19  A    between atoms: C14_25  and  C17_28 
ROOT
ATOM      1  C8  M8Y d   1      13.854  24.105   6.570  0.00  0.00    -0.037 C 
ATOM      2  H14 M8Y d   1      13.163  23.745   7.347  0.00  0.00     0.035 H 
ATOM      3  H15 M8Y d   1      13.784  25.200   6.496  0.00  0.00     0.035 H 
ENDROOT
BRANCH   1   4
ATOM      4  C7  M8Y d   1      13.441  23.488   5.214  0.00  0.00    -0.026 C 
ATOM      5  H12 M8Y d   1      14.263  23.622   4.495  0.00  0.00     0.038 H 
ATOM      6  H13 M8Y d   1      13.248  22.414   5.354  0.00  0.00     0.038 H 
BRANCH   4   7
ATOM      7  C1  M8Y d   1      12.162  24.162   4.650  0.00  0.00     0.142 C 
ATOM      8  C2  M8Y d   1      11.105  24.262   5.594  0.00  0.00     0.253 C 
ATOM      9  N1  M8Y d   1      10.432  25.473   5.702  0.00  0.00    -0.345 N 
ATOM     10  O2  M8Y d   1      10.626  23.279   6.182  0.00  0.00    -0.270 OA
ATOM     11  C3  M8Y d   1       9.208  25.714   6.504  0.00  0.00     0.092 C 
ATOM     12  H1  M8Y d   1      10.806  26.250   5.195  0.00  0.00     0.163 HD
ATOM     13  C34 M8Y d   1       8.275  26.433   5.721  0.00  0.00     0.241 C 
ATOM     14  H4  M8Y d   1       8.775  24.754   6.822  0.00  0.00     0.088 H 
ATOM     15  N5  M8Y d   1       7.064  25.864   5.380  0.00  0.00    -0.356 N 
ATOM     16  O6  M8Y d   1       8.513  27.551   5.264  0.00  0.00    -0.271 OA
ATOM     17  C37 M8Y d   1       6.198  26.456   4.339  0.00  0.00     0.010 C 
ATOM     18  H11 M8Y d   1       6.766  25.032   5.848  0.00  0.00     0.162 HD
ATOM     19  C36 M8Y d   1       5.352  25.465   3.839  0.00  0.00    -0.089 C 
ATOM     20  H50 M8Y d   1       6.820  26.856   3.525  0.00  0.00     0.070 H 
ATOM     21  H51 M8Y d   1       5.598  27.268   4.775  0.00  0.00     0.070 H 
ATOM     22  C33 M8Y d   1       5.515  24.790   2.626  0.00  0.00    -0.101 C 
ATOM     23  H49 M8Y d   1       4.490  25.194   4.447  0.00  0.00     0.078 H 
ATOM     24  C32 M8Y d   1       6.544  25.040   1.711  0.00  0.00    -0.026 C 
ATOM     25  H45 M8Y d   1       4.791  24.016   2.376  0.00  0.00     0.076 H 
ATOM     26  C29 M8Y d   1       7.819  24.612   2.149  0.00  0.00    -0.055 A 
ATOM     27  H43 M8Y d   1       6.307  24.517   0.773  0.00  0.00     0.045 H 
ATOM     28  H44 M8Y d   1       6.587  26.123   1.526  0.00  0.00     0.045 H 
ATOM     29  C28 M8Y d   1       8.938  25.399   1.886  0.00  0.00    -0.076 A 
ATOM     30  C30 M8Y d   1       8.001  23.408   2.825  0.00  0.00    -0.076 A 
ATOM     31  C27 M8Y d   1      10.214  24.996   2.292  0.00  0.00    -0.076 A 
ATOM     32  H40 M8Y d   1       8.818  26.338   1.359  0.00  0.00     0.084 H 
ATOM     33  C26 M8Y d   1      10.396  23.775   2.946  0.00  0.00    -0.055 A 
ATOM     34  H39 M8Y d   1      11.068  25.635   2.098  0.00  0.00     0.084 H 
ATOM     35  C25 M8Y d   1      11.670  23.370   3.400  0.00  0.00    -0.004 C 
ATOM     36  C31 M8Y d   1       9.284  22.966   3.165  0.00  0.00    -0.076 A 
ATOM     37  H37 M8Y d   1      11.624  22.302   3.659  0.00  0.00     0.045 H 
ATOM     38  H38 M8Y d   1      12.394  23.519   2.586  0.00  0.00     0.045 H 
ATOM     39  H42 M8Y d   1       9.414  21.983   3.604  0.00  0.00     0.084 H 
ATOM     40  H41 M8Y d   1       7.139  22.807   3.091  0.00  0.00     0.084 H 
BRANCH   7  41
ATOM     41  O1  M8Y d   1      12.531  25.496   4.241  0.00  0.00    -0.380 OA
ATOM     42  H2  M8Y d   1      13.238  25.448   3.608  0.00  0.00     0.211 HD
ENDBRANCH   7  41
BRANCH  11  43
ATOM     43  C4  M8Y d   1       9.560  26.567   7.733  0.00  0.00    -0.033 C 
ATOM     44  H6  M8Y d   1       9.926  27.549   7.398  0.00  0.00     0.042 H 
BRANCH  43  45
ATOM     45  C5  M8Y d   1       8.289  26.753   8.578  0.00  0.00    -0.071 C 
ATOM     46  H8  M8Y d   1       8.523  27.362   9.463  0.00  0.00     0.028 H 
ATOM     47  H9  M8Y d   1       7.915  25.770   8.898  0.00  0.00     0.028 H 
ATOM     48  H10 M8Y d   1       7.520  27.260   7.977  0.00  0.00     0.028 H 
ENDBRANCH  43  45
BRANCH  43  49
ATOM     49  C35 M8Y d   1      10.645  25.893   8.585  0.00  0.00    -0.071 C 
ATOM     50  H46 M8Y d   1      11.555  25.759   7.981  0.00  0.00     0.028 H 
ATOM     51  H47 M8Y d   1      10.285  24.912   8.928  0.00  0.00     0.028 H 
ATOM     52  H48 M8Y d   1      10.872  26.525   9.456  0.00  0.00     0.028 H 
ENDBRANCH  43  49
ENDBRANCH  11  43
ENDBRANCH   4   7
ENDBRANCH   1   4
BRANCH   1  53
ATOM     53  C9  M8Y d   1      15.300  23.726   6.976  0.00  0.00     0.105 C 
ATOM     54  H16 M8Y d   1      15.979  23.992   6.153  0.00  0.00     0.079 H 
ATOM     55  H17 M8Y d   1      15.575  24.295   7.876  0.00  0.00     0.079 H 
BRANCH  53  56
ATOM     56  N2  M8Y d   1      15.443  22.292   7.262  0.00  0.00     0.015 N 
ATOM     57  H3  M8Y d   1      14.537  21.901   7.468  0.00  0.00     0.309 HD
BRANCH  56  58
ATOM     58  N3  M8Y d   1      15.940  21.695   6.263  0.00  0.00    -0.185 N 
ATOM     59  C12 M8Y d   1      15.271  20.651   5.709  0.00  0.00     0.265 C 
ATOM     60  O3  M8Y d   1      14.154  20.263   6.072  0.00  0.00    -0.269 OA
ATOM     61  H5  M8Y d   1      16.818  21.989   5.885  0.00  0.00     0.197 HD
BRANCH  59  62
ATOM     62  C13 M8Y d   1      16.159  19.791   4.798  0.00  0.00     0.099 C 
ATOM     63  H20 M8Y d   1      16.907  20.459   4.346  0.00  0.00     0.088 H 
BRANCH  62  64
ATOM     64  N4  M8Y d   1      16.864  18.797   5.609  0.00  0.00    -0.323 N 
ATOM     65  C18 M8Y d   1      18.175  18.829   5.792  0.00  0.00     0.360 C 
ATOM     66  O4  M8Y d   1      18.900  19.527   5.067  0.00  0.00    -0.239 OA
ATOM     67  H7  M8Y d   1      16.336  18.066   6.041  0.00  0.00     0.165 HD
BRANCH  65  68
ATOM     68  O5  M8Y d   1      18.696  17.885   6.594  0.00  0.00    -0.309 OA
BRANCH  68  69
ATOM     69  C19 M8Y d   1      20.105  18.029   6.758  0.00  0.00     0.015 C 
ATOM     70  H30 M8Y d   1      20.480  17.235   7.420  0.00  0.00     0.067 H 
ATOM     71  H31 M8Y d   1      20.324  19.011   7.202  0.00  0.00     0.067 H 
ATOM     72  H32 M8Y d   1      20.598  17.952   5.778  0.00  0.00     0.067 H 
ENDBRANCH  68  69
ENDBRANCH  65  68
ENDBRANCH  62  64
BRANCH  62  73
ATOM     73  C14 M8Y d   1      15.420  19.104   3.653  0.00  0.00    -0.022 C 
BRANCH  73  74
ATOM     74  C15 M8Y d   1      16.455  18.544   2.678  0.00  0.00    -0.067 C 
ATOM     75  H21 M8Y d   1      15.940  18.044   1.844  0.00  0.00     0.028 H 
ATOM     76  H22 M8Y d   1      17.096  17.819   3.200  0.00  0.00     0.028 H 
ATOM     77  H23 M8Y d   1      17.073  19.366   2.287  0.00  0.00     0.028 H 
ENDBRANCH  73  74
BRANCH  73  78
ATOM     78  C16 M8Y d   1      14.553  17.944   4.172  0.00  0.00    -0.067 C 
ATOM     79  H24 M8Y d   1      13.803  18.334   4.876  0.00  0.00     0.028 H 
ATOM     80  H25 M8Y d   1      15.191  17.210   4.686  0.00  0.00     0.028 H 
ATOM     81  H26 M8Y d   1      14.045  17.459   3.326  0.00  0.00     0.028 H 
ENDBRANCH  73  78
BRANCH  73  82
ATOM     82  C17 M8Y d   1      14.551  20.117   2.905  0.00  0.00    -0.067 C 
ATOM     83  H27 M8Y d   1      15.181  20.941   2.539  0.00  0.00     0.028 H 
ATOM     84  H28 M8Y d   1      13.785  20.516   3.586  0.00  0.00     0.028 H 
ATOM     85  H29 M8Y d   1      14.063  19.622   2.053  0.00  0.00     0.028 H 
ENDBRANCH  73  82
ENDBRANCH  62  73
ENDBRANCH  59  62
ENDBRANCH  56  58
BRANCH  56  86
ATOM     86  C10 M8Y d   1      16.335  22.112   8.429  0.00  0.00     0.128 C 
ATOM     87  H18 M8Y d   1      16.002  22.785   9.233  0.00  0.00     0.086 H 
ATOM     88  H19 M8Y d   1      17.360  22.376   8.131  0.00  0.00     0.086 H 
BRANCH  86  89
ATOM     89  C11 M8Y d   1      16.335  20.790   8.920  0.00  0.00    -0.030 A 
ATOM     90  C20 M8Y d   1      15.165  20.191   9.377  0.00  0.00    -0.074 A 
ATOM     91  C21 M8Y d   1      15.197  18.885   9.869  0.00  0.00    -0.066 A 
ATOM     92  H33 M8Y d   1      14.229  20.738   9.351  0.00  0.00     0.084 H 
ATOM     93  C22 M8Y d   1      16.403  18.209  10.023  0.00  0.00     0.011 A 
ATOM     94  H34 M8Y d   1      14.269  18.391  10.135  0.00  0.00     0.085 H 
ATOM     95 BR1  M8Y d   1      16.453  16.456  10.818  0.00  0.00    -0.051 Br
ATOM     96  C23 M8Y d   1      17.580  18.834   9.629  0.00  0.00    -0.066 A 
ATOM     97  C24 M8Y d   1      17.532  20.099   9.048  0.00  0.00    -0.074 A 
ATOM     98  H35 M8Y d   1      18.533  18.338   9.774  0.00  0.00     0.085 H 
ATOM     99  H36 M8Y d   1      18.448  20.553   8.688  0.00  0.00     0.084 H 
ENDBRANCH  86  89
ENDBRANCH  56  86
ENDBRANCH  53  56
ENDBRANCH   1  53
TORSDOF 19
