REMARK WARNING: 32 MAX_TORS EXCEEDED!!!
REMARK  64 active torsions:
REMARK  status: ('A' for Active; 'I' for Inactive)
REMARK    1  A    between atoms: N_1  and  CA_2 
REMARK    2  A    between atoms: CA_2  and  C_3 
REMARK    3  A    between atoms: CA_2  and  CB_5 
REMARK       I    between atoms: C_3  and  N_7 
REMARK    4  A    between atoms: CB_5  and  OG_6 
REMARK    5  A    between atoms: N_7  and  CA_8 
REMARK    6  A    between atoms: CA_8  and  C_9 
REMARK    7  A    between atoms: CA_8  and  CB_11 
REMARK       I    between atoms: C_9  and  N_14 
REMARK    8  A    between atoms: CB_11  and  CG1_12 
REMARK    9  A    between atoms: CB_11  and  CG2_13 
REMARK   10  A    between atoms: N_14  and  CA_15 
REMARK   11  A    between atoms: CA_15  and  C_16 
REMARK   12  A    between atoms: CA_15  and  CB_18 
REMARK       I    between atoms: C_16  and  N_22 
REMARK   13  A    between atoms: CB_18  and  CG_19 
REMARK   14  A    between atoms: CG_19  and  CD1_20 
REMARK   15  A    between atoms: CG_19  and  CD2_21 
REMARK   16  A    between atoms: N_22  and  CA_23 
REMARK   17  A    between atoms: CA_23  and  C_24 
REMARK   18  A    between atoms: CA_23  and  CB_26 
REMARK       I    between atoms: C_24  and  N_27 
REMARK   19  A    between atoms: N_27  and  CA_28 
REMARK   20  A    between atoms: CA_28  and  C_29 
REMARK   21  A    between atoms: CA_28  and  CB_31 
REMARK       I    between atoms: C_29  and  N_32 
REMARK   22  A    between atoms: N_32  and  CA_33 
REMARK   23  A    between atoms: CA_33  and  C_34 
REMARK   24  A    between atoms: CA_33  and  CB_36 
REMARK       I    between atoms: C_34  and  N_43 
REMARK   25  A    between atoms: CB_36  and  CG_37 
REMARK   26  A    between atoms: CG_37  and  CD_38 
REMARK   27  A    between atoms: CD_38  and  NE_39 
REMARK       I    between atoms: NE_39  and  CZ_40 
REMARK       I    between atoms: CZ_40  and  NH1_41 
REMARK       I    between atoms: CZ_40  and  NH2_42 
REMARK   28  A    between atoms: N_43  and  CA_44 
REMARK   29  A    between atoms: CA_44  and  C_45 
REMARK   30  A    between atoms: CA_44  and  CB_47 
REMARK       I    between atoms: C_45  and  N_48 
REMARK   31  A    between atoms: N_48  and  CA_49 
REMARK   32  A    between atoms: CA_49  and  C_50 
REMARK   33  A    between atoms: CA_49  and  CB_52 
REMARK       I    between atoms: C_50  and  N_59 
REMARK   34  A    between atoms: CB_52  and  CG_53 
REMARK   35  A    between atoms: CG_53  and  CD_54 
REMARK   36  A    between atoms: CD_54  and  NE_55 
REMARK       I    between atoms: NE_55  and  CZ_56 
REMARK       I    between atoms: CZ_56  and  NH1_57 
REMARK   37  A    between atoms: N_59  and  CA_60 
REMARK   38  A    between atoms: CA_60  and  C_61 
REMARK   39  A    between atoms: CA_60  and  CB_63 
REMARK       I    between atoms: C_61  and  N_67 
REMARK   40  A    between atoms: CB_63  and  CG_64 
REMARK   41  A    between atoms: CG_64  and  SD_65 
REMARK   42  A    between atoms: SD_65  and  CE_66 
REMARK   43  A    between atoms: N_67  and  CA_68 
REMARK   44  A    between atoms: CA_68  and  C_69 
REMARK   45  A    between atoms: CA_68  and  CB_71 
REMARK       I    between atoms: C_69  and  N_81 
REMARK   46  A    between atoms: CB_71  and  CG_72 
REMARK   47  A    between atoms: N_81  and  CA_82 
REMARK   48  A    between atoms: CA_82  and  C_83 
REMARK   49  A    between atoms: CA_82  and  CB_85 
REMARK       I    between atoms: C_83  and  N_89 
REMARK   50  A    between atoms: CB_85  and  CG_86 
REMARK   51  A    between atoms: CG_86  and  SD_87 
REMARK   52  A    between atoms: SD_87  and  CE_88 
REMARK   53  A    between atoms: N_89  and  CA_90 
REMARK   54  A    between atoms: CA_90  and  C_91 
REMARK   55  A    between atoms: CA_90  and  CB_93 
REMARK       I    between atoms: C_91  and  N_103 
REMARK   56  A    between atoms: CB_93  and  CG_94 
REMARK   57  A    between atoms: N_103  and  CA_104 
REMARK   58  A    between atoms: CA_104  and  C_105 
REMARK   59  A    between atoms: CA_104  and  CB_107 
REMARK       I    between atoms: C_105  and  N_113 
REMARK   60  A    between atoms: CB_107  and  CG_108 
REMARK   61  A    between atoms: N_113  and  CA_114 
REMARK   62  A    between atoms: CA_114  and  C_115 
REMARK   63  A    between atoms: CA_114  and  CB_117 
REMARK   64  A    between atoms: CB_117  and  CG_118 
ROOT
ATOM      1  C   ARG d   1      -7.068  22.917 -44.206  0.00  0.00     0.241 C 
ATOM      2  O   ARG d   1      -6.615  23.159 -43.074  0.00  0.00    -0.271 OA
ATOM      3  N   MET d   1      -8.364  22.744 -44.453  0.00  0.00    -0.346 N 
ATOM      4  H   MET d   1      -8.644  22.511 -45.406  0.00  0.00     0.163 HD
ENDROOT
BRANCH   1   5
ATOM      5  CA  ARG d   1      -6.084  22.808 -45.364  0.00  0.00     0.089 C 
ATOM      6  H   ARG d   1      -5.299  22.098 -45.105  0.00  0.00     0.087 H 
BRANCH   5   7
ATOM      7  N   ARG d   1      -6.649  22.251 -46.539  0.00  0.00    -0.346 N 
ATOM      8  C   ALA d   1      -6.627  20.965 -46.865  0.00  0.00     0.240 C 
ATOM      9  O   ALA d   1      -6.120  20.105 -46.115  0.00  0.00    -0.271 OA
ATOM     10  H   ARG d   1      -7.110  22.891 -47.186  0.00  0.00     0.163 HD
BRANCH   8  11
ATOM     11  CA  ALA d   1      -7.242  20.518 -48.155  0.00  0.00     0.086 C 
ATOM     12  H   ALA d   1      -7.818  19.609 -47.982  0.00  0.00     0.086 H 
BRANCH  11  13
ATOM     13  N   ALA d   1      -8.133  21.572 -48.647  0.00  0.00    -0.346 N 
ATOM     14  C   ARG d   1      -9.272  21.879 -47.997  0.00  0.00     0.241 C 
ATOM     15  O   ARG d   1      -9.583  21.421 -46.912  0.00  0.00    -0.271 OA
ATOM     16  H   ALA d   1      -7.887  22.081 -49.496  0.00  0.00     0.163 HD
BRANCH  14  17
ATOM     17  CA  ARG d   1     -10.206  22.885 -48.623  0.00  0.00     0.089 C 
ATOM     18  H   ARG d   1     -10.806  23.330 -47.829  0.00  0.00     0.087 H 
BRANCH  17  19
ATOM     19  N   ARG d   1      -9.437  23.972 -49.305  0.00  0.00    -0.346 N 
ATOM     20  C   ALA d   1      -8.651  24.800 -48.626  0.00  0.00     0.240 C 
ATOM     21  O   ALA d   1      -8.502  24.715 -47.415  0.00  0.00    -0.271 OA
ATOM     22  H   ARG d   1      -9.518  24.080 -50.316  0.00  0.00     0.163 HD
BRANCH  20  23
ATOM     23  CA  ALA d   1      -7.904  25.850 -49.414  0.00  0.00     0.086 C 
ATOM     24  H   ALA d   1      -7.073  26.194 -48.798  0.00  0.00     0.086 H 
BRANCH  23  25
ATOM     25  N   ALA d   1      -7.358  25.265 -50.653  0.00  0.00    -0.346 N 
ATOM     26  C   ALA d   1      -6.345  24.388 -50.625  0.00  0.00     0.240 C 
ATOM     27  O   ALA d   1      -5.839  23.936 -49.580  0.00  0.00    -0.271 OA
ATOM     28  H   ALA d   1      -7.760  25.534 -51.551  0.00  0.00     0.163 HD
BRANCH  26  29
ATOM     29  CA  ALA d   1      -5.878  23.894 -51.984  0.00  0.00     0.086 C 
ATOM     30  H   ALA d   1      -5.354  22.952 -51.823  0.00  0.00     0.086 H 
BRANCH  29  31
ATOM     31  N   ALA d   1      -6.984  23.625 -52.883  0.00  0.00    -0.346 N 
ATOM     32  C   LEU d   1      -7.875  22.677 -52.647  0.00  0.00     0.241 C 
ATOM     33  O   LEU d   1      -7.841  21.964 -51.622  0.00  0.00    -0.271 OA
ATOM     34  H   ALA d   1      -7.078  24.188 -53.728  0.00  0.00     0.163 HD
BRANCH  32  35
ATOM     35  CA  LEU d   1      -8.966  22.555 -53.698  0.00  0.00     0.089 C 
ATOM     36  H   LEU d   1      -9.776  21.949 -53.292  0.00  0.00     0.087 H 
BRANCH  35  37
ATOM     37  N   LEU d   1      -9.432  23.904 -54.073  0.00  0.00    -0.346 N 
ATOM     38  C   VAL d   1     -10.047  24.747 -53.250  0.00  0.00     0.241 C 
ATOM     39  O   VAL d   1     -10.177  24.502 -52.040  0.00  0.00    -0.271 OA
ATOM     40  H   LEU d   1      -9.271  24.211 -55.032  0.00  0.00     0.163 HD
BRANCH  38  41
ATOM     41  CA  VAL d   1     -10.585  26.053 -53.875  0.00  0.00     0.092 C 
ATOM     42  H   VAL d   1     -10.777  26.801 -53.105  0.00  0.00     0.088 H 
BRANCH  41  43
ATOM     43  N   VAL d   1      -9.583  26.600 -54.785  0.00  0.00    -0.346 N 
ATOM     44  C   SER d   1      -8.373  26.950 -54.359  0.00  0.00     0.251 C 
ATOM     45  O   SER d   1      -8.007  26.843 -53.160  0.00  0.00    -0.271 OA
ATOM     46  H   VAL d   1      -9.817  26.716 -55.771  0.00  0.00     0.163 HD
BRANCH  44  47
ATOM     47  CA  SER d   1      -7.420  27.461 -55.477  0.00  0.00     0.195 C 
ATOM     48  H   SER d   1      -8.080  27.398 -56.342  0.00  0.00     0.102 H 
BRANCH  47  49
ATOM     49  N   SER d   1      -7.010  28.928 -55.476  0.00  0.00    -0.064 N 
ATOM     50  H   SER d   1      -7.837  29.511 -55.347  0.00  0.00     0.275 HD
ATOM     51  H   SER d   1      -6.352  29.096 -54.715  0.00  0.00     0.275 HD
ATOM     52  H   SER d   1      -6.567  29.157 -56.366  0.00  0.00     0.275 HD
ENDBRANCH  47  49
BRANCH  47  53
ATOM     53  CB  SER d   1      -6.213  26.565 -55.667  0.00  0.00     0.051 C 
ATOM     54  H   SER d   1      -5.470  26.832 -54.916  0.00  0.00     0.077 H 
ATOM     55  H   SER d   1      -5.841  26.707 -56.681  0.00  0.00     0.077 H 
BRANCH  53  56
ATOM     56  OG  SER d   1      -6.533  25.201 -55.503  0.00  0.00    -0.398 OA
ATOM     57  H   SER d   1      -6.876  25.058 -54.618  0.00  0.00     0.209 HD
ENDBRANCH  53  56
ENDBRANCH  47  53
ENDBRANCH  44  47
ENDBRANCH  41  43
BRANCH  41  58
ATOM     58  CB  VAL d   1     -11.956  25.747 -54.612  0.00  0.00    -0.033 C 
ATOM     59  H   VAL d   1     -11.676  25.110 -55.451  0.00  0.00     0.042 H 
BRANCH  58  60
ATOM     60  CG1 VAL d   1     -12.921  24.991 -53.745  0.00  0.00    -0.071 C 
ATOM     61  H   VAL d   1     -12.477  24.039 -53.454  0.00  0.00     0.028 H 
ATOM     62  H   VAL d   1     -13.143  25.578 -52.854  0.00  0.00     0.028 H 
ATOM     63  H   VAL d   1     -13.841  24.809 -54.300  0.00  0.00     0.028 H 
ENDBRANCH  58  60
BRANCH  58  64
ATOM     64  CG2 VAL d   1     -12.663  27.047 -55.224  0.00  0.00    -0.071 C 
ATOM     65  H   VAL d   1     -12.876  27.755 -54.423  0.00  0.00     0.028 H 
ATOM     66  H   VAL d   1     -11.999  27.511 -55.953  0.00  0.00     0.028 H 
ATOM     67  H   VAL d   1     -13.594  26.757 -55.711  0.00  0.00     0.028 H 
ENDBRANCH  58  64
ENDBRANCH  41  58
ENDBRANCH  38  41
ENDBRANCH  35  37
BRANCH  35  68
ATOM     68  CB  LEU d   1      -8.379  21.925 -54.977  0.00  0.00    -0.035 C 
ATOM     69  H   LEU d   1      -7.313  22.154 -54.969  0.00  0.00     0.037 H 
ATOM     70  H   LEU d   1      -8.950  22.335 -55.810  0.00  0.00     0.037 H 
BRANCH  68  71
ATOM     71  CG  LEU d   1      -8.490  20.413 -55.087  0.00  0.00    -0.059 C 
ATOM     72  H   LEU d   1      -9.262  20.073 -54.397  0.00  0.00     0.038 H 
BRANCH  71  73
ATOM     73  CD1 LEU d   1      -8.868  20.065 -56.520  0.00  0.00    -0.073 C 
ATOM     74  H   LEU d   1      -9.823  20.529 -56.766  0.00  0.00     0.028 H 
ATOM     75  H   LEU d   1      -8.098  20.434 -57.197  0.00  0.00     0.028 H 
ATOM     76  H   LEU d   1      -8.953  18.983 -56.620  0.00  0.00     0.028 H 
ENDBRANCH  71  73
BRANCH  71  77
ATOM     77  CD2 LEU d   1      -7.223  19.689 -54.659  0.00  0.00    -0.073 C 
ATOM     78  H   LEU d   1      -6.394  20.007 -55.291  0.00  0.00     0.028 H 
ATOM     79  H   LEU d   1      -7.002  19.930 -53.619  0.00  0.00     0.028 H 
ATOM     80  H   LEU d   1      -7.368  18.614 -54.761  0.00  0.00     0.028 H 
ENDBRANCH  71  77
ENDBRANCH  68  71
ENDBRANCH  35  68
ENDBRANCH  32  35
ENDBRANCH  29  31
BRANCH  29  81
ATOM     81  CB  ALA d   1      -4.934  24.902 -52.609  0.00  0.00    -0.049 C 
ATOM     82  H   ALA d   1      -4.546  24.502 -53.546  0.00  0.00     0.030 H 
ATOM     83  H   ALA d   1      -5.472  25.830 -52.804  0.00  0.00     0.030 H 
ATOM     84  H   ALA d   1      -4.108  25.096 -51.925  0.00  0.00     0.030 H 
ENDBRANCH  29  81
ENDBRANCH  26  29
ENDBRANCH  23  25
BRANCH  23  85
ATOM     85  CB  ALA d   1      -8.746  27.079 -49.695  0.00  0.00    -0.049 C 
ATOM     86  H   ALA d   1      -8.133  27.833 -50.189  0.00  0.00     0.030 H 
ATOM     87  H   ALA d   1      -9.580  26.806 -50.342  0.00  0.00     0.030 H 
ATOM     88  H   ALA d   1      -9.129  27.478 -48.756  0.00  0.00     0.030 H 
ENDBRANCH  23  85
ENDBRANCH  20  23
ENDBRANCH  17  19
BRANCH  17  89
ATOM     89  CB  ARG d   1     -11.143  22.190 -49.635  0.00  0.00    -0.036 C 
ATOM     90  H   ARG d   1     -10.501  21.639 -50.323  0.00  0.00     0.036 H 
ATOM     91  H   ARG d   1     -11.751  22.976 -50.084  0.00  0.00     0.036 H 
BRANCH  89  92
ATOM     92  CG  ARG d   1     -12.132  21.158 -49.035  0.00  0.00    -0.048 C 
ATOM     93  H   ARG d   1     -12.729  21.647 -48.265  0.00  0.00     0.035 H 
ATOM     94  H   ARG d   1     -11.565  20.330 -48.611  0.00  0.00     0.035 H 
BRANCH  92  95
ATOM     95  CD  ARG d   1     -13.067  20.616 -50.120  0.00  0.00     0.009 C 
ATOM     96  H   ARG d   1     -13.741  19.892 -49.662  0.00  0.00     0.064 H 
ATOM     97  H   ARG d   1     -12.458  20.163 -50.902  0.00  0.00     0.064 H 
BRANCH  95  98
ATOM     98  NE  ARG d   1     -13.873  21.679 -50.721  0.00  0.00    -0.227 N 
ATOM     99  CZ  ARG d   1     -14.155  21.786 -52.010  0.00  0.00     0.665 C 
ATOM    100  NH1 ARG d   1     -13.657  20.940 -52.893  0.00  0.00    -0.235 N 
ATOM    101  NH2 ARG d   1     -14.915  22.782 -52.391  0.00  0.00    -0.235 N 
ATOM    102  H   ARG d   1     -13.042  20.186 -52.587  0.00  0.00     0.174 HD
ATOM    103  H   ARG d   1     -13.887  21.040 -53.882  0.00  0.00     0.174 HD
ATOM    104  H   ARG d   1     -15.270  23.445 -51.702  0.00  0.00     0.174 HD
ATOM    105  H   ARG d   1     -15.152  22.895 -53.377  0.00  0.00     0.174 HD
ATOM    106  H   ARG d   1     -14.247  22.394 -50.097  0.00  0.00     0.177 HD
ENDBRANCH  95  98
ENDBRANCH  92  95
ENDBRANCH  89  92
ENDBRANCH  17  89
ENDBRANCH  14  17
ENDBRANCH  11  13
BRANCH  11 107
ATOM    107  CB  ALA d   1      -6.183  20.180 -49.178  0.00  0.00    -0.049 C 
ATOM    108  H   ALA d   1      -6.662  19.833 -50.094  0.00  0.00     0.030 H 
ATOM    109  H   ALA d   1      -5.589  21.069 -49.391  0.00  0.00     0.030 H 
ATOM    110  H   ALA d   1      -5.537  19.395 -48.785  0.00  0.00     0.030 H 
ENDBRANCH  11 107
ENDBRANCH   8  11
ENDBRANCH   5   7
BRANCH   5 111
ATOM    111  CB  ARG d   1      -5.473  24.196 -45.585  0.00  0.00    -0.036 C 
ATOM    112  H   ARG d   1      -5.201  24.587 -44.605  0.00  0.00     0.036 H 
ATOM    113  H   ARG d   1      -6.215  24.793 -46.114  0.00  0.00     0.036 H 
BRANCH 111 114
ATOM    114  CG  ARG d   1      -4.213  24.194 -46.432  0.00  0.00    -0.048 C 
ATOM    115  H   ARG d   1      -4.354  23.520 -47.277  0.00  0.00     0.035 H 
ATOM    116  H   ARG d   1      -3.374  23.864 -45.819  0.00  0.00     0.035 H 
BRANCH 114 117
ATOM    117  CD  ARG d   1      -3.920  25.615 -46.965  0.00  0.00     0.009 C 
ATOM    118  H   ARG d   1      -4.798  26.000 -47.483  0.00  0.00     0.064 H 
ATOM    119  H   ARG d   1      -3.081  25.579 -47.660  0.00  0.00     0.064 H 
BRANCH 117 120
ATOM    120  NE  ARG d   1      -3.587  26.498 -45.833  0.00  0.00    -0.227 N 
ATOM    121  CZ  ARG d   1      -2.394  26.615 -45.236  0.00  0.00     0.665 C 
ATOM    122  NH1 ARG d   1      -1.337  25.858 -45.569  0.00  0.00    -0.235 N 
ATOM    123  NH2 ARG d   1      -2.275  27.469 -44.209  0.00  0.00    -0.235 N 
ATOM    124  H   ARG d   1      -1.423  25.157 -46.305  0.00  0.00     0.174 HD
ATOM    125  H   ARG d   1      -0.448  25.983 -45.086  0.00  0.00     0.174 HD
ATOM    126  H   ARG d   1      -3.082  28.011 -43.900  0.00  0.00     0.174 HD
ATOM    127  H   ARG d   1      -1.377  27.577 -43.737  0.00  0.00     0.174 HD
ATOM    128  H   ARG d   1      -4.341  27.079 -45.467  0.00  0.00     0.177 HD
ENDBRANCH 117 120
ENDBRANCH 114 117
ENDBRANCH 111 114
ENDBRANCH   5 111
ENDBRANCH   1   5
BRANCH   3 129
ATOM    129  CA  MET d   1      -9.392  22.866 -43.459  0.00  0.00     0.090 C 
ATOM    130  H   MET d   1      -9.252  23.762 -42.854  0.00  0.00     0.087 H 
BRANCH 129 131
ATOM    131  C   MET d   1      -9.336  21.516 -42.668  0.00  0.00     0.241 C 
ATOM    132  O   MET d   1      -9.058  20.422 -43.213  0.00  0.00    -0.271 OA
ATOM    133  N   TRP d   1      -9.594  21.636 -41.369  0.00  0.00    -0.346 N 
ATOM    134  H   TRP d   1      -9.833  22.547 -40.977  0.00  0.00     0.163 HD
BRANCH 133 135
ATOM    135  CA  TRP d   1      -9.532  20.429 -40.483  0.00  0.00     0.093 C 
ATOM    136  H   TRP d   1      -8.570  19.925 -40.576  0.00  0.00     0.088 H 
BRANCH 135 137
ATOM    137  C   TRP d   1     -10.578  19.433 -40.883  0.00  0.00     0.241 C 
ATOM    138  O   TRP d   1     -11.745  19.728 -41.147  0.00  0.00    -0.271 OA
ATOM    139  N   MET d   1     -10.144  18.168 -40.797  0.00  0.00    -0.346 N 
ATOM    140  H   MET d   1      -9.164  17.987 -40.578  0.00  0.00     0.163 HD
BRANCH 139 141
ATOM    141  CA  MET d   1     -11.032  17.071 -41.007  0.00  0.00     0.090 C 
ATOM    142  H   MET d   1     -12.073  17.394 -41.008  0.00  0.00     0.087 H 
BRANCH 141 143
ATOM    143  C   MET d   1     -10.746  16.075 -39.879  0.00  0.00     0.241 C 
ATOM    144  O   MET d   1      -9.606  15.745 -39.617  0.00  0.00    -0.271 OA
ATOM    145  N   TRP d   1     -11.819  15.553 -39.302  0.00  0.00    -0.346 N 
ATOM    146  H   TRP d   1     -12.754  15.870 -39.557  0.00  0.00     0.163 HD
BRANCH 145 147
ATOM    147  CA  TRP d   1     -11.634  14.514 -38.293  0.00  0.00     0.093 C 
ATOM    148  H   TRP d   1     -10.872  14.882 -37.606  0.00  0.00     0.088 H 
BRANCH 147 149
ATOM    149  C   TRP d   1     -11.133  13.245 -38.920  0.00  0.00     0.241 C 
ATOM    150  O   TRP d   1     -11.141  13.043 -40.105  0.00  0.00    -0.271 OA
ATOM    151  N   HIS d   1     -10.693  12.375 -38.036  0.00  0.00    -0.346 N 
ATOM    152  H   HIS d   1     -10.901  12.516 -37.047  0.00  0.00     0.163 HD
BRANCH 151 153
ATOM    153  CA  HIS d   1      -9.885  11.172 -38.460  0.00  0.00     0.094 C 
ATOM    154  H   HIS d   1     -10.184  10.871 -39.464  0.00  0.00     0.088 H 
BRANCH 153 155
ATOM    155  C   HIS d   1     -10.181   9.987 -37.567  0.00  0.00     0.241 C 
ATOM    156  O   HIS d   1      -9.303   9.305 -37.033  0.00  0.00    -0.271 OA
ATOM    157  N   TRP d   1     -11.482   9.700 -37.494  0.00  0.00    -0.344 N 
ATOM    158  H   TRP d   1     -12.128  10.296 -38.012  0.00  0.00     0.163 HD
BRANCH 157 159
ATOM    159  CA  TRP d   1     -12.053   8.582 -36.717  0.00  0.00     0.100 C 
ATOM    160  H   TRP d   1     -11.477   7.677 -36.909  0.00  0.00     0.090 H 
BRANCH 159 161
ATOM    161  C   TRP d   1     -13.503   8.382 -37.159  0.00  0.00     0.197 C 
ATOM    162  O   TRP d   1     -14.111   7.407 -36.635  0.00  0.00    -0.646 OA
ATOM    163  OXT TRP d   1     -14.019   9.226 -37.933  0.00  0.00    -0.646 OA
ENDBRANCH 159 161
BRANCH 159 164
ATOM    164  CB  TRP d   1     -11.965   8.846 -35.168  0.00  0.00    -0.011 C 
ATOM    165  H   TRP d   1     -10.917   8.898 -34.873  0.00  0.00     0.044 H 
ATOM    166  H   TRP d   1     -12.464   8.035 -34.638  0.00  0.00     0.044 H 
BRANCH 164 167
ATOM    167  CG  TRP d   1     -12.643  10.155 -34.824  0.00  0.00    -0.028 A 
ATOM    168  CD1 TRP d   1     -13.980  10.352 -34.579  0.00  0.00    -0.015 A 
ATOM    169  NE1 TRP d   1     -14.208  11.690 -34.252  0.00  0.00    -0.365 N 
ATOM    170  H   TRP d   1     -14.748   9.580 -34.632  0.00  0.00     0.112 H 
ATOM    171  CE2 TRP d   1     -13.042  12.381 -34.275  0.00  0.00     0.042 A 
ATOM    172  H   TRP d   1     -15.120  12.089 -34.028  0.00  0.00     0.165 HD
ATOM    173  CD2 TRP d   1     -12.002  11.420 -34.552  0.00  0.00    -0.002 A 
ATOM    174  CZ2 TRP d   1     -12.774  13.695 -33.892  0.00  0.00    -0.056 A 
ATOM    175  CE3 TRP d   1     -10.662  11.864 -34.642  0.00  0.00    -0.070 A 
ATOM    176  CZ3 TRP d   1     -10.329  13.181 -34.325  0.00  0.00    -0.082 A 
ATOM    177  H   TRP d   1      -9.883  11.171 -34.962  0.00  0.00     0.084 H 
ATOM    178  CH2 TRP d   1     -11.436  14.112 -33.918  0.00  0.00    -0.081 A 
ATOM    179  H   TRP d   1      -9.296  13.525 -34.371  0.00  0.00     0.083 H 
ATOM    180  H   TRP d   1     -11.193  15.136 -33.636  0.00  0.00     0.083 H 
ATOM    181  H   TRP d   1     -13.573  14.370 -33.585  0.00  0.00     0.086 H 
ENDBRANCH 164 167
ENDBRANCH 159 164
ENDBRANCH 157 159
ENDBRANCH 153 155
BRANCH 153 182
ATOM    182  CB  HIS d   1      -8.388  11.525 -38.557  0.00  0.00     0.002 C 
ATOM    183  H   HIS d   1      -8.259  12.086 -39.482  0.00  0.00     0.046 H 
ATOM    184  H   HIS d   1      -7.841  10.584 -38.503  0.00  0.00     0.046 H 
BRANCH 182 185
ATOM    185  CG  HIS d   1      -7.858  12.396 -37.446  0.00  0.00     0.030 A 
ATOM    186  ND1 HIS d   1      -7.235  11.899 -36.355  0.00  0.00    -0.353 N 
ATOM    187  CE1 HIS d   1      -6.815  12.953 -35.601  0.00  0.00     0.063 A 
ATOM    188  H   HIS d   1      -7.103  10.912 -36.135  0.00  0.00     0.166 HD
ATOM    189  NE2 HIS d   1      -7.231  14.075 -36.182  0.00  0.00    -0.254 NA
ATOM    190  H   HIS d   1      -6.237  12.888 -34.679  0.00  0.00     0.143 H 
ATOM    191  CD2 HIS d   1      -7.900  13.766 -37.335  0.00  0.00     0.025 A 
ATOM    192  H   HIS d   1      -8.371  14.465 -38.026  0.00  0.00     0.117 H 
ENDBRANCH 182 185
ENDBRANCH 153 182
ENDBRANCH 151 153
ENDBRANCH 147 149
BRANCH 147 193
ATOM    193  CB  TRP d   1     -12.888  14.270 -37.420  0.00  0.00    -0.012 C 
ATOM    194  H   TRP d   1     -13.214  15.237 -37.038  0.00  0.00     0.044 H 
ATOM    195  H   TRP d   1     -12.610  13.564 -36.637  0.00  0.00     0.044 H 
BRANCH 193 196
ATOM    196  CG  TRP d   1     -14.062  13.661 -38.193  0.00  0.00    -0.028 A 
ATOM    197  CD1 TRP d   1     -14.432  12.378 -38.131  0.00  0.00    -0.015 A 
ATOM    198  NE1 TRP d   1     -15.556  12.199 -38.948  0.00  0.00    -0.365 N 
ATOM    199  H   TRP d   1     -13.942  11.602 -37.544  0.00  0.00     0.112 H 
ATOM    200  CE2 TRP d   1     -15.884  13.385 -39.556  0.00  0.00     0.042 A 
ATOM    201  H   TRP d   1     -16.056  11.319 -39.072  0.00  0.00     0.165 HD
ATOM    202  CD2 TRP d   1     -14.985  14.354 -39.086  0.00  0.00    -0.002 A 
ATOM    203  CZ2 TRP d   1     -16.947  13.697 -40.466  0.00  0.00    -0.056 A 
ATOM    204  CE3 TRP d   1     -15.106  15.708 -39.517  0.00  0.00    -0.070 A 
ATOM    205  CZ3 TRP d   1     -16.123  16.037 -40.422  0.00  0.00    -0.082 A 
ATOM    206  H   TRP d   1     -14.421  16.472 -39.149  0.00  0.00     0.084 H 
ATOM    207  CH2 TRP d   1     -17.036  15.015 -40.863  0.00  0.00    -0.081 A 
ATOM    208  H   TRP d   1     -16.222  17.058 -40.789  0.00  0.00     0.083 H 
ATOM    209  H   TRP d   1     -17.838  15.297 -41.545  0.00  0.00     0.083 H 
ATOM    210  H   TRP d   1     -17.643  12.938 -40.823  0.00  0.00     0.086 H 
ENDBRANCH 193 196
ENDBRANCH 147 193
ENDBRANCH 145 147
ENDBRANCH 141 143
BRANCH 141 211
ATOM    211  CB  MET d   1     -10.730  16.400 -42.386  0.00  0.00    -0.030 C 
ATOM    212  H   MET d   1      -9.736  15.957 -42.331  0.00  0.00     0.037 H 
ATOM    213  H   MET d   1     -10.808  17.169 -43.155  0.00  0.00     0.037 H 
BRANCH 211 214
ATOM    214  CG  MET d   1     -11.762  15.240 -42.749  0.00  0.00    -0.021 C 
ATOM    215  H   MET d   1     -12.756  15.682 -42.812  0.00  0.00     0.049 H 
ATOM    216  H   MET d   1     -11.694  14.475 -41.975  0.00  0.00     0.049 H 
BRANCH 214 217
ATOM    217  SD  MET d   1     -11.395  14.460 -44.339  0.00  0.00    -0.173 SA
BRANCH 217 218
ATOM    218  CE  MET d   1     -11.801  15.872 -45.469  0.00  0.00    -0.035 C 
ATOM    219  H   MET d   1     -12.846  16.152 -45.338  0.00  0.00     0.041 H 
ATOM    220  H   MET d   1     -11.163  16.723 -45.229  0.00  0.00     0.041 H 
ATOM    221  H   MET d   1     -11.632  15.569 -46.502  0.00  0.00     0.041 H 
ENDBRANCH 217 218
ENDBRANCH 214 217
ENDBRANCH 211 214
ENDBRANCH 141 211
ENDBRANCH 139 141
ENDBRANCH 135 137
BRANCH 135 222
ATOM    222  CB  TRP d   1      -9.719  20.899 -39.064  0.00  0.00    -0.012 C 
ATOM    223  H   TRP d   1     -10.706  21.352 -38.976  0.00  0.00     0.044 H 
ATOM    224  H   TRP d   1      -8.932  21.616 -38.829  0.00  0.00     0.044 H 
BRANCH 222 225
ATOM    225  CG  TRP d   1      -9.627  19.726 -38.070  0.00  0.00    -0.028 A 
ATOM    226  CD1 TRP d   1      -8.517  19.159 -37.624  0.00  0.00    -0.015 A 
ATOM    227  NE1 TRP d   1      -8.817  18.135 -36.764  0.00  0.00    -0.365 N 
ATOM    228  H   TRP d   1      -7.508  19.463 -37.901  0.00  0.00     0.112 H 
ATOM    229  CE2 TRP d   1     -10.183  18.072 -36.595  0.00  0.00     0.042 A 
ATOM    230  H   TRP d   1      -8.137  17.518 -36.320  0.00  0.00     0.165 HD
ATOM    231  CD2 TRP d   1     -10.752  19.069 -37.440  0.00  0.00    -0.002 A 
ATOM    232  CZ2 TRP d   1     -10.961  17.230 -35.818  0.00  0.00    -0.056 A 
ATOM    233  CE3 TRP d   1     -12.128  19.235 -37.466  0.00  0.00    -0.070 A 
ATOM    234  CZ3 TRP d   1     -12.915  18.344 -36.668  0.00  0.00    -0.082 A 
ATOM    235  H   TRP d   1     -12.593  20.014 -38.071  0.00  0.00     0.084 H 
ATOM    236  CH2 TRP d   1     -12.322  17.406 -35.875  0.00  0.00    -0.081 A 
ATOM    237  H   TRP d   1     -14.002  18.416 -36.695  0.00  0.00     0.083 H 
ATOM    238  H   TRP d   1     -12.956  16.768 -35.259  0.00  0.00     0.083 H 
ATOM    239  H   TRP d   1     -10.513  16.461 -35.189  0.00  0.00     0.086 H 
ENDBRANCH 222 225
ENDBRANCH 135 222
ENDBRANCH 133 135
ENDBRANCH 129 131
BRANCH 129 240
ATOM    240  CB  MET d   1     -10.737  22.892 -44.120  0.00  0.00    -0.030 C 
ATOM    241  H   MET d   1     -11.503  22.756 -43.357  0.00  0.00     0.037 H 
ATOM    242  H   MET d   1     -10.776  22.095 -44.862  0.00  0.00     0.037 H 
BRANCH 240 243
ATOM    243  CG  MET d   1     -10.987  24.271 -44.846  0.00  0.00    -0.021 C 
ATOM    244  H   MET d   1     -10.205  24.432 -45.589  0.00  0.00     0.049 H 
ATOM    245  H   MET d   1     -10.971  25.073 -44.108  0.00  0.00     0.049 H 
BRANCH 243 246
ATOM    246  SD  MET d   1     -12.608  24.254 -45.677  0.00  0.00    -0.173 SA
BRANCH 246 247
ATOM    247  CE  MET d   1     -12.533  25.957 -46.317  0.00  0.00    -0.035 C 
ATOM    248  H   MET d   1     -12.441  26.653 -45.483  0.00  0.00     0.041 H 
ATOM    249  H   MET d   1     -11.670  26.059 -46.975  0.00  0.00     0.041 H 
ATOM    250  H   MET d   1     -13.444  26.175 -46.875  0.00  0.00     0.041 H 
ENDBRANCH 246 247
ENDBRANCH 243 246
ENDBRANCH 240 243
ENDBRANCH 129 240
ENDBRANCH   3 129
TORSDOF 64
