REMARK  11 active torsions:
REMARK  status: ('A' for Active; 'I' for Inactive)
REMARK    1  A    between atoms: O25_1  and  C19_2 
REMARK    2  A    between atoms: C20_4  and  O23_5 
REMARK    3  A    between atoms: C17_8  and  C15_9 
REMARK    4  A    between atoms: C15_9  and  C14_10 
REMARK    5  A    between atoms: C14_10  and  C16_11 
REMARK    6  A    between atoms: C14_10  and  C12_12 
REMARK    7  A    between atoms: C12_12  and  C13_13 
REMARK    8  A    between atoms: C12_12  and  C11_14 
REMARK    9  A    between atoms: C11_14  and  C3_15 
REMARK   10  A    between atoms: C5_18  and  O9_19 
REMARK   11  A    between atoms: C6_20  and  O7_22 
ROOT
ATOM      1  C14 30Z d   1      17.048  16.130  29.293  0.00  0.00    -0.051 C 
ATOM      2  H   30Z d   1      16.448  15.225  29.199  0.00  0.00     0.040 H 
ENDROOT
BRANCH   1   3
ATOM      3  C15 30Z d   1      16.785  16.697  30.680  0.00  0.00    -0.038 C 
ATOM      4  H   30Z d   1      16.464  17.735  30.600  0.00  0.00     0.040 H 
ATOM      5  H   30Z d   1      15.999  16.123  31.171  0.00  0.00     0.040 H 
BRANCH   3   6
ATOM      6  C17 30Z d   1      18.058  16.616  31.488  0.00  0.00    -0.055 A 
ATOM      7  C18 30Z d   1      18.921  15.538  31.319  0.00  0.00    -0.042 A 
ATOM      8  C19 30Z d   1      20.093  15.468  32.066  0.00  0.00     0.099 A 
ATOM      9  H   30Z d   1      18.680  14.751  30.604  0.00  0.00     0.088 H 
ATOM     10  C20 30Z d   1      20.396  16.556  33.031  0.00  0.00     0.098 A 
ATOM     11  C21 30Z d   1      19.505  17.610  33.165  0.00  0.00    -0.048 A 
ATOM     12  C22 30Z d   1      18.347  17.634  32.396  0.00  0.00    -0.074 A 
ATOM     13  H   30Z d   1      19.711  18.416  33.870  0.00  0.00     0.087 H 
ATOM     14  H   30Z d   1      17.651  18.466  32.505  0.00  0.00     0.084 H 
BRANCH   8  15
ATOM     15  O25 30Z d   1      20.953  14.415  31.913  0.00  0.00    -0.358 OA
ATOM     16  H   30Z d   1      21.703  14.528  32.501  0.00  0.00     0.217 HD
ENDBRANCH   8  15
BRANCH  10  17
ATOM     17  O23 30Z d   1      21.533  16.534  33.778  0.00  0.00    -0.358 OA
ATOM     18  H   30Z d   1      21.560  17.311  34.340  0.00  0.00     0.217 HD
ENDBRANCH  10  17
ENDBRANCH   3   6
ENDBRANCH   1   3
BRANCH   1  19
ATOM     19  C16 30Z d   1      18.524  15.780  29.143  0.00  0.00    -0.072 C 
ATOM     20  H   30Z d   1      19.125  16.678  29.283  0.00  0.00     0.028 H 
ATOM     21  H   30Z d   1      18.798  15.037  29.892  0.00  0.00     0.028 H 
ATOM     22  H   30Z d   1      18.701  15.375  28.146  0.00  0.00     0.028 H 
ENDBRANCH   1  19
BRANCH   1  23
ATOM     23  C12 30Z d   1      16.595  17.060  28.170  0.00  0.00    -0.051 C 
ATOM     24  H   30Z d   1      17.129  18.006  28.263  0.00  0.00     0.040 H 
BRANCH  23  25
ATOM     25  C13 30Z d   1      16.898  16.357  26.861  0.00  0.00    -0.072 C 
ATOM     26  H   30Z d   1      17.969  16.164  26.793  0.00  0.00     0.028 H 
ATOM     27  H   30Z d   1      16.354  15.413  26.823  0.00  0.00     0.028 H 
ATOM     28  H   30Z d   1      16.588  16.990  26.030  0.00  0.00     0.028 H 
ENDBRANCH  23  25
BRANCH  23  29
ATOM     29  C11 30Z d   1      15.111  17.412  28.239  0.00  0.00    -0.038 C 
ATOM     30  H   30Z d   1      14.722  16.973  29.157  0.00  0.00     0.040 H 
ATOM     31  H   30Z d   1      14.651  17.034  27.326  0.00  0.00     0.040 H 
BRANCH  29  32
ATOM     32  C3  30Z d   1      14.818  18.902  28.300  0.00  0.00    -0.055 A 
ATOM     33  C2  30Z d   1      15.710  19.785  28.909  0.00  0.00    -0.074 A 
ATOM     34  C1  30Z d   1      15.444  21.153  28.976  0.00  0.00    -0.048 A 
ATOM     35  H   30Z d   1      16.633  19.398  29.341  0.00  0.00     0.084 H 
ATOM     36  C6  30Z d   1      14.272  21.677  28.440  0.00  0.00     0.098 A 
ATOM     37  H   30Z d   1      16.163  21.819  29.454  0.00  0.00     0.087 H 
ATOM     38  C5  30Z d   1      13.315  20.743  27.796  0.00  0.00     0.099 A 
ATOM     39  C4  30Z d   1      13.629  19.387  27.753  0.00  0.00    -0.042 A 
ATOM     40  H   30Z d   1      12.933  18.692  27.284  0.00  0.00     0.088 H 
BRANCH  36  41
ATOM     41  O7  30Z d   1      14.007  23.015  28.510  0.00  0.00    -0.358 OA
ATOM     42  H   30Z d   1      13.162  23.195  28.092  0.00  0.00     0.217 HD
ENDBRANCH  36  41
BRANCH  38  43
ATOM     43  O9  30Z d   1      12.153  21.211  27.259  0.00  0.00    -0.358 OA
ATOM     44  H   30Z d   1      12.106  22.162  27.380  0.00  0.00     0.217 HD
ENDBRANCH  38  43
ENDBRANCH  29  32
ENDBRANCH  23  29
ENDBRANCH   1  23
TORSDOF 11
