REMARK  8 active torsions:
REMARK  status: ('A' for Active; 'I' for Inactive)
REMARK    1  A    between atoms: CAA_1  and  CAW_2 
REMARK    2  A    between atoms: CAZ_6  and  CAM_7 
REMARK    3  A    between atoms: CAM_7  and  CAU_8 
REMARK       I    between atoms: CAU_8  and  N_10 
REMARK    4  A    between atoms: CG_12  and  OD1_13 
REMARK    5  A    between atoms: CA_15  and  C_16 
REMARK       I    between atoms: C_16  and  NAR_18 
REMARK    6  A    between atoms: NAR_18  and  CAL_19 
REMARK    7  A    between atoms: CAL_19  and  CAX_20 
REMARK    8  A    between atoms: CAY_25  and  CBA_26 
ROOT
ATOM      1  CAU L8B d   1     -53.527 -12.832  -0.935  0.00  0.00     0.226 C 
ATOM      2  OAB L8B d   1     -53.323 -11.666  -0.697  0.00  0.00    -0.273 OA
ATOM      3  N   L8B d   1     -54.001 -13.667   0.001  0.00  0.00    -0.336 N 
ATOM      4  CD2 L8B d   1     -54.324 -15.046  -0.213  0.00  0.00     0.022 C 
ATOM      5  CG  L8B d   1     -55.103 -15.413   0.995  0.00  0.00     0.053 C 
ATOM      6  CB  L8B d   1     -54.315 -14.725   2.003  0.00  0.00    -0.012 C 
ATOM      7  CA  L8B d   1     -54.304 -13.380   1.385  0.00  0.00     0.094 C 
ATOM      8  H   L8B d   1     -53.437 -15.667  -0.342  0.00  0.00     0.068 H 
ATOM      9  H   L8B d   1     -54.884 -15.205  -1.135  0.00  0.00     0.068 H 
ATOM     10  H   L8B d   1     -55.268 -16.482   1.133  0.00  0.00     0.085 H 
ATOM     11  H   L8B d   1     -53.333 -15.155   2.201  0.00  0.00     0.040 H 
ATOM     12  H   L8B d   1     -54.714 -14.769   3.017  0.00  0.00     0.040 H 
ATOM     13  H   L8B d   1     -55.219 -12.801   1.510  0.00  0.00     0.088 H 
ENDROOT
BRANCH   7  14
ATOM     14  C   L8B d   1     -53.166 -12.651   1.988  0.00  0.00     0.241 C 
ATOM     15  O   L8B d   1     -52.077 -12.651   1.454  0.00  0.00    -0.271 OA
ATOM     16  NAR L8B d   1     -53.450 -12.018   3.093  0.00  0.00    -0.355 N 
ATOM     17  H   L8B d   1     -54.389 -12.089   3.486  0.00  0.00     0.162 HD
BRANCH  16  18
ATOM     18  CAL L8B d   1     -52.458 -11.221   3.765  0.00  0.00     0.019 C 
ATOM     19  H   L8B d   1     -52.826 -10.223   4.005  0.00  0.00     0.071 H 
ATOM     20  H   L8B d   1     -51.583 -11.041   3.140  0.00  0.00     0.071 H 
BRANCH  18  21
ATOM     21  CAX L8B d   1     -52.131 -11.989   4.962  0.00  0.00    -0.040 A 
ATOM     22  CAF L8B d   1     -53.071 -12.801   5.478  0.00  0.00    -0.074 A 
ATOM     23  CAH L8B d   1     -52.788 -13.536   6.580  0.00  0.00    -0.070 A 
ATOM     24  H   L8B d   1     -54.054 -12.867   5.012  0.00  0.00     0.084 H 
ATOM     25  CAY L8B d   1     -51.573 -13.453   7.164  0.00  0.00    -0.001 A 
ATOM     26  H   L8B d   1     -53.546 -14.199   6.998  0.00  0.00     0.085 H 
ATOM     27  CAG L8B d   1     -50.616 -12.645   6.637  0.00  0.00    -0.070 A 
ATOM     28  CAE L8B d   1     -50.906 -11.904   5.527  0.00  0.00    -0.074 A 
ATOM     29  H   L8B d   1     -49.628 -12.589   7.095  0.00  0.00     0.085 H 
ATOM     30  H   L8B d   1     -50.151 -11.245   5.098  0.00  0.00     0.084 H 
BRANCH  25  31
ATOM     31  CBA L8B d   1     -51.325 -14.213   8.274  0.00  0.00     0.104 A 
ATOM     32  CAJ L8B d   1     -50.532 -13.999   9.266  0.00  0.00     0.037 A 
ATOM     33  NAP L8B d   1     -50.642 -15.034  10.039  0.00  0.00    -0.246 NA
ATOM     34  H   L8B d   1     -49.898 -13.126   9.423  0.00  0.00     0.119 H 
ATOM     35  CAI L8B d   1     -51.493 -15.885   9.556  0.00  0.00     0.103 A 
ATOM     36  OAS L8B d   1     -51.914 -15.367   8.442  0.00  0.00    -0.302 OA
ATOM     37  H   L8B d   1     -51.793 -16.837   9.994  0.00  0.00     0.155 H 
ENDBRANCH  25  31
ENDBRANCH  18  21
ENDBRANCH  16  18
ENDBRANCH   7  14
BRANCH   1  38
ATOM     38  CAM L8B d   1     -53.331 -13.262  -2.362  0.00  0.00     0.056 C 
ATOM     39  H   L8B d   1     -52.445 -12.799  -2.796  0.00  0.00     0.057 H 
ATOM     40  H   L8B d   1     -53.172 -14.338  -2.432  0.00  0.00     0.057 H 
BRANCH  38  41
ATOM     41  CAZ L8B d   1     -54.577 -12.847  -3.095  0.00  0.00     0.089 A 
ATOM     42  CAK L8B d   1     -54.789 -11.830  -3.870  0.00  0.00    -0.026 A 
ATOM     43  CAW L8B d   1     -56.030 -11.902  -4.246  0.00  0.00     0.060 A 
ATOM     44  H   L8B d   1     -54.067 -11.064  -4.151  0.00  0.00     0.090 H 
ATOM     45  NAQ L8B d   1     -56.613 -12.929  -3.745  0.00  0.00    -0.133 NA
ATOM     46  OAT L8B d   1     -55.700 -13.518  -2.996  0.00  0.00    -0.217 OA
BRANCH  43  47
ATOM     47  CAA L8B d   1     -56.707 -10.935  -5.158  0.00  0.00    -0.033 C 
ATOM     48  H   L8B d   1     -57.053 -11.459  -6.049  0.00  0.00     0.035 H 
ATOM     49  H   L8B d   1     -57.558 -10.488  -4.644  0.00  0.00     0.035 H 
ATOM     50  H   L8B d   1     -56.003 -10.154  -5.445  0.00  0.00     0.035 H 
ENDBRANCH  43  47
ENDBRANCH  38  41
ENDBRANCH   1  38
BRANCH   5  51
ATOM     51  OD1 L8B d   1     -56.308 -14.780   0.951  0.00  0.00    -0.394 OA
ATOM     52  H   L8B d   1     -56.819 -15.012   1.730  0.00  0.00     0.210 HD
ENDBRANCH   5  51
TORSDOF 8
