REMARK  1 active torsions:
REMARK  status: ('A' for Active; 'I' for Inactive)
REMARK    1  A    between atoms: C11_8  and  C12_9 
ROOT
ATOM      1  C1  ZRK d   1     105.182  21.927 -10.267  0.00  0.00    -0.017 A 
ATOM      2  C2  ZRK d   1     105.261  23.040 -11.010  0.00  0.00    -0.034 A 
ATOM      3  C3  ZRK d   1     104.091  23.806 -11.036  0.00  0.00     0.093 A 
ATOM      4  C4  ZRK d   1     102.937  23.474 -10.370  0.00  0.00     0.068 A 
ATOM      5  C5  ZRK d   1     102.851  22.284  -9.580  0.00  0.00     0.258 A 
ATOM      6  O8  ZRK d   1     101.824  21.976  -8.987  0.00  0.00    -0.267 OA
ATOM      7  O10 ZRK d   1     103.894  24.983 -11.702  0.00  0.00    -0.309 OA
ATOM      8  C11 ZRK d   1     102.615  25.385 -11.450  0.00  0.00     0.087 A 
ATOM      9  C9  ZRK d   1     101.976  24.480 -10.627  0.00  0.00    -0.031 A 
ATOM     10  N3  ZRK d   1     104.040  21.564  -9.584  0.00  0.00    -0.333 N 
ATOM     11  H1  ZRK d   1     106.057  21.282 -10.200  0.00  0.00     0.111 H 
ATOM     12  H2  ZRK d   1     106.163  23.325 -11.550  0.00  0.00     0.089 H 
ATOM     13  H5  ZRK d   1     100.953  24.529 -10.256  0.00  0.00     0.089 H 
ATOM     14  H7  ZRK d   1     104.070  20.718  -9.051  0.00  0.00     0.168 HD
ENDROOT
BRANCH   8  15
ATOM     15  C12 ZRK d   1     102.202  26.624 -12.050  0.00  0.00     0.001 A 
ATOM     16  C17 ZRK d   1     103.081  27.379 -12.798  0.00  0.00    -0.053 A 
ATOM     17  C16 ZRK d   1     102.632  28.564 -13.341  0.00  0.00     0.003 A 
ATOM     18  H3  ZRK d   1     104.101  27.048 -12.955  0.00  0.00     0.087 H 
ATOM     19  N15 ZRK d   1     101.389  29.040 -13.195  0.00  0.00    -0.273 NA
ATOM     20  H4  ZRK d   1     103.332  29.150 -13.925  0.00  0.00     0.114 H 
ATOM     21  C14 ZRK d   1     100.563  28.283 -12.464  0.00  0.00     0.003 A 
ATOM     22  C13 ZRK d   1     100.915  27.086 -11.877  0.00  0.00    -0.053 A 
ATOM     23  H6  ZRK d   1      99.547  28.635 -12.323  0.00  0.00     0.114 H 
ATOM     24  H8  ZRK d   1     100.197  26.522 -11.293  0.00  0.00     0.087 H 
ENDBRANCH   8  15
TORSDOF 1
