REMARK  1 active torsions:
REMARK  status: ('A' for Active; 'I' for Inactive)
REMARK    1  A    between atoms: C9_7  and  C12_8 
ROOT
ATOM      1  C3  ZRL d   1     106.244  21.315 -10.196  0.00  0.00    -0.002 A 
ATOM      2  C2  ZRL d   1     106.504  22.339 -11.010  0.00  0.00     0.044 A 
ATOM      3  C11 ZRL d   1     105.483  23.277 -11.114  0.00  0.00     0.040 A 
ATOM      4  C7  ZRL d   1     104.278  23.215 -10.462  0.00  0.00     0.052 A 
ATOM      5  C5  ZRL d   1     104.003  22.120  -9.591  0.00  0.00     0.257 A 
ATOM      6  O6  ZRL d   1     102.937  22.037  -9.002  0.00  0.00    -0.267 OA
ATOM      7  C9  ZRL d   1     104.021  25.211 -11.641  0.00  0.00     0.017 A 
ATOM      8  C8  ZRL d   1     103.445  24.319 -10.762  0.00  0.00    -0.049 A 
ATOM      9  N4  ZRL d   1     105.047  21.210  -9.517  0.00  0.00    -0.332 N 
ATOM     10  S10 ZRL d   1     105.587  24.672 -12.106  0.00  0.00    -0.087 SA
ATOM     11 BR1  ZRL d   1     108.075  22.592 -11.987  0.00  0.00    -0.048 Br
ATOM     12  H1  ZRL d   1     106.997  20.540 -10.063  0.00  0.00     0.113 H 
ATOM     13  H4  ZRL d   1     102.449  24.451 -10.341  0.00  0.00     0.087 H 
ATOM     14  H6  ZRL d   1     104.922  20.414  -8.924  0.00  0.00     0.168 HD
ENDROOT
BRANCH   7  15
ATOM     15  C12 ZRL d   1     103.489  26.453 -12.135  0.00  0.00    -0.016 A 
ATOM     16  C13 ZRL d   1     102.189  26.811 -11.840  0.00  0.00    -0.055 A 
ATOM     17  C14 ZRL d   1     101.716  28.017 -12.319  0.00  0.00     0.003 A 
ATOM     18  H2  ZRL d   1     101.555  26.162 -11.247  0.00  0.00     0.087 H 
ATOM     19  N15 ZRL d   1     102.433  28.876 -13.055  0.00  0.00    -0.273 NA
ATOM     20  H3  ZRL d   1     100.693  28.287 -12.083  0.00  0.00     0.114 H 
ATOM     21  C16 ZRL d   1     103.693  28.497 -13.316  0.00  0.00     0.003 A 
ATOM     22  C17 ZRL d   1     104.263  27.318 -12.885  0.00  0.00    -0.055 A 
ATOM     23  H5  ZRL d   1     104.307  29.166 -13.908  0.00  0.00     0.114 H 
ATOM     24  H7  ZRL d   1     105.291  27.076 -13.128  0.00  0.00     0.087 H 
ENDBRANCH   7  15
TORSDOF 1
