REMARK  2 active torsions:
REMARK  status: ('A' for Active; 'I' for Inactive)
REMARK    1  A    between atoms: C8_17  and  C5_11 
REMARK    2  A    between atoms: C2_13  and  O1_22 
ROOT
ATOM      1  C19 ZRM d   1     104.054  27.097 -12.988  0.00  0.00    -0.055 A 
ATOM      2  C23 ZRM d   1     101.992  26.569 -11.928  0.00  0.00    -0.055 A 
ATOM      3  C14 ZRM d   1     103.251  24.113 -10.843  0.00  0.00    -0.049 A 
ATOM      4  C20 ZRM d   1     103.469  28.274 -13.405  0.00  0.00     0.003 A 
ATOM      5  C22 ZRM d   1     101.501  27.769 -12.405  0.00  0.00     0.003 A 
ATOM      6  C18 ZRM d   1     103.293  26.227 -12.231  0.00  0.00    -0.016 A 
ATOM      7  C13 ZRM d   1     104.105  23.040 -10.493  0.00  0.00     0.051 A 
ATOM      8  C15 ZRM d   1     103.843  25.003 -11.715  0.00  0.00     0.017 A 
ATOM      9  C17 ZRM d   1     105.340  23.123 -11.093  0.00  0.00     0.034 A 
ATOM     10  C9  ZRM d   1     106.075  21.216 -10.086  0.00  0.00    -0.008 A 
ATOM     11  C8  ZRM d   1     106.383  22.216 -10.919  0.00  0.00     0.008 A 
ATOM     12  C11 ZRM d   1     103.799  21.962  -9.603  0.00  0.00     0.257 A 
ATOM     13  N21 ZRM d   1     102.209  28.642 -13.132  0.00  0.00    -0.273 NA
ATOM     14  N10 ZRM d   1     104.852  21.081  -9.468  0.00  0.00    -0.332 N 
ATOM     15  O12 ZRM d   1     102.709  21.867  -9.052  0.00  0.00    -0.267 OA
ATOM     16  S16 ZRM d   1     105.448  24.505 -12.108  0.00  0.00    -0.088 SA
ATOM     17  H5  ZRM d   1     105.080  26.861 -13.246  0.00  0.00     0.087 H 
ATOM     18  H6  ZRM d   1     101.370  25.913 -11.330  0.00  0.00     0.087 H 
ATOM     19  H7  ZRM d   1     102.236  24.224 -10.465  0.00  0.00     0.087 H 
ATOM     20  H8  ZRM d   1     104.073  28.952 -13.998  0.00  0.00     0.114 H 
ATOM     21  H9  ZRM d   1     100.472  28.021 -12.175  0.00  0.00     0.114 H 
ATOM     22  H10 ZRM d   1     106.837  20.464  -9.885  0.00  0.00     0.112 H 
ATOM     23  H11 ZRM d   1     104.717  20.285  -8.877  0.00  0.00     0.168 HD
ENDROOT
BRANCH  11  24
ATOM     24  C5  ZRM d   1     107.731  22.253 -11.486  0.00  0.00    -0.023 A 
ATOM     25  C4  ZRM d   1     108.414  21.074 -11.720  0.00  0.00    -0.070 A 
ATOM     26  C3  ZRM d   1     109.695  21.079 -12.232  0.00  0.00    -0.050 A 
ATOM     27  H1  ZRM d   1     107.934  20.128 -11.497  0.00  0.00     0.085 H 
ATOM     28  C2  ZRM d   1     110.294  22.284 -12.515  0.00  0.00     0.065 A 
ATOM     29  H3  ZRM d   1     110.221  20.148 -12.408  0.00  0.00     0.087 H 
ATOM     30  C7  ZRM d   1     109.631  23.475 -12.295  0.00  0.00    -0.050 A 
ATOM     31  C6  ZRM d   1     108.353  23.453 -11.775  0.00  0.00    -0.070 A 
ATOM     32  H4  ZRM d   1     110.110  24.419 -12.529  0.00  0.00     0.087 H 
ATOM     33  H2  ZRM d   1     107.832  24.386 -11.591  0.00  0.00     0.085 H 
BRANCH  28  34
ATOM     34  O1  ZRM d   1     111.572  22.283 -13.031  0.00  0.00    -0.361 OA
ATOM     35  H12 ZRM d   1     111.876  21.387 -13.118  0.00  0.00     0.217 HD
ENDBRANCH  28  34
ENDBRANCH  11  24
TORSDOF 2
