REMARK  2 active torsions:
REMARK  status: ('A' for Active; 'I' for Inactive)
REMARK    1  A    between atoms: N8_8  and  C12_12 
REMARK    2  A    between atoms: C12_12  and  C13_13 
ROOT
ATOM      1  C1  NON d   1      -3.491  19.617  17.248  0.00  0.00     0.170 A 
ATOM      2  C2  NON d   1      -2.661  18.945  16.345  0.00  0.00     0.146 A 
ATOM      3  N3  NON d   1      -1.405  19.457  16.550  0.00  0.00    -0.335 N 
ATOM      4  C4  NON d   1      -1.481  20.396  17.545  0.00  0.00     0.066 A 
ATOM      5  N5  NON d   1      -2.716  20.484  17.954  0.00  0.00    -0.234 NA
ATOM      6  N6  NON d   1      -5.363  18.354  16.353  0.00  0.00    -0.298 N 
ATOM      7  C7  NON d   1      -4.533  17.716  15.487  0.00  0.00     0.182 A 
ATOM      8  N8  NON d   1      -3.199  17.999  15.478  0.00  0.00    -0.303 N 
ATOM      9  C9  NON d   1      -4.923  19.285  17.247  0.00  0.00     0.280 A 
ATOM     10  O10 NON d   1      -5.694  19.852  18.018  0.00  0.00    -0.265 OA
ATOM     11  S11 NON d   1      -5.215  16.535  14.398  0.00  0.00    -0.040 SA
ATOM     12  H   NON d   1      -0.560  19.185  16.048  0.00  0.00     0.168 HD
ATOM     13  H   NON d   1      -0.643  20.976  17.932  0.00  0.00     0.143 H 
ATOM     14  H   NON d   1      -6.357  18.127  16.334  0.00  0.00     0.171 HD
ENDROOT
BRANCH   8  15
ATOM     15  C12 NON d   1      -2.276  17.290  14.576  0.00  0.00     0.027 C 
ATOM     16  H   NON d   1      -2.620  16.257  14.526  0.00  0.00     0.072 H 
ATOM     17  H   NON d   1      -1.274  17.428  14.983  0.00  0.00     0.072 H 
BRANCH  15  18
ATOM     18  C13 NON d   1      -2.240  17.801  13.160  0.00  0.00    -0.040 A 
ATOM     19  C14 NON d   1      -2.043  19.158  12.917  0.00  0.00    -0.072 A 
ATOM     20  C15 NON d   1      -1.999  19.605  11.607  0.00  0.00    -0.045 A 
ATOM     21  H   NON d   1      -1.925  19.857  13.745  0.00  0.00     0.084 H 
ATOM     22  C16 NON d   1      -2.153  18.691  10.559  0.00  0.00     0.116 A 
ATOM     23  H   NON d   1      -1.845  20.663  11.394  0.00  0.00     0.088 H 
ATOM     24  C17 NON d   1      -2.349  17.332  10.802  0.00  0.00    -0.045 A 
ATOM     25  F19 NON d   1      -2.101  19.141   9.293  0.00  0.00    -0.206 F 
ATOM     26  C18 NON d   1      -2.397  16.888  12.117  0.00  0.00    -0.072 A 
ATOM     27  H   NON d   1      -2.462  16.631   9.975  0.00  0.00     0.088 H 
ATOM     28  H   NON d   1      -2.557  15.832  12.333  0.00  0.00     0.084 H 
ENDBRANCH  15  18
ENDBRANCH   8  15
TORSDOF 2
