REMARK  20 active torsions:
REMARK  status: ('A' for Active; 'I' for Inactive)
REMARK    1  A    between atoms: C2A_6  and  CAA_10 
REMARK    2  A    between atoms: CMA_9  and  C3A_7 
REMARK    3  A    between atoms: S12_54  and  CMA_9 
REMARK    4  A    between atoms: CAA_10  and  CBA_11 
REMARK    5  A    between atoms: CBA_11  and  CGA_12 
REMARK    6  A    between atoms: C2B_16  and  CMB_19 
REMARK    7  A    between atoms: C3B_17  and  CAB_20 
REMARK    8  A    between atoms: CAB_20  and  CBB_21 
REMARK    9  A    between atoms: C2C_23  and  CMC_26 
REMARK   10  A    between atoms: C3C_24  and  CAC_27 
REMARK   11  A    between atoms: CAC_27  and  CBC_28 
REMARK   12  A    between atoms: C2D_30  and  CMD_33 
REMARK   13  A    between atoms: C3D_31  and  CAD_34 
REMARK   14  A    between atoms: CAD_34  and  CBD_35 
REMARK   15  A    between atoms: CBD_35  and  CGD_36 
REMARK   16  A    between atoms: O2_44  and  C1_43 
REMARK   17  A    between atoms: C3_45  and  O2_44 
REMARK   18  A    between atoms: C4_46  and  C3_45 
REMARK   19  A    between atoms: N5_47  and  C4_46 
REMARK   20  A    between atoms: C11_53  and  S12_54 
ROOT
ATOM      1  CHA NON d   1      33.360  -5.517  33.751  0.00  0.00    -0.026 C 
ATOM      2  CHB NON d   1      37.930  -6.760  34.869  0.00  0.00    -0.026 C 
ATOM      3  CHC NON d   1      36.594 -11.391  34.972  0.00  0.00    -0.026 C 
ATOM      4  CHD NON d   1      32.011 -10.140  33.924  0.00  0.00    -0.026 C 
ATOM      5  C1A NON d   1      34.760  -5.392  34.163  0.00  0.00     0.066 A 
ATOM      6  C2A NON d   1      35.437  -4.201  34.367  0.00  0.00    -0.019 A 
ATOM      7  C3A NON d   1      36.746  -4.575  34.676  0.00  0.00    -0.011 A 
ATOM      8  C4A NON d   1      36.755  -5.949  34.628  0.00  0.00     0.067 A 
ATOM      9  C1B NON d   1      37.990  -8.198  34.689  0.00  0.00     0.066 A 
ATOM     10  C2B NON d   1      39.250  -8.897  34.944  0.00  0.00    -0.025 A 
ATOM     11  C3B NON d   1      38.871 -10.223  34.877  0.00  0.00    -0.021 A 
ATOM     12  C4B NON d   1      37.420 -10.248  34.610  0.00  0.00     0.066 A 
ATOM     13  C1C NON d   1      35.155 -11.508  34.768  0.00  0.00     0.066 C 
ATOM     14  C2C NON d   1      34.387 -12.771  34.925  0.00  0.00    -0.025 C 
ATOM     15  C3C NON d   1      33.078 -12.384  34.667  0.00  0.00    -0.021 C 
ATOM     16  C4C NON d   1      33.135 -10.948  34.344  0.00  0.00     0.066 C 
ATOM     17  C1D NON d   1      32.146  -8.828  33.293  0.00  0.00     0.066 A 
ATOM     18  C2D NON d   1      30.930  -8.123  32.855  0.00  0.00    -0.025 A 
ATOM     19  C3D NON d   1      31.267  -6.792  32.937  0.00  0.00    -0.021 A 
ATOM     20  C4D NON d   1      32.674  -6.766  33.378  0.00  0.00     0.066 A 
ATOM     21  NA  NON d   1      35.546  -6.437  34.400  0.00  0.00    -0.248 N 
ATOM     22  NB  NON d   1      36.955  -9.013  34.427  0.00  0.00    -0.248 N 
ATOM     23  NC  NON d   1      34.360 -10.470  34.521  0.00  0.00    -0.248 N 
ATOM     24  ND  NON d   1      33.166  -7.996  33.503  0.00  0.00    -0.248 N 
ATOM     25 FE   NON d   1      34.939  -8.450  34.502  0.00  0.00     0.000 Fe
ATOM     26  H   NON d   1      32.771  -4.601  33.717  0.00  0.00     0.090 H 
ATOM     27  H   NON d   1      38.833  -6.254  35.210  0.00  0.00     0.090 H 
ATOM     28  H   NON d   1      37.098 -12.237  35.439  0.00  0.00     0.090 H 
ATOM     29  H   NON d   1      31.007 -10.531  34.087  0.00  0.00     0.090 H 
ENDROOT
BRANCH   7  30
ATOM     30  CMA NON d   1      37.939  -3.713  35.003  0.00  0.00     0.011 C 
ATOM     31  H   NON d   1      38.845  -4.277  34.780  0.00  0.00     0.057 H 
ATOM     32  H   NON d   1      37.890  -3.439  36.057  0.00  0.00     0.057 H 
BRANCH  30  33
ATOM     33  S12 NON d   1      37.950  -2.003  33.890  0.00  0.00    -0.087 SA
BRANCH  33  34
ATOM     34  C11 NON d   1      38.238  -2.231  32.267  0.00  0.00     0.174 A 
ATOM     35  N5  NON d   1      38.009  -1.221  31.339  0.00  0.00    -0.308 N 
ATOM     36  C6  NON d   1      38.295  -1.517  30.029  0.00  0.00     0.145 A 
ATOM     37  C7  NON d   1      38.777  -2.747  29.674  0.00  0.00     0.172 A 
ATOM     38  N15 NON d   1      38.152  -0.682  28.953  0.00  0.00    -0.335 N 
ATOM     39  C8  NON d   1      39.030  -3.830  30.560  0.00  0.00     0.301 A 
ATOM     40  N13 NON d   1      38.937  -2.667  28.324  0.00  0.00    -0.234 NA
ATOM     41  O9  NON d   1      39.456  -4.932  30.241  0.00  0.00    -0.263 OA
ATOM     42  N10 NON d   1      38.722  -3.467  31.851  0.00  0.00    -0.183 NA
ATOM     43  C14 NON d   1      38.551  -1.414  27.933  0.00  0.00     0.066 A 
ATOM     44  H   NON d   1      38.571  -1.063  26.901  0.00  0.00     0.143 H 
ATOM     45  H   NON d   1      37.816   0.281  28.944  0.00  0.00     0.168 HD
BRANCH  35  46
ATOM     46  C4  NON d   1      37.502   0.070  31.745  0.00  0.00     0.023 C 
ATOM     47  H   NON d   1      36.819   0.427  30.974  0.00  0.00     0.068 H 
ATOM     48  H   NON d   1      37.004  -0.046  32.708  0.00  0.00     0.068 H 
BRANCH  46  49
ATOM     49  C3  NON d   1      38.610   1.087  31.904  0.00  0.00     0.034 C 
ATOM     50  H   NON d   1      39.326   0.974  31.090  0.00  0.00     0.076 H 
ATOM     51  H   NON d   1      38.187   2.091  31.881  0.00  0.00     0.076 H 
BRANCH  49  52
ATOM     52  O2  NON d   1      39.272   0.880  33.149  0.00  0.00    -0.394 OA
BRANCH  52  53
ATOM     53  C1  NON d   1      40.230   1.927  33.299  0.00  0.00     0.004 C 
ATOM     54  H   NON d   1      40.942   1.887  32.475  0.00  0.00     0.066 H 
ATOM     55  H   NON d   1      39.718   2.889  33.292  0.00  0.00     0.066 H 
ATOM     56  H   NON d   1      40.758   1.802  34.244  0.00  0.00     0.066 H 
ENDBRANCH  52  53
ENDBRANCH  49  52
ENDBRANCH  46  49
ENDBRANCH  35  46
ENDBRANCH  33  34
ENDBRANCH  30  33
ENDBRANCH   7  30
BRANCH   6  57
ATOM     57  CAA NON d   1      34.845  -2.814  34.275  0.00  0.00    -0.029 C 
ATOM     58  H   NON d   1      33.856  -2.846  33.818  0.00  0.00     0.041 H 
ATOM     59  H   NON d   1      35.465  -2.171  33.650  0.00  0.00     0.041 H 
BRANCH  57  60
ATOM     60  CBA NON d   1      34.764  -2.268  35.697  0.00  0.00     0.019 C 
ATOM     61  H   NON d   1      35.766  -2.215  36.124  0.00  0.00     0.049 H 
ATOM     62  H   NON d   1      34.145  -2.928  36.305  0.00  0.00     0.049 H 
BRANCH  60  63
ATOM     63  CGA NON d   1      34.156  -0.893  35.671  0.00  0.00     0.172 C 
ATOM     64  O1A NON d   1      34.913   0.075  35.438  0.00  0.00    -0.648 OA
ATOM     65  O2A NON d   1      32.919  -0.776  35.893  0.00  0.00    -0.648 OA
ENDBRANCH  60  63
ENDBRANCH  57  60
ENDBRANCH   6  57
BRANCH  10  66
ATOM     66  CMB NON d   1      40.591  -8.208  35.081  0.00  0.00    -0.048 C 
ATOM     67  H   NON d   1      41.067  -8.523  36.010  0.00  0.00     0.033 H 
ATOM     68  H   NON d   1      41.225  -8.479  34.237  0.00  0.00     0.033 H 
ATOM     69  H   NON d   1      40.444  -7.128  35.095  0.00  0.00     0.033 H 
ENDBRANCH  10  66
BRANCH  19  70
ATOM     70  CAD NON d   1      30.503  -5.593  32.457  0.00  0.00    -0.029 C 
ATOM     71  H   NON d   1      30.626  -4.699  33.068  0.00  0.00     0.041 H 
ATOM     72  H   NON d   1      29.419  -5.693  32.505  0.00  0.00     0.041 H 
BRANCH  70  73
ATOM     73  CBD NON d   1      31.082  -5.483  31.021  0.00  0.00     0.019 C 
ATOM     74  H   NON d   1      30.836  -6.433  30.546  0.00  0.00     0.049 H 
ATOM     75  H   NON d   1      32.130  -5.217  31.161  0.00  0.00     0.049 H 
BRANCH  73  76
ATOM     76  CGD NON d   1      30.529  -4.419  30.080  0.00  0.00     0.172 C 
ATOM     77  O1D NON d   1      31.279  -3.469  29.694  0.00  0.00    -0.648 OA
ATOM     78  O2D NON d   1      29.350  -4.522  29.672  0.00  0.00    -0.648 OA
ENDBRANCH  73  76
ENDBRANCH  70  73
ENDBRANCH  19  70
BRANCH  11  79
ATOM     79  CAB NON d   1      39.689 -11.445  35.102  0.00  0.00    -0.042 C 
ATOM     80  H   NON d   1      39.000 -12.256  34.867  0.00  0.00     0.039 H 
ATOM     81  H   NON d   1      40.098 -11.293  36.101  0.00  0.00     0.039 H 
BRANCH  79  82
ATOM     82  CBB NON d   1      40.888 -11.767  34.286  0.00  0.00    -0.073 C 
ATOM     83  H   NON d   1      40.599 -11.864  33.240  0.00  0.00     0.028 H 
ATOM     84  H   NON d   1      41.621 -10.967  34.389  0.00  0.00     0.028 H 
ATOM     85  H   NON d   1      41.321 -12.705  34.633  0.00  0.00     0.028 H 
ENDBRANCH  79  82
ENDBRANCH  11  79
BRANCH  18  86
ATOM     86  CMD NON d   1      29.650  -8.794  32.424  0.00  0.00    -0.048 C 
ATOM     87  H   NON d   1      29.848  -9.433  31.564  0.00  0.00     0.033 H 
ATOM     88  H   NON d   1      29.263  -9.398  33.245  0.00  0.00     0.033 H 
ATOM     89  H   NON d   1      28.917  -8.035  32.153  0.00  0.00     0.033 H 
ENDBRANCH  18  86
BRANCH  14  90
ATOM     90  CMC NON d   1      34.959 -14.110  35.298  0.00  0.00    -0.048 C 
ATOM     91  H   NON d   1      34.513 -14.446  36.234  0.00  0.00     0.033 H 
ATOM     92  H   NON d   1      34.739 -14.830  34.510  0.00  0.00     0.033 H 
ATOM     93  H   NON d   1      36.038 -14.021  35.420  0.00  0.00     0.033 H 
ENDBRANCH  14  90
BRANCH  15  94
ATOM     94  CAC NON d   1      31.836 -13.191  34.578  0.00  0.00    -0.042 C 
ATOM     95  H   NON d   1      31.512 -13.014  33.552  0.00  0.00     0.039 H 
ATOM     96  H   NON d   1      31.284 -12.873  35.462  0.00  0.00     0.039 H 
BRANCH  94  97
ATOM     97  CBC NON d   1      31.787 -14.679  34.682  0.00  0.00    -0.073 C 
ATOM     98  H   NON d   1      32.391 -15.117  33.888  0.00  0.00     0.028 H 
ATOM     99  H   NON d   1      32.180 -14.987  35.651  0.00  0.00     0.028 H 
ATOM    100  H   NON d   1      30.755 -15.015  34.583  0.00  0.00     0.028 H 
ENDBRANCH  94  97
ENDBRANCH  15  94
TORSDOF 20
