REMARK  24 active torsions:
REMARK  status: ('A' for Active; 'I' for Inactive)
REMARK    1  A    between atoms: C2A_2  and  O2A_8 
REMARK    2  A    between atoms: C3A_3  and  O3A_9 
REMARK    3  A    between atoms: C5A_5  and  C6A_6 
REMARK    4  A    between atoms: C6A_6  and  O6A_11 
REMARK    5  A    between atoms: C2B_13  and  O2B_19 
REMARK    6  A    between atoms: C3B_14  and  O3B_20 
REMARK    7  A    between atoms: C5B_16  and  C6B_17 
REMARK    8  A    between atoms: C6B_17  and  O6B_22 
REMARK    9  A    between atoms: C2C_24  and  O2C_30 
REMARK   10  A    between atoms: C3C_25  and  O3C_31 
REMARK   11  A    between atoms: C5C_27  and  C6C_28 
REMARK   12  A    between atoms: C6C_28  and  O6C_33 
REMARK   13  A    between atoms: C2D_35  and  O2D_41 
REMARK   14  A    between atoms: C3D_36  and  O3D_42 
REMARK   15  A    between atoms: C5D_38  and  C6D_39 
REMARK   16  A    between atoms: C6D_39  and  O6D_44 
REMARK   17  A    between atoms: C2E_46  and  O2E_52 
REMARK   18  A    between atoms: C3E_47  and  O3E_53 
REMARK   19  A    between atoms: C5E_49  and  C6E_50 
REMARK   20  A    between atoms: C6E_50  and  O6E_55 
REMARK   21  A    between atoms: C2F_57  and  O2F_63 
REMARK   22  A    between atoms: C3F_58  and  O3F_64 
REMARK   23  A    between atoms: C5F_60  and  C6F_61 
REMARK   24  A    between atoms: C6F_61  and  O6F_66 
ROOT
ATOM      1  C1A ACX d   1     -17.765  93.279  20.700  0.00  0.00     0.159 C 
ATOM      2  C2A ACX d   1     -17.594  94.744  20.385  0.00  0.00     0.110 C 
ATOM      3  C3A ACX d   1     -16.267  95.181  20.964  0.00  0.00     0.092 C 
ATOM      4  C4A ACX d   1     -16.114  94.853  22.461  0.00  0.00     0.096 C 
ATOM      5  C5A ACX d   1     -16.534  93.417  22.927  0.00  0.00     0.089 C 
ATOM      6  O1A ACX d   1     -16.705  92.752  19.839  0.00  0.00    -0.348 OA
ATOM      7  O5A ACX d   1     -17.697  92.932  22.165  0.00  0.00    -0.348 OA
ATOM      8  C1B ACX d   1     -16.262  89.393  17.292  0.00  0.00     0.159 C 
ATOM      9  C2B ACX d   1     -16.663  90.696  16.571  0.00  0.00     0.110 C 
ATOM     10  C3B ACX d   1     -16.532  91.909  17.541  0.00  0.00     0.092 C 
ATOM     11  C4B ACX d   1     -17.111  91.640  18.954  0.00  0.00     0.096 C 
ATOM     12  C5B ACX d   1     -16.753  90.258  19.541  0.00  0.00     0.089 C 
ATOM     13  O1B ACX d   1     -14.836  89.425  17.638  0.00  0.00    -0.348 OA
ATOM     14  O5B ACX d   1     -17.098  89.314  18.495  0.00  0.00    -0.348 OA
ATOM     15  C1C ACX d   1     -11.072  87.811  17.130  0.00  0.00     0.159 C 
ATOM     16  C2C ACX d   1     -11.729  88.258  15.800  0.00  0.00     0.110 C 
ATOM     17  C3C ACX d   1     -12.992  89.101  16.055  0.00  0.00     0.092 C 
ATOM     18  C4C ACX d   1     -13.952  88.405  17.079  0.00  0.00     0.096 C 
ATOM     19  C5C ACX d   1     -13.229  87.673  18.299  0.00  0.00     0.089 C 
ATOM     20  O1C ACX d   1     -10.693  88.933  17.992  0.00  0.00    -0.348 OA
ATOM     21  O5C ACX d   1     -11.996  86.966  17.896  0.00  0.00    -0.348 OA
ATOM     22  C1D ACX d   1      -7.435  90.320  20.136  0.00  0.00     0.159 C 
ATOM     23  C2D ACX d   1      -7.273  90.248  18.585  0.00  0.00     0.110 C 
ATOM     24  C3D ACX d   1      -8.599  89.942  17.878  0.00  0.00     0.092 C 
ATOM     25  C4D ACX d   1      -9.377  88.827  18.587  0.00  0.00     0.096 C 
ATOM     26  C5D ACX d   1      -9.398  88.990  20.135  0.00  0.00     0.089 C 
ATOM     27  O1D ACX d   1      -8.285  91.450  20.510  0.00  0.00    -0.348 OA
ATOM     28  O5D ACX d   1      -8.019  89.083  20.648  0.00  0.00    -0.348 OA
ATOM     29  C1E ACX d   1      -9.260  93.999  23.811  0.00  0.00     0.159 C 
ATOM     30  C2E ACX d   1      -7.957  94.255  23.066  0.00  0.00     0.110 C 
ATOM     31  C3E ACX d   1      -8.107  93.613  21.675  0.00  0.00     0.092 C 
ATOM     32  C4E ACX d   1      -8.033  92.071  21.807  0.00  0.00     0.096 C 
ATOM     33  C5E ACX d   1      -9.056  91.602  22.903  0.00  0.00     0.089 C 
ATOM     34  O1E ACX d   1     -10.357  94.627  23.033  0.00  0.00    -0.348 OA
ATOM     35  O5E ACX d   1      -9.344  92.529  24.046  0.00  0.00    -0.348 OA
ATOM     36  C1F ACX d   1     -14.344  95.780  23.841  0.00  0.00     0.159 C 
ATOM     37  C2F ACX d   1     -13.388  96.916  23.403  0.00  0.00     0.110 C 
ATOM     38  C3F ACX d   1     -12.014  96.388  22.943  0.00  0.00     0.092 C 
ATOM     39  C4F ACX d   1     -11.445  95.247  23.824  0.00  0.00     0.096 C 
ATOM     40  C5F ACX d   1     -12.562  94.240  24.275  0.00  0.00     0.089 C 
ATOM     41  O1F ACX d   1     -14.697  94.978  22.679  0.00  0.00    -0.348 OA
ATOM     42  O5F ACX d   1     -13.777  94.891  24.816  0.00  0.00    -0.348 OA
ATOM     43  H   ACX d   1     -18.750  92.854  20.505  0.00  0.00     0.133 H 
ATOM     44  H   ACX d   1     -18.397  95.356  20.795  0.00  0.00     0.094 H 
ATOM     45  H   ACX d   1     -15.485  94.616  20.457  0.00  0.00     0.091 H 
ATOM     46  H   ACX d   1     -16.775  95.514  23.021  0.00  0.00     0.091 H 
ATOM     47  H   ACX d   1     -15.707  92.738  22.720  0.00  0.00     0.090 H 
ATOM     48  H   ACX d   1     -16.414  88.519  16.659  0.00  0.00     0.133 H 
ATOM     49  H   ACX d   1     -17.707  90.648  16.263  0.00  0.00     0.094 H 
ATOM     50  H   ACX d   1     -15.456  92.072  17.593  0.00  0.00     0.091 H 
ATOM     51  H   ACX d   1     -18.197  91.602  18.870  0.00  0.00     0.091 H 
ATOM     52  H   ACX d   1     -15.702  90.178  19.818  0.00  0.00     0.090 H 
ATOM     53  H   ACX d   1     -10.171  87.268  16.844  0.00  0.00     0.133 H 
ATOM     54  H   ACX d   1     -12.032  87.352  15.275  0.00  0.00     0.094 H 
ATOM     55  H   ACX d   1     -12.694  90.049  16.502  0.00  0.00     0.091 H 
ATOM     56  H   ACX d   1     -14.475  87.629  16.519  0.00  0.00     0.091 H 
ATOM     57  H   ACX d   1     -12.943  88.495  18.955  0.00  0.00     0.090 H 
ATOM     58  H   ACX d   1      -6.446  90.456  20.573  0.00  0.00     0.133 H 
ATOM     59  H   ACX d   1      -6.555  89.448  18.405  0.00  0.00     0.094 H 
ATOM     60  H   ACX d   1      -9.191  90.856  17.920  0.00  0.00     0.091 H 
ATOM     61  H   ACX d   1      -8.926  87.843  18.455  0.00  0.00     0.091 H 
ATOM     62  H   ACX d   1      -9.885  89.932  20.387  0.00  0.00     0.090 H 
ATOM     63  H   ACX d   1      -9.330  94.454  24.799  0.00  0.00     0.133 H 
ATOM     64  H   ACX d   1      -7.101  93.819  23.580  0.00  0.00     0.094 H 
ATOM     65  H   ACX d   1      -9.085  93.880  21.274  0.00  0.00     0.091 H 
ATOM     66  H   ACX d   1      -7.037  91.761  22.122  0.00  0.00     0.091 H 
ATOM     67  H   ACX d   1      -9.994  91.563  22.349  0.00  0.00     0.090 H 
ATOM     68  H   ACX d   1     -15.207  96.269  24.292  0.00  0.00     0.133 H 
ATOM     69  H   ACX d   1     -13.237  97.556  24.273  0.00  0.00     0.094 H 
ATOM     70  H   ACX d   1     -12.156  95.947  21.956  0.00  0.00     0.091 H 
ATOM     71  H   ACX d   1     -11.047  95.621  24.767  0.00  0.00     0.091 H 
ATOM     72  H   ACX d   1     -12.747  93.728  23.331  0.00  0.00     0.090 H 
ENDROOT
BRANCH   5  73
ATOM     73  C6A ACX d   1     -16.788  93.379  24.462  0.00  0.00     0.043 C 
ATOM     74  H   ACX d   1     -16.824  94.399  24.846  0.00  0.00     0.078 H 
ATOM     75  H   ACX d   1     -15.982  92.828  24.946  0.00  0.00     0.078 H 
BRANCH  73  76
ATOM     76  O6A ACX d   1     -18.038  92.726  24.735  0.00  0.00    -0.398 OA
ATOM     77  H   ACX d   1     -18.750  93.208  24.308  0.00  0.00     0.209 HD
ENDBRANCH  73  76
ENDBRANCH   5  73
BRANCH   3  78
ATOM     78  O3A ACX d   1     -16.103  96.560  20.738  0.00  0.00    -0.390 OA
ATOM     79  H   ACX d   1     -15.228  96.829  21.027  0.00  0.00     0.210 HD
ENDBRANCH   3  78
BRANCH   2  80
ATOM     80  O2A ACX d   1     -17.551  94.856  18.943  0.00  0.00    -0.388 OA
ATOM     81  H   ACX d   1     -16.851  94.295  18.600  0.00  0.00     0.210 HD
ENDBRANCH   2  80
BRANCH  37  82
ATOM     82  O2F ACX d   1     -13.974  97.642  22.310  0.00  0.00    -0.388 OA
ATOM     83  H   ACX d   1     -14.079  97.055  21.557  0.00  0.00     0.210 HD
ENDBRANCH  37  82
BRANCH  38  84
ATOM     84  O3F ACX d   1     -11.091  97.486  22.889  0.00  0.00    -0.390 OA
ATOM     85  H   ACX d   1     -11.457  98.184  22.340  0.00  0.00     0.210 HD
ENDBRANCH  38  84
BRANCH  40  86
ATOM     86  C6F ACX d   1     -12.158  93.238  25.364  0.00  0.00     0.043 C 
ATOM     87  H   ACX d   1     -11.187  93.502  25.783  0.00  0.00     0.078 H 
ATOM     88  H   ACX d   1     -12.073  92.235  24.946  0.00  0.00     0.078 H 
BRANCH  86  89
ATOM     89  O6F ACX d   1     -13.176  93.274  26.387  0.00  0.00    -0.398 OA
ATOM     90  H   ACX d   1     -13.232  94.161  26.751  0.00  0.00     0.209 HD
ENDBRANCH  86  89
ENDBRANCH  40  86
BRANCH  10  91
ATOM     91  O3B ACX d   1     -17.221  93.065  17.064  0.00  0.00    -0.390 OA
ATOM     92  H   ACX d   1     -17.057  93.801  17.658  0.00  0.00     0.210 HD
ENDBRANCH  10  91
BRANCH  12  93
ATOM     93  C6B ACX d   1     -17.549  89.993  20.853  0.00  0.00     0.043 C 
ATOM     94  H   ACX d   1     -18.569  89.701  20.601  0.00  0.00     0.078 H 
ATOM     95  H   ACX d   1     -17.559  90.901  21.456  0.00  0.00     0.078 H 
BRANCH  93  96
ATOM     96  O6B ACX d   1     -16.938  88.955  21.588  0.00  0.00    -0.398 OA
ATOM     97  H   ACX d   1     -17.436  88.799  22.394  0.00  0.00     0.209 HD
ENDBRANCH  93  96
ENDBRANCH  12  93
BRANCH   9  98
ATOM     98  O2B ACX d   1     -15.858  90.852  15.375  0.00  0.00    -0.388 OA
ATOM     99  H   ACX d   1     -14.934  90.936  15.621  0.00  0.00     0.210 HD
ENDBRANCH   9  98
BRANCH  30 100
ATOM    100  O2E ACX d   1      -7.712  95.662  22.987  0.00  0.00    -0.388 OA
ATOM    101  H   ACX d   1      -8.445  96.089  22.538  0.00  0.00     0.210 HD
ENDBRANCH  30 100
BRANCH  31 102
ATOM    102  O3E ACX d   1      -7.150  94.129  20.727  0.00  0.00    -0.390 OA
ATOM    103  H   ACX d   1      -7.232  95.084  20.679  0.00  0.00     0.210 HD
ENDBRANCH  31 102
BRANCH  33 104
ATOM    104  C6E ACX d   1      -8.625  90.230  23.478  0.00  0.00     0.043 C 
ATOM    105  H   ACX d   1      -7.626  90.315  23.905  0.00  0.00     0.078 H 
ATOM    106  H   ACX d   1      -8.621  89.489  22.679  0.00  0.00     0.078 H 
BRANCH 104 107
ATOM    107  O6E ACX d   1      -9.545  89.823  24.499  0.00  0.00    -0.398 OA
ATOM    108  H   ACX d   1      -9.550  90.476  25.203  0.00  0.00     0.209 HD
ENDBRANCH 104 107
ENDBRANCH  33 104
BRANCH  17 109
ATOM    109  O3C ACX d   1     -13.658  89.370  14.800  0.00  0.00    -0.390 OA
ATOM    110  H   ACX d   1     -14.408  89.949  14.955  0.00  0.00     0.210 HD
ENDBRANCH  17 109
BRANCH  19 111
ATOM    111  C6C ACX d   1     -14.160  86.752  19.170  0.00  0.00     0.043 C 
ATOM    112  H   ACX d   1     -13.876  85.716  18.986  0.00  0.00     0.078 H 
ATOM    113  H   ACX d   1     -15.193  86.957  18.890  0.00  0.00     0.078 H 
BRANCH 111 114
ATOM    114  O6C ACX d   1     -14.023  87.007  20.581  0.00  0.00    -0.398 OA
ATOM    115  H   ACX d   1     -14.608  86.423  21.069  0.00  0.00     0.209 HD
ENDBRANCH 111 114
ENDBRANCH  19 111
BRANCH  16 116
ATOM    116  O2C ACX d   1     -10.801  88.950  14.940  0.00  0.00    -0.388 OA
ATOM    117  H   ACX d   1     -10.539  89.776  15.353  0.00  0.00     0.210 HD
ENDBRANCH  16 116
BRANCH  23 118
ATOM    118  O2D ACX d   1      -6.806  91.491  18.053  0.00  0.00    -0.388 OA
ATOM    119  H   ACX d   1      -7.455  92.177  18.228  0.00  0.00     0.210 HD
ENDBRANCH  23 118
BRANCH  24 120
ATOM    120  O3D ACX d   1      -8.392  89.589  16.498  0.00  0.00    -0.390 OA
ATOM    121  H   ACX d   1      -9.242  89.471  16.068  0.00  0.00     0.210 HD
ENDBRANCH  24 120
BRANCH  26 122
ATOM    122  C6D ACX d   1     -10.296  87.927  20.843  0.00  0.00     0.043 C 
ATOM    123  H   ACX d   1     -11.101  87.647  20.164  0.00  0.00     0.078 H 
ATOM    124  H   ACX d   1     -10.685  88.361  21.764  0.00  0.00     0.078 H 
BRANCH 122 125
ATOM    125  O6D ACX d   1      -9.549  86.748  21.175  0.00  0.00    -0.398 OA
ATOM    126  H   ACX d   1      -8.830  86.982  21.766  0.00  0.00     0.209 HD
ENDBRANCH 122 125
ENDBRANCH  26 122
TORSDOF 24
