REMARK  15 active torsions:
REMARK  status: ('A' for Active; 'I' for Inactive)
REMARK    1  A    between atoms: C7_7  and  C15_15 
REMARK    2  A    between atoms: C8_8  and  C16_16 
REMARK    3  A    between atoms: C26_24  and  C9_9 
REMARK    4  A    between atoms: C10_10  and  C27_25 
REMARK    5  A    between atoms: C28_26  and  C14_14 
REMARK       I    between atoms: C15_15  and  N32_29 
REMARK    6  A    between atoms: C29_27  and  C17_17 
REMARK    7  A    between atoms: C18_19  and  C19_18 
REMARK    8  A    between atoms: C20_20  and  C18_19 
REMARK    9  A    between atoms: C20_20  and  C22_21 
REMARK   10  A    between atoms: N32_29  and  C20_20 
REMARK   11  A    between atoms: C31_28  and  C25_23 
REMARK   12  A    between atoms: N33_30  and  C26_24 
REMARK   13  A    between atoms: C27_25  and  N33_30 
REMARK   14  A    between atoms: N33_30  and  C28_26 
REMARK   15  A    between atoms: C29_27  and  C31_28 
ROOT
ATOM      1  N33 ZSW d   1     -11.082  47.466  -0.004  0.00  0.00    -0.060 N 
ATOM      2  H33 ZSW d   1     -11.846  47.605   0.639  0.00  0.00     0.281 HD
ENDROOT
BRANCH   1   3
ATOM      3  C26 ZSW d   1      -9.940  48.169   0.653  0.00  0.00     0.109 C 
ATOM      4  H22 ZSW d   1      -9.004  47.810   0.201  0.00  0.00     0.083 H 
ATOM      5  H23 ZSW d   1     -10.045  49.249   0.471  0.00  0.00     0.083 H 
BRANCH   3   6
ATOM      6  C9  ZSW d   1      -9.870  47.943   2.126  0.00  0.00    -0.017 A 
ATOM      7  C4  ZSW d   1     -10.694  48.695   2.937  0.00  0.00    -0.074 A 
ATOM      8  C2  ZSW d   1     -10.675  48.520   4.307  0.00  0.00    -0.082 A 
ATOM      9  H4  ZSW d   1     -11.361  49.428   2.497  0.00  0.00     0.084 H 
ATOM     10  C1  ZSW d   1      -9.826  47.592   4.875  0.00  0.00    -0.082 A 
ATOM     11  H2  ZSW d   1     -11.328  49.113   4.937  0.00  0.00     0.083 H 
ATOM     12  C3  ZSW d   1      -8.989  46.843   4.075  0.00  0.00    -0.067 A 
ATOM     13  H1  ZSW d   1      -9.817  47.452   5.950  0.00  0.00     0.083 H 
ATOM     14  C7  ZSW d   1      -9.017  47.018   2.710  0.00  0.00     0.040 A 
ATOM     15  H3  ZSW d   1      -8.313  46.121   4.518  0.00  0.00     0.085 H 
BRANCH  14  16
ATOM     16  C15 ZSW d   1      -8.118  46.162   1.908  0.00  0.00     0.252 C 
ATOM     17  N32 ZSW d   1      -8.296  44.831   2.241  0.00  0.00    -0.353 N 
ATOM     18  H32 ZSW d   1      -9.114  44.648   2.786  0.00  0.00     0.163 HD
ATOM     19  O36 ZSW d   1      -7.393  46.635   1.050  0.00  0.00    -0.268 OA
BRANCH  17  20
ATOM     20  C20 ZSW d   1      -7.500  43.649   1.937  0.00  0.00     0.009 C 
ATOM     21  H15 ZSW d   1      -7.837  42.880   2.648  0.00  0.00     0.071 H 
BRANCH  20  22
ATOM     22  C18 ZSW d   1      -7.744  43.079   0.561  0.00  0.00    -0.050 C 
ATOM     23  H13 ZSW d   1      -7.695  43.894  -0.176  0.00  0.00     0.035 H 
ATOM     24  H14 ZSW d   1      -6.964  42.336   0.339  0.00  0.00     0.035 H 
BRANCH  22  25
ATOM     25  C19 ZSW d   1      -9.098  42.412   0.465  0.00  0.00    -0.075 C 
ATOM     26  H10 ZSW d   1      -9.238  42.011  -0.549  0.00  0.00     0.027 H 
ATOM     27  H11 ZSW d   1      -9.886  43.149   0.679  0.00  0.00     0.027 H 
ATOM     28  H12 ZSW d   1      -9.155  41.591   1.195  0.00  0.00     0.027 H 
ENDBRANCH  22  25
ENDBRANCH  20  22
BRANCH  20  29
ATOM     29  C22 ZSW d   1      -6.017  43.826   2.185  0.00  0.00    -0.057 C 
ATOM     30  H16 ZSW d   1      -5.861  44.242   3.191  0.00  0.00     0.030 H 
ATOM     31  H17 ZSW d   1      -5.599  44.514   1.435  0.00  0.00     0.030 H 
ATOM     32  H18 ZSW d   1      -5.513  42.851   2.109  0.00  0.00     0.030 H 
ENDBRANCH  20  29
ENDBRANCH  17  20
ENDBRANCH  14  16
ENDBRANCH   3   6
ENDBRANCH   1   3
BRANCH   1  33
ATOM     33  C27 ZSW d   1     -10.985  45.947  -0.081  0.00  0.00     0.109 C 
ATOM     34  H24 ZSW d   1      -9.991  45.656  -0.450  0.00  0.00     0.083 H 
ATOM     35  H25 ZSW d   1     -11.147  45.513   0.916  0.00  0.00     0.083 H 
BRANCH  33  36
ATOM     36  C10 ZSW d   1     -12.041  45.457  -1.026  0.00  0.00    -0.013 A 
ATOM     37  C5  ZSW d   1     -11.633  44.992  -2.266  0.00  0.00    -0.071 A 
ATOM     38  C6  ZSW d   1     -12.545  44.553  -3.207  0.00  0.00    -0.047 A 
ATOM     39  H5  ZSW d   1     -10.575  44.972  -2.503  0.00  0.00     0.084 H 
ATOM     40  C11 ZSW d   1     -13.883  44.601  -2.881  0.00  0.00     0.103 A 
ATOM     41  H6  ZSW d   1     -12.218  44.182  -4.172  0.00  0.00     0.087 H 
ATOM     42  C12 ZSW d   1     -14.313  45.046  -1.640  0.00  0.00     0.119 A 
ATOM     43  O40 ZSW d   1     -14.752  44.153  -3.844  0.00  0.00    -0.341 OA
ATOM     44  C8  ZSW d   1     -13.394  45.497  -0.697  0.00  0.00     0.084 A 
ATOM     45  O39 ZSW d   1     -15.667  45.110  -1.311  0.00  0.00    -0.345 OA
ATOM     46  C23 ZSW d   1     -16.488  44.399  -2.234  0.00  0.00     0.051 C 
ATOM     47  C25 ZSW d   1     -16.054  44.683  -3.648  0.00  0.00     0.067 C 
ATOM     48  H19 ZSW d   1     -16.403  43.320  -2.038  0.00  0.00     0.079 H 
ATOM     49  H20 ZSW d   1     -17.534  44.714  -2.106  0.00  0.00     0.079 H 
ATOM     50  H21 ZSW d   1     -16.046  45.768  -3.828  0.00  0.00     0.087 H 
BRANCH  44  51
ATOM     51  C16 ZSW d   1     -13.848  45.958   0.643  0.00  0.00     0.212 C 
ATOM     52  O37 ZSW d   1     -14.706  45.214   1.219  0.00  0.00    -0.644 OA
ATOM     53  O34 ZSW d   1     -13.309  46.965   1.178  0.00  0.00    -0.644 OA
ENDBRANCH  44  51
BRANCH  47  54
ATOM     54  C31 ZSW d   1     -17.027  44.009  -4.602  0.00  0.00    -0.029 C 
ATOM     55  H30 ZSW d   1     -18.013  44.484  -4.497  0.00  0.00     0.037 H 
ATOM     56  H31 ZSW d   1     -17.103  42.944  -4.337  0.00  0.00     0.037 H 
BRANCH  54  57
ATOM     57  C29 ZSW d   1     -16.582  44.122  -6.045  0.00  0.00     0.018 C 
ATOM     58  H28 ZSW d   1     -15.505  43.914  -6.134  0.00  0.00     0.049 H 
ATOM     59  H29 ZSW d   1     -17.145  43.420  -6.678  0.00  0.00     0.049 H 
BRANCH  57  60
ATOM     60  C17 ZSW d   1     -16.883  45.558  -6.442  0.00  0.00     0.172 C 
ATOM     61  O35 ZSW d   1     -17.939  46.078  -5.992  0.00  0.00    -0.648 OA
ATOM     62  O38 ZSW d   1     -16.020  46.089  -7.191  0.00  0.00    -0.648 OA
ENDBRANCH  57  60
ENDBRANCH  54  57
ENDBRANCH  47  54
ENDBRANCH  33  36
ENDBRANCH   1  33
BRANCH   1  63
ATOM     63  C28 ZSW d   1     -11.535  48.178  -1.243  0.00  0.00     0.099 C 
ATOM     64  H26 ZSW d   1     -12.150  47.478  -1.828  0.00  0.00     0.082 H 
ATOM     65  H27 ZSW d   1     -12.149  49.036  -0.933  0.00  0.00     0.082 H 
BRANCH  63  66
ATOM     66  C14 ZSW d   1     -10.464  48.684  -2.125  0.00  0.00    -0.087 C 
ATOM     67  C13 ZSW d   1     -10.376  49.985  -2.419  0.00  0.00    -0.123 C 
ATOM     68  H7  ZSW d   1      -9.581  50.343  -3.071  0.00  0.00     0.066 H 
ATOM     69  H8  ZSW d   1     -11.100  50.687  -2.007  0.00  0.00     0.066 H 
ATOM     70  H9  ZSW d   1      -9.737  47.988  -2.541  0.00  0.00     0.078 H 
ENDBRANCH  63  66
ENDBRANCH   1  63
TORSDOF 15
