REMARK  11 active torsions:
REMARK  status: ('A' for Active; 'I' for Inactive)
REMARK    1  A    between atoms: C13_13  and  C7_7 
REMARK    2  A    between atoms: C8_8  and  C14_14 
REMARK    3  A    between atoms: C9_9  and  C19_19 
REMARK    4  A    between atoms: C20_20  and  C10_10 
REMARK       I    between atoms: N23_23  and  C13_13 
REMARK    5  A    between atoms: C21_21  and  C16_16 
REMARK    6  A    between atoms: C22_22  and  C17_17 
REMARK    7  A    between atoms: N24_24  and  C18_18 
REMARK    8  A    between atoms: C19_19  and  N24_24 
REMARK    9  A    between atoms: N24_24  and  C20_20 
REMARK   10  A    between atoms: C22_22  and  C21_21 
REMARK   11  A    between atoms: C22_22  and  N23_23 
ROOT
ATOM      1  C19 OM2 d   1       9.736 -48.268   2.013  0.00  0.00     0.108 C 
ATOM      2  H18 OM2 d   1       8.774 -47.807   1.744  0.00  0.00     0.083 H 
ATOM      3  H19 OM2 d   1       9.729 -49.328   1.720  0.00  0.00     0.083 H 
ENDROOT
BRANCH   1   4
ATOM      4  C9  OM2 d   1       9.914 -48.180   3.496  0.00  0.00    -0.017 A 
ATOM      5  C4  OM2 d   1      10.897 -48.937   4.120  0.00  0.00    -0.074 A 
ATOM      6  C2  OM2 d   1      11.082 -48.857   5.491  0.00  0.00    -0.082 A 
ATOM      7  H4  OM2 d   1      11.524 -49.596   3.530  0.00  0.00     0.084 H 
ATOM      8  C1  OM2 d   1      10.262 -48.012   6.214  0.00  0.00    -0.082 A 
ATOM      9  H2  OM2 d   1      11.850 -49.442   5.984  0.00  0.00     0.083 H 
ATOM     10  C3  OM2 d   1       9.276 -47.257   5.592  0.00  0.00    -0.067 A 
ATOM     11  H1  OM2 d   1      10.391 -47.937   7.288  0.00  0.00     0.083 H 
ATOM     12  C7  OM2 d   1       9.097 -47.325   4.220  0.00  0.00     0.040 A 
ATOM     13  H3  OM2 d   1       8.641 -46.609   6.185  0.00  0.00     0.085 H 
BRANCH  12  14
ATOM     14  C13 OM2 d   1       8.038 -46.502   3.509  0.00  0.00     0.252 C 
ATOM     15  N23 OM2 d   1       8.035 -45.134   3.771  0.00  0.00    -0.353 N 
ATOM     16  H25 OM2 d   1       8.464 -44.801   4.611  0.00  0.00     0.163 HD
ATOM     17  O26 OM2 d   1       7.235 -47.002   2.725  0.00  0.00    -0.268 OA
BRANCH  15  18
ATOM     18  C22 OM2 d   1       7.427 -44.173   2.862  0.00  0.00     0.009 C 
ATOM     19  H24 OM2 d   1       7.115 -44.711   1.955  0.00  0.00     0.071 H 
BRANCH  18  20
ATOM     20  C17 OM2 d   1       6.173 -43.554   3.487  0.00  0.00    -0.057 C 
ATOM     21  H12 OM2 d   1       5.731 -42.833   2.784  0.00  0.00     0.030 H 
ATOM     22  H13 OM2 d   1       6.445 -43.038   4.420  0.00  0.00     0.030 H 
ATOM     23  H14 OM2 d   1       5.443 -44.347   3.706  0.00  0.00     0.030 H 
ENDBRANCH  18  20
BRANCH  18  24
ATOM     24  C21 OM2 d   1       8.455 -43.124   2.450  0.00  0.00    -0.050 C 
ATOM     25  H22 OM2 d   1       8.791 -42.587   3.349  0.00  0.00     0.035 H 
ATOM     26  H23 OM2 d   1       9.312 -43.634   1.986  0.00  0.00     0.035 H 
BRANCH  24  27
ATOM     27  C16 OM2 d   1       7.904 -42.132   1.478  0.00  0.00    -0.075 C 
ATOM     28  H9  OM2 d   1       8.685 -41.402   1.216  0.00  0.00     0.027 H 
ATOM     29  H10 OM2 d   1       7.050 -41.608   1.933  0.00  0.00     0.027 H 
ATOM     30  H11 OM2 d   1       7.572 -42.655   0.569  0.00  0.00     0.027 H 
ENDBRANCH  24  27
ENDBRANCH  18  24
ENDBRANCH  15  18
ENDBRANCH  12  14
ENDBRANCH   1   4
BRANCH   1  31
ATOM     31  N24 OM2 d   1      10.818 -47.577   1.274  0.00  0.00    -0.067 N 
ATOM     32  H26 OM2 d   1      11.662 -47.815   1.771  0.00  0.00     0.280 HD
BRANCH  31  33
ATOM     33  C18 OM2 d   1      10.963 -48.239  -0.068  0.00  0.00     0.067 C 
ATOM     34  H15 OM2 d   1      10.945 -49.332   0.058  0.00  0.00     0.068 H 
ATOM     35  H16 OM2 d   1      11.918 -47.938  -0.524  0.00  0.00     0.068 H 
ATOM     36  H17 OM2 d   1      10.132 -47.931  -0.720  0.00  0.00     0.068 H 
ENDBRANCH  31  33
BRANCH  31  37
ATOM     37  C20 OM2 d   1      10.821 -46.061   1.301  0.00  0.00     0.108 C 
ATOM     38  H20 OM2 d   1       9.814 -45.691   1.059  0.00  0.00     0.083 H 
ATOM     39  H21 OM2 d   1      11.107 -45.715   2.305  0.00  0.00     0.083 H 
BRANCH  37  40
ATOM     40  C10 OM2 d   1      11.808 -45.527   0.288  0.00  0.00    -0.013 A 
ATOM     41  C5  OM2 d   1      11.325 -44.998  -0.909  0.00  0.00    -0.071 A 
ATOM     42  C6  OM2 d   1      12.191 -44.520  -1.884  0.00  0.00    -0.047 A 
ATOM     43  H5  OM2 d   1      10.255 -44.959  -1.081  0.00  0.00     0.084 H 
ATOM     44  C11 OM2 d   1      13.554 -44.566  -1.645  0.00  0.00     0.106 A 
ATOM     45  H6  OM2 d   1      11.807 -44.118  -2.815  0.00  0.00     0.087 H 
ATOM     46  C12 OM2 d   1      14.041 -45.071  -0.473  0.00  0.00     0.122 A 
ATOM     47  O28 OM2 d   1      14.568 -44.139  -2.492  0.00  0.00    -0.323 OA
ATOM     48  C8  OM2 d   1      13.190 -45.568   0.520  0.00  0.00     0.085 A 
ATOM     49  O29 OM2 d   1      15.438 -45.011  -0.454  0.00  0.00    -0.322 OA
ATOM     50  C15 OM2 d   1      15.728 -44.246  -1.652  0.00  0.00     0.115 C 
ATOM     51  H7  OM2 d   1      16.056 -43.237  -1.363  0.00  0.00     0.118 H 
ATOM     52  H8  OM2 d   1      16.532 -44.747  -2.212  0.00  0.00     0.118 H 
BRANCH  48  53
ATOM     53  C14 OM2 d   1      13.749 -46.102   1.801  0.00  0.00     0.212 C 
ATOM     54  O25 OM2 d   1      14.789 -45.519   2.248  0.00  0.00    -0.644 OA
ATOM     55  O27 OM2 d   1      13.143 -47.050   2.370  0.00  0.00    -0.644 OA
ENDBRANCH  48  53
ENDBRANCH  37  40
ENDBRANCH  31  37
ENDBRANCH   1  31
TORSDOF 11
