REMARK  10 active torsions:
REMARK  status: ('A' for Active; 'I' for Inactive)
REMARK    1  A    between atoms: C13_11  and  C2_19 
REMARK    2  A    between atoms: C30_12  and  C31_20 
REMARK    3  A    between atoms: C4_23  and  C5_13 
REMARK    4  A    between atoms: C19_24  and  C18_14 
REMARK    5  A    between atoms: C21_25  and  C22_15 
REMARK    6  A    between atoms: C8_18  and  O11_33 
REMARK       I    between atoms: C2_19  and  N3_26 
REMARK    7  A    between atoms: O11_33  and  C12_22 
REMARK    8  A    between atoms: N3_26  and  C4_23 
REMARK    9  A    between atoms: N20_27  and  C19_24 
REMARK   10  A    between atoms: C21_25  and  N20_27 
ROOT
ATOM      1  C15 OM1 d   1     -11.347  35.094   5.846  0.00  0.00    -0.082 A 
ATOM      2  C16 OM1 d   1     -12.443  34.723   5.092  0.00  0.00    -0.082 A 
ATOM      3  C14 OM1 d   1     -10.265  35.727   5.250  0.00  0.00    -0.067 A 
ATOM      4  C17 OM1 d   1     -12.447  34.978   3.731  0.00  0.00    -0.074 A 
ATOM      5  C13 OM1 d   1     -10.276  35.979   3.884  0.00  0.00     0.040 A 
ATOM      6  C18 OM1 d   1     -11.374  35.599   3.129  0.00  0.00    -0.017 A 
ATOM      7  H1  OM1 d   1     -11.332  34.889   6.910  0.00  0.00     0.083 H 
ATOM      8  H2  OM1 d   1     -13.291  34.237   5.561  0.00  0.00     0.083 H 
ATOM      9  H3  OM1 d   1      -9.412  36.024   5.850  0.00  0.00     0.085 H 
ATOM     10  H4  OM1 d   1     -13.303  34.686   3.133  0.00  0.00     0.084 H 
ENDROOT
BRANCH   6  11
ATOM     11  C19 OM1 d   1     -11.457  35.840   1.654  0.00  0.00     0.106 C 
ATOM     12  H18 OM1 d   1     -10.659  36.542   1.369  0.00  0.00     0.083 H 
ATOM     13  H19 OM1 d   1     -12.437  36.286   1.427  0.00  0.00     0.083 H 
BRANCH  11  14
ATOM     14  N20 OM1 d   1     -11.304  34.593   0.847  0.00  0.00    -0.067 N 
ATOM     15  H23 OM1 d   1     -11.572  34.809  -0.101  0.00  0.00     0.277 HD
ATOM     16  H24 OM1 d   1     -11.936  33.906   1.226  0.00  0.00     0.277 HD
BRANCH  14  17
ATOM     17  C21 OM1 d   1      -9.950  33.980   0.802  0.00  0.00     0.106 C 
ATOM     18  H20 OM1 d   1      -9.205  34.738   0.518  0.00  0.00     0.083 H 
ATOM     19  H21 OM1 d   1      -9.694  33.566   1.788  0.00  0.00     0.083 H 
BRANCH  17  20
ATOM     20  C22 OM1 d   1      -9.976  32.882  -0.222  0.00  0.00    -0.013 A 
ATOM     21  C23 OM1 d   1      -9.355  33.161  -1.438  0.00  0.00    -0.071 A 
ATOM     22  C24 OM1 d   1      -9.318  32.230  -2.470  0.00  0.00    -0.047 A 
ATOM     23  H5  OM1 d   1      -8.889  34.129  -1.583  0.00  0.00     0.084 H 
ATOM     24  C25 OM1 d   1      -9.934  31.015  -2.257  0.00  0.00     0.106 A 
ATOM     25  H8  OM1 d   1      -8.823  32.451  -3.408  0.00  0.00     0.087 H 
ATOM     26  C29 OM1 d   1     -10.539  30.724  -1.067  0.00  0.00     0.122 A 
ATOM     27  O26 OM1 d   1     -10.005  29.976  -3.165  0.00  0.00    -0.323 OA
ATOM     28  C30 OM1 d   1     -10.586  31.637  -0.018  0.00  0.00     0.085 A 
ATOM     29  O28 OM1 d   1     -11.075  29.453  -1.091  0.00  0.00    -0.322 OA
ATOM     30  C27 OM1 d   1     -10.535  28.928  -2.331  0.00  0.00     0.115 C 
ATOM     31  H11 OM1 d   1      -9.729  28.217  -2.096  0.00  0.00     0.118 H 
ATOM     32  H12 OM1 d   1     -11.336  28.408  -2.877  0.00  0.00     0.118 H 
BRANCH  28  33
ATOM     33  C31 OM1 d   1     -11.266  31.265   1.265  0.00  0.00     0.212 C 
ATOM     34  O33 OM1 d   1     -11.211  30.047   1.624  0.00  0.00    -0.644 OA
ATOM     35  O32 OM1 d   1     -11.828  32.190   1.919  0.00  0.00    -0.644 OA
ENDBRANCH  28  33
ENDBRANCH  17  20
ENDBRANCH  14  17
ENDBRANCH  11  14
ENDBRANCH   6  11
BRANCH   5  36
ATOM     36  C2  OM1 d   1      -9.102  36.651   3.268  0.00  0.00     0.252 C 
ATOM     37  N3  OM1 d   1      -7.886  36.086   3.580  0.00  0.00    -0.353 N 
ATOM     38  H22 OM1 d   1      -7.869  35.354   4.261  0.00  0.00     0.163 HD
ATOM     39  O1  OM1 d   1      -9.234  37.636   2.542  0.00  0.00    -0.268 OA
BRANCH  37  40
ATOM     40  C4  OM1 d   1      -6.628  36.489   2.980  0.00  0.00     0.019 C 
ATOM     41  H16 OM1 d   1      -6.656  37.563   2.746  0.00  0.00     0.071 H 
ATOM     42  H17 OM1 d   1      -5.802  36.287   3.678  0.00  0.00     0.071 H 
BRANCH  40  43
ATOM     43  C5  OM1 d   1      -6.429  35.702   1.720  0.00  0.00    -0.040 A 
ATOM     44  C6  OM1 d   1      -5.875  34.438   1.768  0.00  0.00    -0.073 A 
ATOM     45  C7  OM1 d   1      -5.695  33.695   0.615  0.00  0.00    -0.050 A 
ATOM     46  H6  OM1 d   1      -5.577  34.022   2.723  0.00  0.00     0.084 H 
ATOM     47  C8  OM1 d   1      -6.078  34.239  -0.597  0.00  0.00     0.068 A 
ATOM     48  H9  OM1 d   1      -5.261  32.703   0.661  0.00  0.00     0.087 H 
ATOM     49  C9  OM1 d   1      -6.625  35.506  -0.654  0.00  0.00    -0.050 A 
ATOM     50  C10 OM1 d   1      -6.799  36.231   0.503  0.00  0.00    -0.073 A 
ATOM     51  H10 OM1 d   1      -6.917  35.929  -1.609  0.00  0.00     0.087 H 
ATOM     52  H7  OM1 d   1      -7.230  37.225   0.456  0.00  0.00     0.084 H 
BRANCH  47  53
ATOM     53  O11 OM1 d   1      -5.953  33.575  -1.808  0.00  0.00    -0.356 OA
BRANCH  53  54
ATOM     54  C12 OM1 d   1      -5.590  32.199  -1.648  0.00  0.00     0.010 C 
ATOM     55  H13 OM1 d   1      -5.505  31.725  -2.637  0.00  0.00     0.066 H 
ATOM     56  H14 OM1 d   1      -6.362  31.682  -1.058  0.00  0.00     0.066 H 
ATOM     57  H15 OM1 d   1      -4.624  32.133  -1.126  0.00  0.00     0.066 H 
ENDBRANCH  53  54
ENDBRANCH  47  53
ENDBRANCH  40  43
ENDBRANCH  37  40
ENDBRANCH   5  36
TORSDOF 10
