REMARK  2 active torsions:
REMARK  status: ('A' for Active; 'I' for Inactive)
REMARK    1  A    between atoms: C15_15  and  C8_8 
REMARK    2  A    between atoms: C9_9  and  C16_16 
ROOT
ATOM      1  C1  ZT2 d   1     -30.951  28.603   0.572  0.00  0.00    -0.082 A 
ATOM      2  C2  ZT2 d   1     -31.239  27.425  -0.116  0.00  0.00    -0.082 A 
ATOM      3  C3  ZT2 d   1     -31.766  29.718   0.489  0.00  0.00    -0.072 A 
ATOM      4  C5  ZT2 d   1     -32.374  27.341  -0.909  0.00  0.00    -0.076 A 
ATOM      5  C7  ZT2 d   1     -32.882  29.607  -0.303  0.00  0.00    -0.016 A 
ATOM      6  C10 ZT2 d   1     -33.183  28.448  -0.987  0.00  0.00    -0.040 A 
ATOM      7  C13 ZT2 d   1     -33.920  30.582  -0.599  0.00  0.00     0.022 A 
ATOM      8  C14 ZT2 d   1     -34.898  29.923  -1.493  0.00  0.00     0.164 A 
ATOM      9  C15 ZT2 d   1     -34.108  31.869  -0.235  0.00  0.00    -0.058 C 
ATOM     10  C17 ZT2 d   1     -34.452  28.530  -1.806  0.00  0.00     0.020 A 
ATOM     11  O20 ZT2 d   1     -35.936  30.430  -1.888  0.00  0.00    -0.292 OA
ATOM     12  H1  ZT2 d   1     -30.062  28.647   1.190  0.00  0.00     0.083 H 
ATOM     13  H2  ZT2 d   1     -30.574  26.573  -0.031  0.00  0.00     0.083 H 
ATOM     14  H3  ZT2 d   1     -31.535  30.633   1.022  0.00  0.00     0.084 H 
ATOM     15  H5  ZT2 d   1     -32.614  26.432  -1.449  0.00  0.00     0.084 H 
ATOM     16  H7  ZT2 d   1     -34.968  32.374  -0.673  0.00  0.00     0.086 H 
ATOM     17  H8  ZT2 d   1     -35.193  27.785  -1.480  0.00  0.00     0.052 H 
ATOM     18  H9  ZT2 d   1     -34.250  28.401  -2.880  0.00  0.00     0.052 H 
ENDROOT
BRANCH   9  19
ATOM     19  C8  ZT2 d   1     -33.276  32.672   0.693  0.00  0.00    -0.015 A 
ATOM     20  C4  ZT2 d   1     -33.148  32.158   1.986  0.00  0.00    -0.069 A 
ATOM     21  C6  ZT2 d   1     -32.409  32.792   2.975  0.00  0.00    -0.047 A 
ATOM     22  H4  ZT2 d   1     -33.646  31.226   2.227  0.00  0.00     0.085 H 
ATOM     23  C11 ZT2 d   1     -31.819  33.979   2.635  0.00  0.00     0.106 A 
ATOM     24  H6  ZT2 d   1     -32.304  32.368   3.967  0.00  0.00     0.087 H 
ATOM     25  C12 ZT2 d   1     -31.930  34.522   1.381  0.00  0.00     0.122 A 
ATOM     26  O22 ZT2 d   1     -31.061  34.741   3.452  0.00  0.00    -0.323 OA
ATOM     27  C9  ZT2 d   1     -32.659  33.889   0.373  0.00  0.00     0.087 A 
ATOM     28  O23 ZT2 d   1     -31.226  35.745   1.288  0.00  0.00    -0.322 OA
ATOM     29  C18 ZT2 d   1     -30.548  35.763   2.558  0.00  0.00     0.115 C 
ATOM     30  H10 ZT2 d   1     -29.475  35.587   2.392  0.00  0.00     0.118 H 
ATOM     31  H11 ZT2 d   1     -30.690  36.749   3.024  0.00  0.00     0.118 H 
BRANCH  27  32
ATOM     32  C16 ZT2 d   1     -32.733  34.538  -0.959  0.00  0.00     0.213 C 
ATOM     33  O19 ZT2 d   1     -31.715  35.134  -1.357  0.00  0.00    -0.644 OA
ATOM     34  O21 ZT2 d   1     -33.801  34.494  -1.611  0.00  0.00    -0.644 OA
ENDBRANCH  27  32
ENDBRANCH   9  19
TORSDOF 2
