REMARK  8 active torsions:
REMARK  status: ('A' for Active; 'I' for Inactive)
REMARK    1  A    between atoms: CAW_2  and  CAA_1 
REMARK    2  A    between atoms: CAM_7  and  CAZ_6 
REMARK    3  A    between atoms: CAU_8  and  CAM_7 
REMARK       I    between atoms: N_10  and  CAU_8 
REMARK    4  A    between atoms: CG_12  and  OD1_13 
REMARK    5  A    between atoms: C_16  and  CA_15 
REMARK       I    between atoms: NAR_18  and  C_16 
REMARK    6  A    between atoms: CAL_19  and  NAR_18 
REMARK    7  A    between atoms: CAX_21  and  CAL_19 
REMARK    8  A    between atoms: CAY_28  and  CBA_29 
ROOT
ATOM      1  CAU TR0 d   1      -6.826  33.785  -1.042  0.00  0.00     0.226 C 
ATOM      2  OAB TR0 d   1      -6.586  34.961  -0.768  0.00  0.00    -0.273 OA
ATOM      3  N   TR0 d   1      -7.267  32.995  -0.031  0.00  0.00    -0.336 N 
ATOM      4  CD2 TR0 d   1      -7.700  31.585  -0.159  0.00  0.00     0.022 C 
ATOM      5  CG  TR0 d   1      -8.529  31.322   1.119  0.00  0.00     0.053 C 
ATOM      6  CB  TR0 d   1      -7.926  32.266   2.141  0.00  0.00    -0.012 C 
ATOM      7  CA  TR0 d   1      -7.482  33.484   1.345  0.00  0.00     0.094 C 
ATOM      8  H   TR0 d   1      -6.855  30.903  -0.247  0.00  0.00     0.068 H 
ATOM      9  H   TR0 d   1      -8.280  31.415  -1.066  0.00  0.00     0.068 H 
ATOM     10  H   TR0 d   1      -8.487  30.269   1.397  0.00  0.00     0.085 H 
ATOM     11  H   TR0 d   1      -7.092  31.806   2.671  0.00  0.00     0.040 H 
ATOM     12  H   TR0 d   1      -8.645  32.532   2.916  0.00  0.00     0.040 H 
ATOM     13  H   TR0 d   1      -8.199  34.305   1.344  0.00  0.00     0.088 H 
ENDROOT
BRANCH   7  14
ATOM     14  C   TR0 d   1      -6.197  33.969   1.963  0.00  0.00     0.241 C 
ATOM     15  O   TR0 d   1      -5.133  33.421   1.699  0.00  0.00    -0.271 OA
ATOM     16  NAR TR0 d   1      -6.306  34.972   2.843  0.00  0.00    -0.355 N 
ATOM     17  H   TR0 d   1      -7.219  35.377   3.048  0.00  0.00     0.162 HD
BRANCH  16  18
ATOM     18  CAL TR0 d   1      -5.097  35.489   3.516  0.00  0.00     0.019 C 
ATOM     19  H   TR0 d   1      -5.243  36.535   3.786  0.00  0.00     0.071 H 
ATOM     20  H   TR0 d   1      -4.241  35.416   2.845  0.00  0.00     0.071 H 
BRANCH  18  21
ATOM     21  CAX TR0 d   1      -4.842  34.662   4.771  0.00  0.00    -0.040 A 
ATOM     22  CAF TR0 d   1      -3.573  34.679   5.359  0.00  0.00    -0.074 A 
ATOM     23  CAH TR0 d   1      -3.327  33.948   6.521  0.00  0.00    -0.072 A 
ATOM     24  H   TR0 d   1      -2.773  35.266   4.907  0.00  0.00     0.084 H 
ATOM     25  CAY TR0 d   1      -4.345  33.185   7.109  0.00  0.00    -0.026 A 
ATOM     26  H   TR0 d   1      -2.336  33.970   6.975  0.00  0.00     0.084 H 
ATOM     27  CAG TR0 d   1      -5.616  33.176   6.511  0.00  0.00    -0.072 A 
ATOM     28  CAE TR0 d   1      -5.877  33.906   5.348  0.00  0.00    -0.074 A 
ATOM     29  H   TR0 d   1      -6.415  32.588   6.963  0.00  0.00     0.084 H 
ATOM     30  H   TR0 d   1      -6.868  33.889   4.895  0.00  0.00     0.084 H 
BRANCH  25  31
ATOM     31  CBA TR0 d   1      -4.091  32.437   8.276  0.00  0.00    -0.026 A 
ATOM     32  CA2 TR0 d   1      -3.159  32.869   9.231  0.00  0.00    -0.072 A 
ATOM     33  CA1 TR0 d   1      -2.891  32.124  10.397  0.00  0.00    -0.082 A 
ATOM     34  H   TR0 d   1      -2.627  33.806   9.067  0.00  0.00     0.084 H 
ATOM     35  CAI TR0 d   1      -3.571  30.930  10.634  0.00  0.00    -0.083 A 
ATOM     36  H   TR0 d   1      -2.152  32.481  11.114  0.00  0.00     0.083 H 
ATOM     37  CA0 TR0 d   1      -4.496  30.478   9.689  0.00  0.00    -0.082 A 
ATOM     38  H   TR0 d   1      -3.384  30.358  11.543  0.00  0.00     0.083 H 
ATOM     39  CAJ TR0 d   1      -4.749  31.219   8.523  0.00  0.00    -0.072 A 
ATOM     40  H   TR0 d   1      -5.026  29.541   9.858  0.00  0.00     0.083 H 
ATOM     41  H   TR0 d   1      -5.469  30.843   7.796  0.00  0.00     0.084 H 
ENDBRANCH  25  31
ENDBRANCH  18  21
ENDBRANCH  16  18
ENDBRANCH   7  14
BRANCH   1  42
ATOM     42  CAM TR0 d   1      -6.705  33.355  -2.519  0.00  0.00     0.056 C 
ATOM     43  H   TR0 d   1      -5.735  33.613  -2.943  0.00  0.00     0.057 H 
ATOM     44  H   TR0 d   1      -6.772  32.274  -2.638  0.00  0.00     0.057 H 
BRANCH  42  45
ATOM     45  CAZ TR0 d   1      -7.862  34.090  -3.227  0.00  0.00     0.089 A 
ATOM     46  CAK TR0 d   1      -7.899  35.219  -3.937  0.00  0.00    -0.026 A 
ATOM     47  CAW TR0 d   1      -9.173  35.430  -4.307  0.00  0.00     0.060 A 
ATOM     48  H   TR0 d   1      -7.047  35.856  -4.175  0.00  0.00     0.090 H 
ATOM     49  NAQ TR0 d   1      -9.984  34.492  -3.843  0.00  0.00    -0.133 NA
ATOM     50  OAT TR0 d   1      -9.141  33.630  -3.129  0.00  0.00    -0.217 OA
BRANCH  47  51
ATOM     51  CAA TR0 d   1      -9.699  36.589  -5.142  0.00  0.00    -0.033 C 
ATOM     52  H   TR0 d   1     -10.174  36.200  -6.043  0.00  0.00     0.035 H 
ATOM     53  H   TR0 d   1     -10.428  37.153  -4.560  0.00  0.00     0.035 H 
ATOM     54  H   TR0 d   1      -8.870  37.241  -5.419  0.00  0.00     0.035 H 
ENDBRANCH  47  51
ENDBRANCH  42  45
ENDBRANCH   1  42
BRANCH   5  55
ATOM     55  OD1 TR0 d   1      -9.932  31.613   0.960  0.00  0.00    -0.394 OA
ATOM     56  H   TR0 d   1     -10.391  31.431   1.783  0.00  0.00     0.210 HD
ENDBRANCH   5  55
TORSDOF 8
