REMARK  10 active torsions:
REMARK  status: ('A' for Active; 'I' for Inactive)
REMARK    1  A    between atoms: CAA_1  and  CAW_2 
REMARK    2  A    between atoms: CAZ_6  and  CAM_7 
REMARK    3  A    between atoms: CAM_7  and  CAU_8 
REMARK       I    between atoms: CAU_8  and  N_10 
REMARK    4  A    between atoms: CG_12  and  OD1_13 
REMARK    5  A    between atoms: CA_15  and  C_16 
REMARK       I    between atoms: C_16  and  NAR_18 
REMARK    6  A    between atoms: NAR_18  and  CAL_19 
REMARK    7  A    between atoms: CAL_19  and  CAX_20 
REMARK    8  A    between atoms: CAY_25  and  CBA_26 
REMARK    9  A    between atoms: CBA_26  and  OAS_29 
REMARK   10  A    between atoms: OAS_29  and  CAI_27 
ROOT
ATOM      1  CAU ZTD d   1     -54.120  13.270   0.896  0.00  0.00     0.226 C 
ATOM      2  OAB ZTD d   1     -53.975  12.093   0.589  0.00  0.00    -0.273 OA
ATOM      3  N   ZTD d   1     -54.450  14.108  -0.121  0.00  0.00    -0.336 N 
ATOM      4  CD2 ZTD d   1     -54.870  15.503   0.014  0.00  0.00     0.022 C 
ATOM      5  CG  ZTD d   1     -55.826  15.699  -1.183  0.00  0.00     0.053 C 
ATOM      6  CB  ZTD d   1     -55.098  14.920  -2.262  0.00  0.00    -0.012 C 
ATOM      7  CA  ZTD d   1     -54.693  13.672  -1.506  0.00  0.00     0.094 C 
ATOM      8  H   ZTD d   1     -54.031  16.199   0.001  0.00  0.00     0.068 H 
ATOM      9  H   ZTD d   1     -55.347  15.708   0.972  0.00  0.00     0.068 H 
ATOM     10  H   ZTD d   1     -56.019  16.744  -1.424  0.00  0.00     0.085 H 
ATOM     11  H   ZTD d   1     -54.258  15.459  -2.700  0.00  0.00     0.040 H 
ATOM     12  H   ZTD d   1     -55.707  14.720  -3.144  0.00  0.00     0.040 H 
ATOM     13  H   ZTD d   1     -55.468  12.908  -1.574  0.00  0.00     0.088 H 
ENDROOT
BRANCH   7  14
ATOM     14  C   ZTD d   1     -53.432  13.076  -2.073  0.00  0.00     0.241 C 
ATOM     15  O   ZTD d   1     -52.356  13.600  -1.787  0.00  0.00    -0.271 OA
ATOM     16  NAR ZTD d   1     -53.601  11.966  -2.820  0.00  0.00    -0.355 N 
ATOM     17  H   ZTD d   1     -54.555  11.656  -3.005  0.00  0.00     0.162 HD
BRANCH  16  18
ATOM     18  CAL ZTD d   1     -52.489  11.166  -3.391  0.00  0.00     0.019 C 
ATOM     19  H   ZTD d   1     -52.872  10.167  -3.598  0.00  0.00     0.071 H 
ATOM     20  H   ZTD d   1     -51.673  11.171  -2.668  0.00  0.00     0.071 H 
BRANCH  18  21
ATOM     21  CAX ZTD d   1     -51.952  11.735  -4.699  0.00  0.00    -0.040 A 
ATOM     22  CAE ZTD d   1     -52.770  12.508  -5.543  0.00  0.00    -0.074 A 
ATOM     23  CAG ZTD d   1     -52.228  13.017  -6.738  0.00  0.00    -0.067 A 
ATOM     24  H   ZTD d   1     -53.807  12.710  -5.276  0.00  0.00     0.084 H 
ATOM     25  CAY ZTD d   1     -50.895  12.757  -7.102  0.00  0.00     0.039 A 
ATOM     26  H   ZTD d   1     -52.853  13.624  -7.393  0.00  0.00     0.085 H 
ATOM     27  CAH ZTD d   1     -50.081  12.000  -6.256  0.00  0.00    -0.067 A 
ATOM     28  CAF ZTD d   1     -50.617  11.485  -5.065  0.00  0.00    -0.074 A 
ATOM     29  H   ZTD d   1     -49.040  11.811  -6.518  0.00  0.00     0.085 H 
ATOM     30  H   ZTD d   1     -49.987  10.880  -4.412  0.00  0.00     0.084 H 
BRANCH  25  31
ATOM     31  CBA ZTD d   1     -50.334  13.333  -8.410  0.00  0.00     0.292 C 
ATOM     32  OAD ZTD d   1     -50.967  14.233  -8.978  0.00  0.00    -0.259 OA
BRANCH  31  33
ATOM     33  OAS ZTD d   1     -49.073  12.908  -8.828  0.00  0.00    -0.323 OA
BRANCH  33  34
ATOM     34  CAI ZTD d   1     -48.640  12.777 -10.208  0.00  0.00     0.013 C 
ATOM     35  H   ZTD d   1     -49.281  12.061 -10.722  0.00  0.00     0.067 H 
ATOM     36  H   ZTD d   1     -48.706  13.746 -10.702  0.00  0.00     0.067 H 
ATOM     37  H   ZTD d   1     -47.608  12.425 -10.232  0.00  0.00     0.067 H 
ENDBRANCH  33  34
ENDBRANCH  31  33
ENDBRANCH  25  31
ENDBRANCH  18  21
ENDBRANCH  16  18
ENDBRANCH   7  14
BRANCH   1  38
ATOM     38  CAM ZTD d   1     -53.974  13.639   2.424  0.00  0.00     0.056 C 
ATOM     39  H   ZTD d   1     -53.014  13.295   2.810  0.00  0.00     0.057 H 
ATOM     40  H   ZTD d   1     -54.012  14.720   2.562  0.00  0.00     0.057 H 
BRANCH  38  41
ATOM     41  CAZ ZTD d   1     -55.154  12.946   3.188  0.00  0.00     0.089 A 
ATOM     42  CAK ZTD d   1     -55.110  11.972   4.089  0.00  0.00    -0.026 A 
ATOM     43  CAW ZTD d   1     -56.372  11.695   4.441  0.00  0.00     0.060 A 
ATOM     44  H   ZTD d   1     -54.212  11.487   4.472  0.00  0.00     0.090 H 
ATOM     45  NAQ ZTD d   1     -57.264  12.456   3.798  0.00  0.00    -0.133 NA
ATOM     46  OAT ZTD d   1     -56.507  13.252   2.982  0.00  0.00    -0.217 OA
BRANCH  43  47
ATOM     47  CAA ZTD d   1     -56.756  10.635   5.482  0.00  0.00    -0.033 C 
ATOM     48  H   ZTD d   1     -57.286  11.112   6.306  0.00  0.00     0.035 H 
ATOM     49  H   ZTD d   1     -57.401   9.889   5.018  0.00  0.00     0.035 H 
ATOM     50  H   ZTD d   1     -55.853  10.154   5.859  0.00  0.00     0.035 H 
ENDBRANCH  43  47
ENDBRANCH  38  41
ENDBRANCH   1  38
BRANCH   5  51
ATOM     51  OD1 ZTD d   1     -57.153  15.154  -0.935  0.00  0.00    -0.394 OA
ATOM     52  H   ZTD d   1     -57.707  15.300  -1.705  0.00  0.00     0.210 HD
ENDBRANCH   5  51
TORSDOF 10
