REMARK  6 active torsions:
REMARK  status: ('A' for Active; 'I' for Inactive)
REMARK    1  A    between atoms: C2_2  and  NAN_17 
REMARK    2  A    between atoms: NAE_11  and  CAF_12 
REMARK    3  A    between atoms: NAN_17  and  CAO_18 
REMARK    4  A    between atoms: CAR_21  and  NAS_22 
REMARK    5  A    between atoms: CAV_25  and  OAW_26 
REMARK    6  A    between atoms: NBG_31  and  CBH_32 
ROOT
ATOM      1  N1  ZTX d   1      12.352   3.006   5.946  0.00  0.00    -0.073 NA
ATOM      2  C2  ZTX d   1      12.097   1.852   5.271  0.00  0.00     0.728 A 
ATOM      3  N3  ZTX d   1      10.865   1.583   4.775  0.00  0.00    -0.042 NA
ATOM      4  C4  ZTX d   1       9.863   2.453   4.912  0.00  0.00     0.177 A 
ATOM      5  C5  ZTX d   1      10.104   3.633   5.618  0.00  0.00     0.102 A 
ATOM      6  C6  ZTX d   1      11.378   3.890   6.141  0.00  0.00     0.051 A 
ATOM      7  OAA ZTX d   1       7.105   5.312   6.328  0.00  0.00    -0.267 OA
ATOM      8  CAB ZTX d   1       7.856   4.348   6.111  0.00  0.00     0.260 C 
ATOM      9  CAC ZTX d   1       7.229   2.941   6.105  0.00  0.00     0.059 A 
ATOM     10  CAD ZTX d   1       7.637   1.896   5.262  0.00  0.00     0.051 A 
ATOM     11  NAE ZTX d   1       8.693   1.996   4.404  0.00  0.00    -0.333 N 
ATOM     12  CAH ZTX d   1       5.937   0.445   6.240  0.00  0.00    -0.081 A 
ATOM     13  CAI ZTX d   1       5.521   1.487   7.077  0.00  0.00    -0.082 A 
ATOM     14  CAK ZTX d   1       6.155   2.756   7.008  0.00  0.00    -0.065 A 
ATOM     15  CAL ZTX d   1       6.993   0.634   5.336  0.00  0.00    -0.056 A 
ATOM     16  NBG ZTX d   1       9.189   4.586   5.868  0.00  0.00    -0.314 N 
ATOM     17  H1  ZTX d   1      11.568   4.800   6.699  0.00  0.00     0.119 H 
ATOM     18  H5  ZTX d   1       5.439  -0.516   6.291  0.00  0.00     0.083 H 
ATOM     19  H6  ZTX d   1       4.712   1.325   7.780  0.00  0.00     0.083 H 
ATOM     20  H7  ZTX d   1       5.821   3.572   7.638  0.00  0.00     0.085 H 
ATOM     21  H8  ZTX d   1       7.315  -0.180   4.697  0.00  0.00     0.087 H 
ENDROOT
BRANCH   2  22
ATOM     22  NAN ZTX d   1      13.072   0.950   5.133  0.00  0.00    -0.188 N 
ATOM     23  H9  ZTX d   1      13.869   1.097   5.769  0.00  0.00     0.184 HD
BRANCH  22  24
ATOM     24  CAO ZTX d   1      13.209  -0.099   4.333  0.00  0.00     0.049 A 
ATOM     25  CAP ZTX d   1      12.244  -0.745   3.537  0.00  0.00    -0.054 A 
ATOM     26  CAQ ZTX d   1      12.623  -1.842   2.753  0.00  0.00    -0.055 A 
ATOM     27  H10 ZTX d   1      11.217  -0.397   3.531  0.00  0.00     0.087 H 
ATOM     28  CAR ZTX d   1      13.965  -2.283   2.804  0.00  0.00     0.030 A 
ATOM     29  H11 ZTX d   1      11.901  -2.343   2.119  0.00  0.00     0.087 H 
ATOM     30  CAZ ZTX d   1      14.893  -1.642   3.598  0.00  0.00    -0.055 A 
ATOM     31  CBA ZTX d   1      14.505  -0.560   4.346  0.00  0.00    -0.054 A 
ATOM     32  H22 ZTX d   1      15.919  -1.990   3.631  0.00  0.00     0.087 H 
ATOM     33  H23 ZTX d   1      15.239  -0.055   4.964  0.00  0.00     0.087 H 
BRANCH  28  34
ATOM     34  NAS ZTX d   1      14.512  -3.354   2.086  0.00  0.00    -0.381 N 
ATOM     35  CAT ZTX d   1      14.970  -4.599   2.800  0.00  0.00    -0.003 C 
ATOM     36  CAU ZTX d   1      14.662  -5.849   1.952  0.00  0.00    -0.026 C 
ATOM     37  H12 ZTX d   1      14.446  -4.677   3.764  0.00  0.00     0.064 H 
ATOM     38  H13 ZTX d   1      16.054  -4.538   2.975  0.00  0.00     0.064 H 
ATOM     39  CAV ZTX d   1      14.994  -5.652   0.448  0.00  0.00     0.038 C 
ATOM     40  H14 ZTX d   1      13.592  -6.084   2.048  0.00  0.00     0.039 H 
ATOM     41  H15 ZTX d   1      15.258  -6.690   2.336  0.00  0.00     0.039 H 
ATOM     42  CAX ZTX d   1      14.321  -4.389  -0.124  0.00  0.00    -0.026 C 
ATOM     43  H16 ZTX d   1      16.084  -5.564   0.332  0.00  0.00     0.083 H 
ATOM     44  CAY ZTX d   1      14.791  -3.154   0.641  0.00  0.00    -0.003 C 
ATOM     45  H18 ZTX d   1      13.229  -4.483  -0.028  0.00  0.00     0.039 H 
ATOM     46  H19 ZTX d   1      14.588  -4.283  -1.186  0.00  0.00     0.039 H 
ATOM     47  H20 ZTX d   1      15.871  -3.013   0.489  0.00  0.00     0.064 H 
ATOM     48  H21 ZTX d   1      14.251  -2.267   0.279  0.00  0.00     0.064 H 
BRANCH  39  49
ATOM     49  OAW ZTX d   1      14.521  -6.777  -0.294  0.00  0.00    -0.395 OA
ATOM     50  H17 ZTX d   1      14.724  -6.656  -1.214  0.00  0.00     0.210 HD
ENDBRANCH  39  49
ENDBRANCH  28  34
ENDBRANCH  22  24
ENDBRANCH   2  22
BRANCH  11  51
ATOM     51  CAF ZTX d   1       8.605   1.448   3.032  0.00  0.00    -0.012 C 
ATOM     52  H2  ZTX d   1       9.553   1.628   2.504  0.00  0.00     0.057 H 
ATOM     53  H3  ZTX d   1       7.784   1.942   2.492  0.00  0.00     0.057 H 
ATOM     54  H4  ZTX d   1       8.412   0.366   3.081  0.00  0.00     0.057 H 
ENDBRANCH  11  51
BRANCH  16  55
ATOM     55  CBH ZTX d   1       9.666   5.987   5.902  0.00  0.00    -0.011 C 
ATOM     56  H24 ZTX d   1      10.745   6.012   5.690  0.00  0.00     0.057 H 
ATOM     57  H25 ZTX d   1       9.478   6.414   6.898  0.00  0.00     0.057 H 
ATOM     58  H26 ZTX d   1       9.129   6.576   5.143  0.00  0.00     0.057 H 
ENDBRANCH  16  55
TORSDOF 6
