REMARK  17 active torsions:
REMARK  status: ('A' for Active; 'I' for Inactive)
REMARK    1  A    between atoms: C1_1  and  O1_2 
REMARK    2  A    between atoms: O1_2  and  P_12 
REMARK    3  A    between atoms: C2_3  and  O2_4 
REMARK    4  A    between atoms: C3_5  and  O3_6 
REMARK    5  A    between atoms: C4_7  and  O4_8 
REMARK    6  A    between atoms: C5_9  and  C6_11 
REMARK    7  A    between atoms: P_12  and  N_15 
REMARK    8  A    between atoms: N_15  and  CA_16 
REMARK    9  A    between atoms: CA_16  and  C_17 
REMARK   10  A    between atoms: CA_16  and  CB_19 
REMARK       I    between atoms: C_17  and  N1_23 
REMARK   11  A    between atoms: CB_19  and  CG_20 
REMARK   12  A    between atoms: CG_20  and  CD1_21 
REMARK   13  A    between atoms: CG_20  and  CD2_22 
REMARK   14  A    between atoms: N1_23  and  CA1_24 
REMARK   15  A    between atoms: CA1_24  and  C7_25 
REMARK   16  A    between atoms: CA1_24  and  CB1_27 
REMARK   17  A    between atoms: CB1_27  and  CG1_28 
ROOT
ATOM      1  CA  RDF d   1      59.589  68.931   6.496  0.00  0.00     0.093 C 
ATOM      2  H   RDF d   1      60.457  68.903   5.837  0.00  0.00     0.087 H 
ENDROOT
BRANCH   1   3
ATOM      3  N   RDF d   1      59.090  67.560   6.494  0.00  0.00    -0.312 N 
ATOM      4  H   RDF d   1      58.156  67.319   6.825  0.00  0.00     0.166 HD
BRANCH   3   5
ATOM      5  P   RDF d   1      60.156  66.414   5.912  0.00  0.00     0.362 P 
ATOM      6  O1P RDF d   1      61.410  66.832   6.708  0.00  0.00    -0.630 OA
ATOM      7  O2P RDF d   1      60.324  66.112   4.390  0.00  0.00    -0.630 OA
BRANCH   5   8
ATOM      8  O1  RDF d   1      59.785  65.101   6.746  0.00  0.00    -0.261 OA
BRANCH   8   9
ATOM      9  C1  RDF d   1      59.328  65.153   8.087  0.00  0.00     0.170 C 
ATOM     10  C2  RDF d   1      58.094  64.298   8.247  0.00  0.00     0.110 C 
ATOM     11  C3  RDF d   1      58.402  62.857   8.080  0.00  0.00     0.092 C 
ATOM     12  H   RDF d   1      57.325  64.490   7.499  0.00  0.00     0.094 H 
ATOM     13  C4  RDF d   1      59.546  62.445   8.831  0.00  0.00     0.087 C 
ATOM     14  H   RDF d   1      58.628  62.674   7.029  0.00  0.00     0.091 H 
ATOM     15  C5  RDF d   1      60.740  63.309   8.553  0.00  0.00     0.065 C 
ATOM     16  H   RDF d   1      59.249  62.554   9.874  0.00  0.00     0.091 H 
ATOM     17  O5  RDF d   1      60.342  64.688   8.911  0.00  0.00    -0.350 OA
ATOM     18  H   RDF d   1      61.026  63.206   7.506  0.00  0.00     0.086 H 
ATOM     19  H   RDF d   1      59.070  66.177   8.355  0.00  0.00     0.134 H 
BRANCH  10  20
ATOM     20  O2  RDF d   1      57.683  64.610   9.551  0.00  0.00    -0.388 OA
ATOM     21  H   RDF d   1      58.381  64.380  10.169  0.00  0.00     0.210 HD
ENDBRANCH  10  20
BRANCH  11  22
ATOM     22  O3  RDF d   1      57.250  62.108   8.529  0.00  0.00    -0.390 OA
ATOM     23  H   RDF d   1      57.079  62.309   9.452  0.00  0.00     0.210 HD
ENDBRANCH  11  22
BRANCH  13  24
ATOM     24  O4  RDF d   1      59.909  61.065   8.603  0.00  0.00    -0.390 OA
ATOM     25  H   RDF d   1      59.177  60.497   8.854  0.00  0.00     0.210 HD
ENDBRANCH  13  24
BRANCH  15  26
ATOM     26  C6  RDF d   1      61.912  62.927   9.339  0.00  0.00    -0.050 C 
ATOM     27  H   RDF d   1      62.732  63.612   9.123  0.00  0.00     0.031 H 
ATOM     28  H   RDF d   1      61.667  62.974  10.400  0.00  0.00     0.031 H 
ATOM     29  H   RDF d   1      62.208  61.911   9.078  0.00  0.00     0.031 H 
ENDBRANCH  15  26
ENDBRANCH   8   9
ENDBRANCH   5   8
ENDBRANCH   3   5
ENDBRANCH   1   3
BRANCH   1  30
ATOM     30  C   RDF d   1      60.036  69.431   7.871  0.00  0.00     0.241 C 
ATOM     31  O   RDF d   1      61.047  70.093   8.047  0.00  0.00    -0.271 OA
ATOM     32  N1  RDF d   1      59.162  69.120   8.992  0.00  0.00    -0.344 N 
ATOM     33  H   RDF d   1      58.321  68.569   8.821  0.00  0.00     0.163 HD
BRANCH  32  34
ATOM     34  CA1 RDF d   1      59.452  69.579  10.389  0.00  0.00     0.100 C 
ATOM     35  H   RDF d   1      60.506  69.805  10.552  0.00  0.00     0.090 H 
BRANCH  34  36
ATOM     36  C7  RDF d   1      59.025  68.410  11.285  0.00  0.00     0.197 C 
ATOM     37  O6  RDF d   1      58.374  67.438  10.780  0.00  0.00    -0.646 OA
ATOM     38  OXT RDF d   1      59.284  68.378  12.491  0.00  0.00    -0.646 OA
ENDBRANCH  34  36
BRANCH  34  39
ATOM     39  CB1 RDF d   1      58.779  70.904  10.702  0.00  0.00    -0.011 C 
ATOM     40  H   RDF d   1      58.556  71.350   9.733  0.00  0.00     0.044 H 
ATOM     41  H   RDF d   1      59.469  71.428  11.363  0.00  0.00     0.044 H 
BRANCH  39  42
ATOM     42  CG1 RDF d   1      57.453  70.877  11.446  0.00  0.00    -0.028 A 
ATOM     43  CD1 RDF d   1      56.267  70.508  10.857  0.00  0.00    -0.015 A 
ATOM     44  NE1 RDF d   1      55.248  70.588  11.849  0.00  0.00    -0.365 N 
ATOM     45  H   RDF d   1      56.131  70.208   9.818  0.00  0.00     0.112 H 
ATOM     46  CE2 RDF d   1      55.912  71.020  13.034  0.00  0.00     0.042 A 
ATOM     47  H   RDF d   1      54.256  70.381  11.736  0.00  0.00     0.165 HD
ATOM     48  CD2 RDF d   1      57.260  71.188  12.761  0.00  0.00    -0.002 A 
ATOM     49  CZ2 RDF d   1      55.412  71.297  14.332  0.00  0.00    -0.056 A 
ATOM     50  CE3 RDF d   1      58.119  71.624  13.812  0.00  0.00    -0.070 A 
ATOM     51  CZ3 RDF d   1      57.621  71.889  15.090  0.00  0.00    -0.082 A 
ATOM     52  H   RDF d   1      59.183  71.753  13.615  0.00  0.00     0.084 H 
ATOM     53  CH2 RDF d   1      56.257  71.724  15.359  0.00  0.00    -0.081 A 
ATOM     54  H   RDF d   1      58.295  72.225  15.878  0.00  0.00     0.083 H 
ATOM     55  H   RDF d   1      55.861  71.926  16.354  0.00  0.00     0.083 H 
ATOM     56  H   RDF d   1      54.348  71.174  14.532  0.00  0.00     0.086 H 
ENDBRANCH  39  42
ENDBRANCH  34  39
ENDBRANCH  32  34
ENDBRANCH   1  30
BRANCH   1  57
ATOM     57  CB  RDF d   1      58.508  69.921   5.982  0.00  0.00    -0.035 C 
ATOM     58  H   RDF d   1      57.636  69.797   6.625  0.00  0.00     0.037 H 
ATOM     59  H   RDF d   1      58.341  69.687   4.931  0.00  0.00     0.037 H 
BRANCH  57  60
ATOM     60  CG  RDF d   1      58.915  71.451   6.052  0.00  0.00    -0.059 C 
ATOM     61  H   RDF d   1      59.174  71.534   7.107  0.00  0.00     0.038 H 
BRANCH  60  62
ATOM     62  CD1 RDF d   1      57.779  72.493   5.927  0.00  0.00    -0.073 C 
ATOM     63  H   RDF d   1      57.278  72.369   4.967  0.00  0.00     0.028 H 
ATOM     64  H   RDF d   1      57.062  72.345   6.734  0.00  0.00     0.028 H 
ATOM     65  H   RDF d   1      58.200  73.496   5.992  0.00  0.00     0.028 H 
ENDBRANCH  60  62
BRANCH  60  66
ATOM     66  CD2 RDF d   1      60.208  71.825   5.317  0.00  0.00    -0.073 C 
ATOM     67  H   RDF d   1      61.041  71.265   5.742  0.00  0.00     0.028 H 
ATOM     68  H   RDF d   1      60.107  71.581   4.259  0.00  0.00     0.028 H 
ATOM     69  H   RDF d   1      60.392  72.894   5.429  0.00  0.00     0.028 H 
ENDBRANCH  60  66
ENDBRANCH  57  60
ENDBRANCH   1  57
TORSDOF 17
