REMARK  6 active torsions:
REMARK  status: ('A' for Active; 'I' for Inactive)
REMARK    1  A    between atoms: C3_2  and  N4_3 
REMARK       I    between atoms: N4_3  and  C5_5 
REMARK    2  A    between atoms: C5_5  and  C7_6 
REMARK    3  A    between atoms: C14_7  and  O15_8 
REMARK    4  A    between atoms: O15_8  and  C15_9 
REMARK    5  A    between atoms: C8_13  and  O9_14 
REMARK    6  A    between atoms: O9_14  and  C10_15 
ROOT
ATOM      1  C7  B07 d   1      -1.993  -0.917  37.221  0.00  0.00     0.098 A 
ATOM      2  C14 B07 d   1      -1.438  -0.988  35.961  0.00  0.00     0.086 A 
ATOM      3  C13 B07 d   1      -1.333   0.148  35.166  0.00  0.00    -0.050 A 
ATOM      4  C12 B07 d   1      -1.788   1.371  35.640  0.00  0.00    -0.078 A 
ATOM      5  C11 B07 d   1      -2.349   1.450  36.909  0.00  0.00    -0.050 A 
ATOM      6  C8  B07 d   1      -2.462   0.308  37.700  0.00  0.00     0.086 A 
ATOM      7  H   B07 d   1      -0.894   0.078  34.171  0.00  0.00     0.087 H 
ATOM      8  H   B07 d   1      -1.706   2.264  35.020  0.00  0.00     0.083 H 
ATOM      9  H   B07 d   1      -2.702   2.409  37.287  0.00  0.00     0.087 H 
ENDROOT
BRANCH   1  10
ATOM     10  C5  B07 d   1      -2.089  -2.209  37.996  0.00  0.00     0.256 C 
ATOM     11  N4  B07 d   1      -1.122  -2.594  38.823  0.00  0.00    -0.367 N 
ATOM     12  H   B07 d   1      -0.313  -1.980  38.919  0.00  0.00     0.161 HD
ATOM     13  O6  B07 d   1      -3.071  -2.922  37.831  0.00  0.00    -0.267 OA
BRANCH  11  14
ATOM     14  C3  B07 d   1      -1.128  -3.831  39.606  0.00  0.00    -0.045 C 
ATOM     15  B   B07 d   1       0.266  -4.622  39.451  0.00  0.00     0.110 B 
ATOM     16  H   B07 d   1      -1.271  -3.578  40.657  0.00  0.00     0.045 H 
ATOM     17  H   B07 d   1      -1.933  -4.470  39.243  0.00  0.00     0.045 H 
ENDBRANCH  11  14
ENDBRANCH   1  10
BRANCH   2  18
ATOM     18  O15 B07 d   1      -0.997  -2.205  35.522  0.00  0.00    -0.355 OA
BRANCH  18  19
ATOM     19  C15 B07 d   1      -0.353  -2.334  34.253  0.00  0.00     0.010 C 
ATOM     20  H   B07 d   1      -1.034  -2.009  33.467  0.00  0.00     0.066 H 
ATOM     21  H   B07 d   1       0.544  -1.715  34.238  0.00  0.00     0.066 H 
ATOM     22  H   B07 d   1      -0.079  -3.377  34.090  0.00  0.00     0.066 H 
ENDBRANCH  18  19
ENDBRANCH   2  18
BRANCH   6  23
ATOM     23  O9  B07 d   1      -3.011   0.427  38.953  0.00  0.00    -0.355 OA
BRANCH  23  24
ATOM     24  C10 B07 d   1      -4.358   0.857  39.145  0.00  0.00     0.010 C 
ATOM     25  H   B07 d   1      -4.483   1.855  38.725  0.00  0.00     0.066 H 
ATOM     26  H   B07 d   1      -5.034   0.164  38.644  0.00  0.00     0.066 H 
ATOM     27  H   B07 d   1      -4.582   0.879  40.211  0.00  0.00     0.066 H 
ENDBRANCH  23  24
ENDBRANCH   6  23
TORSDOF 6
