REMARK  3 active torsions:
REMARK  status: ('A' for Active; 'I' for Inactive)
REMARK    1  A    between atoms: C1_1  and  C2_2 
REMARK    2  A    between atoms: C4_4  and  C5_5 
REMARK    3  A    between atoms: C8_8  and  N9_9 
ROOT
ATOM      1  C2  XAZ d   1      43.935  13.085  30.297  0.00  0.00     0.035 A 
ATOM      2  C3  XAZ d   1      44.381  12.282  29.216  0.00  0.00    -0.036 A 
ATOM      3  C4  XAZ d   1      45.693  12.312  28.816  0.00  0.00     0.036 A 
ATOM      4  N6  XAZ d   1      46.653  13.073  29.372  0.00  0.00    -0.218 N 
ATOM      5  N7  XAZ d   1      48.040  13.285  29.146  0.00  0.00    -0.148 NA
ATOM      6  C8  XAZ d   1      48.521  14.127  29.987  0.00  0.00     0.145 A 
ATOM      7  C10 XAZ d   1      47.470  14.559  30.869  0.00  0.00     0.009 A 
ATOM      8  C11 XAZ d   1      46.301  13.918  30.485  0.00  0.00     0.154 A 
ATOM      9  N12 XAZ d   1      44.925  13.883  30.904  0.00  0.00    -0.234 NA
ATOM     10  H4  XAZ d   1      43.675  11.635  28.698  0.00  0.00     0.089 H 
ATOM     11  H10 XAZ d   1      47.574  15.264  31.692  0.00  0.00     0.095 H 
ENDROOT
BRANCH   1  12
ATOM     12  C1  XAZ d   1      42.425  13.013  30.700  0.00  0.00    -0.035 C 
ATOM     13  H1  XAZ d   1      41.904  12.302  30.043  0.00  0.00     0.035 H 
ATOM     14  H2  XAZ d   1      41.970  14.009  30.597  0.00  0.00     0.035 H 
ATOM     15  H3  XAZ d   1      42.340  12.678  31.744  0.00  0.00     0.035 H 
ENDBRANCH   1  12
BRANCH   3  16
ATOM     16  C5  XAZ d   1      46.045  11.464  27.751  0.00  0.00    -0.035 C 
ATOM     17  H5  XAZ d   1      45.155  10.914  27.411  0.00  0.00     0.035 H 
ATOM     18  H6  XAZ d   1      46.810  10.750  28.088  0.00  0.00     0.035 H 
ATOM     19  H7  XAZ d   1      46.445  12.065  26.921  0.00  0.00     0.035 H 
ENDBRANCH   3  16
BRANCH   6  20
ATOM     20  N9  XAZ d   1      49.895  14.471  29.945  0.00  0.00    -0.383 N 
ATOM     21  H8  XAZ d   1      50.278  15.147  30.621  0.00  0.00     0.157 HD
ATOM     22  H9  XAZ d   1      50.511  14.045  29.238  0.00  0.00     0.157 HD
ENDBRANCH   6  20
TORSDOF 3
