REMARK  3 active torsions:
REMARK  status: ('A' for Active; 'I' for Inactive)
REMARK       I    between atoms: C5_2  and  N4_3 
REMARK    1  A    between atoms: C5_2  and  C7_6 
REMARK    2  A    between atoms: N4_3  and  C3_4 
REMARK    3  A    between atoms: C7_6  and  CG_7 
ROOT
ATOM      1  CG  FP5 d   1      62.928  21.733  32.676  0.00  0.00    -0.050 A 
ATOM      2  CD2 FP5 d   1      62.210  21.436  31.508  0.00  0.00    -0.076 A 
ATOM      3  CE2 FP5 d   1      60.905  20.923  31.579  0.00  0.00    -0.082 A 
ATOM      4  CZ  FP5 d   1      60.308  20.729  32.819  0.00  0.00    -0.083 A 
ATOM      5  CE1 FP5 d   1      61.010  21.024  33.993  0.00  0.00    -0.082 A 
ATOM      6  CD1 FP5 d   1      62.319  21.526  33.920  0.00  0.00    -0.076 A 
ATOM      7  H   FP5 d   1      62.670  21.605  30.535  0.00  0.00     0.084 H 
ATOM      8  H   FP5 d   1      60.363  20.678  30.666  0.00  0.00     0.083 H 
ATOM      9  H   FP5 d   1      59.289  20.346  32.877  0.00  0.00     0.083 H 
ATOM     10  H   FP5 d   1      60.541  20.864  34.964  0.00  0.00     0.083 H 
ATOM     11  H   FP5 d   1      62.864  21.756  34.836  0.00  0.00     0.084 H 
ENDROOT
BRANCH   1  12
ATOM     12  C7  FP5 d   1      64.342  22.297  32.593  0.00  0.00     0.033 C 
ATOM     13  H   FP5 d   1      64.931  21.998  33.460  0.00  0.00     0.054 H 
ATOM     14  H   FP5 d   1      64.862  21.915  31.715  0.00  0.00     0.054 H 
BRANCH  12  15
ATOM     15  C5  FP5 d   1      64.205  23.815  32.526  0.00  0.00     0.221 C 
ATOM     16  O6  FP5 d   1      64.319  24.407  31.486  0.00  0.00    -0.273 OA
ATOM     17  N4  FP5 d   1      63.921  24.448  33.647  0.00  0.00    -0.371 N 
ATOM     18  H   FP5 d   1      63.858  23.869  34.484  0.00  0.00     0.161 HD
BRANCH  17  19
ATOM     19  C3  FP5 d   1      63.687  25.869  33.837  0.00  0.00    -0.045 C 
ATOM     20  B   FP5 d   1      62.392  25.964  34.796  0.00  0.00     0.110 B 
ATOM     21  H   FP5 d   1      63.521  26.378  32.888  0.00  0.00     0.045 H 
ATOM     22  H   FP5 d   1      64.552  26.362  34.281  0.00  0.00     0.045 H 
ENDBRANCH  17  19
ENDBRANCH  12  15
ENDBRANCH   1  12
TORSDOF 3
