REMARK  26 active torsions:
REMARK  status: ('A' for Active; 'I' for Inactive)
REMARK    1  A    between atoms: N_1  and  CA_2 
REMARK    2  A    between atoms: CA_2  and  C_3 
REMARK    3  A    between atoms: CA_2  and  CB_5 
REMARK       I    between atoms: C_3  and  N_6 
REMARK    4  A    between atoms: N_6  and  CA_7 
REMARK    5  A    between atoms: CA_7  and  C_8 
REMARK    6  A    between atoms: CA_7  and  CB_10 
REMARK       I    between atoms: C_8  and  N_17 
REMARK    7  A    between atoms: CB_10  and  CG_11 
REMARK    8  A    between atoms: CG_11  and  CD_12 
REMARK    9  A    between atoms: CD_12  and  NE_13 
REMARK       I    between atoms: NE_13  and  CZ_14 
REMARK       I    between atoms: CZ_14  and  NH1_15 
REMARK   10  A    between atoms: N_17  and  CA_18 
REMARK   11  A    between atoms: CA_18  and  C_19 
REMARK   12  A    between atoms: CA_18  and  CB_21 
REMARK       I    between atoms: C_19  and  N_24 
REMARK   13  A    between atoms: CB_21  and  OG1_22 
REMARK   14  A    between atoms: CB_21  and  CG2_23 
REMARK   15  A    between atoms: N_24  and  CA_25 
REMARK   16  A    between atoms: CA_25  and  C_26 
REMARK   17  A    between atoms: CA_25  and  CB_28 
REMARK       I    between atoms: C_26  and  N_33 
REMARK   18  A    between atoms: CB_28  and  CG_29 
REMARK   19  A    between atoms: CG_29  and  CD_30 
REMARK   20  A    between atoms: CD_30  and  CE_31 
REMARK   21  A    between atoms: CE_31  and  NZ_32 
REMARK   22  A    between atoms: N_33  and  CA_34 
REMARK   23  A    between atoms: CA_34  and  C_35 
REMARK   24  A    between atoms: CA_34  and  CB_37 
REMARK   25  A    between atoms: CB_37  and  CG_38 
REMARK   26  A    between atoms: CG_38  and  CD_39 
REMARK       I    between atoms: CD_39  and  NE2_41 
ROOT
ATOM      1  CA  THR d   1      15.840  15.816 147.771  0.00  0.00     0.113 C 
ATOM      2  H   THR d   1      16.335  14.846 147.812  0.00  0.00     0.091 H 
ENDROOT
BRANCH   1   3
ATOM      3  N   THR d   1      14.549  15.599 147.121  0.00  0.00    -0.344 N 
ATOM      4  C   ARG d   1      14.112  14.377 146.818  0.00  0.00     0.241 C 
ATOM      5  O   ARG d   1      14.810  13.369 146.949  0.00  0.00    -0.271 OA
ATOM      6  H   THR d   1      13.967  16.405 146.893  0.00  0.00     0.163 HD
BRANCH   4   7
ATOM      7  CA  ARG d   1      12.684  14.263 146.267  0.00  0.00     0.089 C 
ATOM      8  H   ARG d   1      12.351  15.261 145.982  0.00  0.00     0.087 H 
BRANCH   7   9
ATOM      9  N   ARG d   1      12.667  13.375 145.108  0.00  0.00    -0.346 N 
ATOM     10  C   ALA d   1      13.068  13.768 143.910  0.00  0.00     0.248 C 
ATOM     11  O   ALA d   1      13.409  14.923 143.669  0.00  0.00    -0.271 OA
ATOM     12  H   ARG d   1      12.334  12.418 145.226  0.00  0.00     0.163 HD
BRANCH  10  13
ATOM     13  CA  ALA d   1      13.073  12.695 142.820  0.00  0.00     0.172 C 
ATOM     14  H   ALA d   1      12.244  12.013 143.009  0.00  0.00     0.098 H 
BRANCH  13  15
ATOM     15  N   ALA d   1      12.887  13.293 141.509  0.00  0.00    -0.067 N 
ATOM     16  H   ALA d   1      12.012  13.817 141.497  0.00  0.00     0.275 HD
ATOM     17  H   ALA d   1      13.665  13.922 141.310  0.00  0.00     0.275 HD
ATOM     18  H   ALA d   1      12.854  12.558 140.803  0.00  0.00     0.275 HD
ENDBRANCH  13  15
BRANCH  13  19
ATOM     19  CB  ALA d   1      14.367  11.913 142.857  0.00  0.00    -0.042 C 
ATOM     20  H   ALA d   1      15.205  12.591 142.693  0.00  0.00     0.030 H 
ATOM     21  H   ALA d   1      14.472  11.433 143.830  0.00  0.00     0.030 H 
ATOM     22  H   ALA d   1      14.354  11.154 142.075  0.00  0.00     0.030 H 
ENDBRANCH  13  19
ENDBRANCH  10  13
ENDBRANCH   7   9
BRANCH   7  23
ATOM     23  CB  ARG d   1      11.742  13.691 147.329  0.00  0.00    -0.036 C 
ATOM     24  H   ARG d   1      12.265  12.843 147.772  0.00  0.00     0.036 H 
ATOM     25  H   ARG d   1      10.806  13.470 146.815  0.00  0.00     0.036 H 
BRANCH  23  26
ATOM     26  CG  ARG d   1      11.382  14.614 148.484  0.00  0.00    -0.048 C 
ATOM     27  H   ARG d   1      11.146  15.603 148.091  0.00  0.00     0.035 H 
ATOM     28  H   ARG d   1      12.227  14.675 149.170  0.00  0.00     0.035 H 
BRANCH  26  29
ATOM     29  CD  ARG d   1      10.160  14.065 149.237  0.00  0.00     0.009 C 
ATOM     30  H   ARG d   1       9.525  13.554 148.513  0.00  0.00     0.064 H 
ATOM     31  H   ARG d   1       9.661  14.905 149.720  0.00  0.00     0.064 H 
BRANCH  29  32
ATOM     32  NE  ARG d   1      10.519  13.100 150.278  0.00  0.00    -0.227 N 
ATOM     33  CZ  ARG d   1      10.740  11.804 150.070  0.00  0.00     0.665 C 
ATOM     34  NH1 ARG d   1      10.649  11.294 148.850  0.00  0.00    -0.235 N 
ATOM     35  NH2 ARG d   1      11.060  11.012 151.086  0.00  0.00    -0.235 N 
ATOM     36  H   ARG d   1      10.408  11.896 148.062  0.00  0.00     0.174 HD
ATOM     37  H   ARG d   1      10.820  10.300 148.699  0.00  0.00     0.174 HD
ATOM     38  H   ARG d   1      11.137  11.396 152.028  0.00  0.00     0.174 HD
ATOM     39  H   ARG d   1      11.229  10.019 150.925  0.00  0.00     0.174 HD
ATOM     40  H   ARG d   1      10.606  13.447 151.233  0.00  0.00     0.177 HD
ENDBRANCH  29  32
ENDBRANCH  26  29
ENDBRANCH  23  26
ENDBRANCH   7  23
ENDBRANCH   4   7
ENDBRANCH   1   3
BRANCH   1  41
ATOM     41  C   THR d   1      15.643  16.374 149.180  0.00  0.00     0.243 C 
ATOM     42  O   THR d   1      14.576  16.901 149.511  0.00  0.00    -0.271 OA
ATOM     43  N   LYS d   1      16.652  16.329 150.007  0.00  0.00    -0.346 N 
ATOM     44  H   LYS d   1      17.512  15.851 149.736  0.00  0.00     0.163 HD
BRANCH  43  45
ATOM     45  CA  LYS d   1      16.554  16.953 151.303  0.00  0.00     0.089 C 
ATOM     46  H   LYS d   1      15.656  16.597 151.808  0.00  0.00     0.087 H 
BRANCH  45  47
ATOM     47  C   LYS d   1      16.408  18.461 151.163  0.00  0.00     0.241 C 
ATOM     48  O   LYS d   1      15.722  19.039 151.918  0.00  0.00    -0.271 OA
ATOM     49  N   GLN d   1      17.101  19.032 150.193  0.00  0.00    -0.345 N 
ATOM     50  H   GLN d   1      17.885  18.468 149.865  0.00  0.00     0.163 HD
BRANCH  49  51
ATOM     51  CA  GLN d   1      16.967  20.336 149.481  0.00  0.00     0.096 C 
ATOM     52  H   GLN d   1      17.701  20.037 148.732  0.00  0.00     0.089 H 
BRANCH  51  53
ATOM     53  C   GLN d   1      17.585  21.620 149.979  0.00  0.00     0.196 C 
ATOM     54  O   GLN d   1      17.753  21.811 151.148  0.00  0.00    -0.646 OA
ATOM     55  O   GLN d   1      17.929  22.505 149.150  0.00  0.00    -0.646 OA
ENDBRANCH  51  53
BRANCH  51  56
ATOM     56  CB  GLN d   1      15.590  20.621 148.865  0.00  0.00    -0.029 C 
ATOM     57  H   GLN d   1      14.836  20.358 149.607  0.00  0.00     0.037 H 
ATOM     58  H   GLN d   1      15.512  20.038 147.947  0.00  0.00     0.037 H 
BRANCH  56  59
ATOM     59  CG  GLN d   1      15.382  22.109 148.493  0.00  0.00     0.011 C 
ATOM     60  H   GLN d   1      16.259  22.640 148.863  0.00  0.00     0.047 H 
ATOM     61  H   GLN d   1      14.424  22.398 148.925  0.00  0.00     0.047 H 
BRANCH  59  62
ATOM     62  CD  GLN d   1      15.290  22.429 147.001  0.00  0.00     0.215 C 
ATOM     63  OE1 GLN d   1      16.227  22.199 146.233  0.00  0.00    -0.274 OA
ATOM     64  NE2 GLN d   1      14.160  22.995 146.595  0.00  0.00    -0.370 N 
ATOM     65  H   GLN d   1      14.044  23.256 145.616  0.00  0.00     0.159 HD
ATOM     66  H   GLN d   1      13.408  23.169 147.262  0.00  0.00     0.159 HD
ENDBRANCH  59  62
ENDBRANCH  56  59
ENDBRANCH  51  56
ENDBRANCH  49  51
ENDBRANCH  45  47
BRANCH  45  67
ATOM     67  CB  LYS d   1      17.737  16.561 152.161  0.00  0.00    -0.038 C 
ATOM     68  H   LYS d   1      18.596  17.125 151.798  0.00  0.00     0.036 H 
ATOM     69  H   LYS d   1      17.843  15.479 152.084  0.00  0.00     0.036 H 
BRANCH  67  70
ATOM     70  CG  LYS d   1      17.587  16.876 153.576  0.00  0.00    -0.061 C 
ATOM     71  H   LYS d   1      16.679  16.407 153.955  0.00  0.00     0.033 H 
ATOM     72  H   LYS d   1      17.524  17.957 153.700  0.00  0.00     0.033 H 
BRANCH  70  73
ATOM     73  CD  LYS d   1      18.718  16.380 154.308  0.00  0.00    -0.043 C 
ATOM     74  H   LYS d   1      18.919  17.060 155.136  0.00  0.00     0.035 H 
ATOM     75  H   LYS d   1      19.568  16.316 153.628  0.00  0.00     0.035 H 
BRANCH  73  76
ATOM     76  CE  LYS d   1      18.454  15.012 154.870  0.00  0.00     0.080 C 
ATOM     77  H   LYS d   1      18.080  14.349 154.090  0.00  0.00     0.075 H 
ATOM     78  H   LYS d   1      17.699  15.065 155.654  0.00  0.00     0.075 H 
BRANCH  76  79
ATOM     79  NZ  LYS d   1      19.712  14.499 155.411  0.00  0.00    -0.079 N 
ATOM     80  H   LYS d   1      19.559  13.569 155.800  0.00  0.00     0.274 HD
ATOM     81  H   LYS d   1      20.406  14.447 154.665  0.00  0.00     0.274 HD
ATOM     82  H   LYS d   1      20.046  15.125 156.144  0.00  0.00     0.274 HD
ENDBRANCH  76  79
ENDBRANCH  73  76
ENDBRANCH  70  73
ENDBRANCH  67  70
ENDBRANCH  45  67
ENDBRANCH  43  45
ENDBRANCH   1  41
BRANCH   1  83
ATOM     83  CB  THR d   1      16.733  16.797 146.978  0.00  0.00     0.060 C 
ATOM     84  H   THR d   1      17.625  17.001 147.571  0.00  0.00     0.086 H 
BRANCH  83  85
ATOM     85  OG1 THR d   1      16.013  18.012 146.732  0.00  0.00    -0.393 OA
ATOM     86  H   THR d   1      16.570  18.619 146.239  0.00  0.00     0.210 HD
ENDBRANCH  83  85
BRANCH  83  87
ATOM     87  CG2 THR d   1      17.153  16.195 145.650  0.00  0.00    -0.050 C 
ATOM     88  H   THR d   1      17.713  15.277 145.829  0.00  0.00     0.031 H 
ATOM     89  H   THR d   1      16.266  15.971 145.058  0.00  0.00     0.031 H 
ATOM     90  H   THR d   1      17.780  16.906 145.112  0.00  0.00     0.031 H 
ENDBRANCH  83  87
ENDBRANCH   1  83
TORSDOF 26
