REMARK  2 active torsions:
REMARK  status: ('A' for Active; 'I' for Inactive)
REMARK    1  A    between atoms: C1_1  and  C2_2 
REMARK       I    between atoms: C2_2  and  N4_4 
REMARK    2  A    between atoms: C9_9  and  C10_10 
ROOT
ATOM      1  C2  ZW3 d   1      50.314  15.720  30.657  0.00  0.00     0.219 C 
ATOM      2  O3  ZW3 d   1      49.829  16.562  31.355  0.00  0.00    -0.274 OA
ATOM      3  N4  ZW3 d   1      49.607  14.758  30.038  0.00  0.00    -0.311 N 
ATOM      4  C5  ZW3 d   1      48.295  14.440  30.106  0.00  0.00     0.148 A 
ATOM      5  C6  ZW3 d   1      47.338  14.963  30.876  0.00  0.00     0.030 A 
ATOM      6  N7  ZW3 d   1      46.177  14.279  30.653  0.00  0.00    -0.313 N 
ATOM      7  C8  ZW3 d   1      44.896  14.372  31.178  0.00  0.00    -0.004 A 
ATOM      8  C9  ZW3 d   1      43.903  13.490  30.749  0.00  0.00    -0.019 A 
ATOM      9  C18 ZW3 d   1      44.239  12.535  29.793  0.00  0.00    -0.068 A 
ATOM     10  C19 ZW3 d   1      45.484  12.491  29.290  0.00  0.00    -0.037 A 
ATOM     11  C20 ZW3 d   1      46.495  13.350  29.708  0.00  0.00     0.136 A 
ATOM     12  N21 ZW3 d   1      47.795  13.464  29.377  0.00  0.00    -0.212 NA
ATOM     13  H   ZW3 d   1      50.154  14.168  29.411  0.00  0.00     0.170 HD
ATOM     14  H   ZW3 d   1      47.462  15.797  31.567  0.00  0.00     0.118 H 
ATOM     15  H   ZW3 d   1      44.666  15.133  31.924  0.00  0.00     0.113 H 
ATOM     16  H   ZW3 d   1      43.490  11.821  29.452  0.00  0.00     0.085 H 
ATOM     17  H   ZW3 d   1      45.711  11.751  28.522  0.00  0.00     0.089 H 
ENDROOT
BRANCH   8  18
ATOM     18  C10 ZW3 d   1      42.491  13.443  31.197  0.00  0.00    -0.050 C 
ATOM     19  C11 ZW3 d   1      41.973  14.086  32.341  0.00  0.00     0.079 A 
ATOM     20  S12 ZW3 d   1      42.701  15.127  33.636  0.00  0.00    -0.024 SA
ATOM     21  C16 ZW3 d   1      40.590  14.027  32.749  0.00  0.00     0.266 A 
ATOM     22  C13 ZW3 d   1      41.198  15.349  34.475  0.00  0.00     0.291 A 
ATOM     23  O14 ZW3 d   1      40.995  16.023  35.479  0.00  0.00    -0.260 OA
ATOM     24  N15 ZW3 d   1      40.320  14.654  33.787  0.00  0.00    -0.283 N 
ATOM     25  H   ZW3 d   1      39.358  14.628  34.126  0.00  0.00     0.172 HD
ATOM     26  O17 ZW3 d   1      39.749  13.426  32.190  0.00  0.00    -0.267 OA
ATOM     27  H   ZW3 d   1      41.794  12.863  30.592  0.00  0.00     0.087 H 
ENDBRANCH   8  18
BRANCH   1  28
ATOM     28  C1  ZW3 d   1      51.791  15.745  30.370  0.00  0.00    -0.002 C 
ATOM     29  H   ZW3 d   1      52.048  16.681  29.875  0.00  0.00     0.040 H 
ATOM     30  H   ZW3 d   1      52.343  15.665  31.306  0.00  0.00     0.040 H 
ATOM     31  H   ZW3 d   1      52.048  14.907  29.722  0.00  0.00     0.040 H 
ENDBRANCH   1  28
TORSDOF 2
