REMARK  13 active torsions:
REMARK  status: ('A' for Active; 'I' for Inactive)
REMARK    1  A    between atoms: N1_2  and  O1_1 
REMARK       I    between atoms: C_5  and  N1_2 
REMARK    2  A    between atoms: N_3  and  CA_4 
REMARK    3  A    between atoms: N_3  and  S1_10 
REMARK    4  A    between atoms: C18_25  and  N_3 
REMARK    5  A    between atoms: CA_4  and  C_5 
REMARK    6  A    between atoms: CA_4  and  CB_7 
REMARK    7  A    between atoms: CB_7  and  CG1_8 
REMARK    8  A    between atoms: CB_7  and  CG2_9 
REMARK    9  A    between atoms: S1_10  and  C6_13 
REMARK   10  A    between atoms: C16_23  and  C17_24 
REMARK   11  A    between atoms: C16_23  and  C18_25 
REMARK   12  A    between atoms: C17_24  and  C19_26 
REMARK   13  A    between atoms: C17_24  and  C20_27 
ROOT
ATOM      1  N   E41 d   1      -3.027  28.771  56.725  0.00  0.00    -0.293 N 
ENDROOT
BRANCH   1   2
ATOM      2  CA  E41 d   1      -2.275  27.536  56.915  0.00  0.00     0.104 C 
ATOM      3  H3  E41 d   1      -2.761  26.988  57.736  0.00  0.00     0.089 H 
BRANCH   2   4
ATOM      4  C   E41 d   1      -2.294  26.630  55.690  0.00  0.00     0.265 C 
ATOM      5  N1  E41 d   1      -2.663  25.382  55.881  0.00  0.00    -0.236 N 
ATOM      6  H2  E41 d   1      -3.004  25.046  56.759  0.00  0.00     0.197 HD
ATOM      7  O   E41 d   1      -1.905  27.011  54.556  0.00  0.00    -0.269 OA
BRANCH   5   8
ATOM      8  O1  E41 d   1      -2.538  24.566  54.753  0.00  0.00    -0.287 OA
ATOM      9  H1  E41 d   1      -2.822  23.685  54.968  0.00  0.00     0.244 HD
ENDBRANCH   5   8
ENDBRANCH   2   4
BRANCH   2  10
ATOM     10  CB  E41 d   1      -0.819  27.813  57.338  0.00  0.00    -0.032 C 
ATOM     11  H4  E41 d   1      -0.396  28.512  56.601  0.00  0.00     0.042 H 
BRANCH  10  12
ATOM     12  CG1 E41 d   1      -0.750  28.481  58.720  0.00  0.00    -0.071 C 
ATOM     13  H5  E41 d   1       0.301  28.663  58.987  0.00  0.00     0.028 H 
ATOM     14  H6  E41 d   1      -1.210  27.821  59.470  0.00  0.00     0.028 H 
ATOM     15  H7  E41 d   1      -1.292  29.438  58.692  0.00  0.00     0.028 H 
ENDBRANCH  10  12
BRANCH  10  16
ATOM     16  CG2 E41 d   1       0.063  26.562  57.349  0.00  0.00    -0.071 C 
ATOM     17  H8  E41 d   1       0.021  26.075  56.364  0.00  0.00     0.028 H 
ATOM     18  H9  E41 d   1      -0.300  25.864  58.118  0.00  0.00     0.028 H 
ATOM     19  H10 E41 d   1       1.101  26.847  57.573  0.00  0.00     0.028 H 
ENDBRANCH  10  16
ENDBRANCH   2  10
ENDBRANCH   1   2
BRANCH   1  20
ATOM     20  S1  E41 d   1      -4.679  28.666  57.025  0.00  0.00     0.261 S 
ATOM     21  O3  E41 d   1      -4.862  27.800  58.190  0.00  0.00    -0.200 OA
ATOM     22  O4  E41 d   1      -5.177  30.040  57.066  0.00  0.00    -0.200 OA
BRANCH  20  23
ATOM     23  C6  E41 d   1      -5.451  27.864  55.648  0.00  0.00     0.080 A 
ATOM     24  C7  E41 d   1      -5.655  26.490  55.717  0.00  0.00    -0.059 A 
ATOM     25  C8  E41 d   1      -6.211  25.826  54.626  0.00  0.00    -0.071 A 
ATOM     26  H11 E41 d   1      -5.384  25.941  56.611  0.00  0.00     0.085 H 
ATOM     27  C11 E41 d   1      -6.585  26.546  53.482  0.00  0.00    -0.026 A 
ATOM     28  H12 E41 d   1      -6.355  24.752  54.661  0.00  0.00     0.084 H 
ATOM     29  C10 E41 d   1      -6.397  27.961  53.442  0.00  0.00    -0.025 A 
ATOM     30  C12 E41 d   1      -7.184  25.909  52.379  0.00  0.00    -0.072 A 
ATOM     31  C9  E41 d   1      -5.825  28.629  54.538  0.00  0.00    -0.050 A 
ATOM     32  C15 E41 d   1      -6.761  28.691  52.267  0.00  0.00    -0.072 A 
ATOM     33  H13 E41 d   1      -5.678  29.703  54.524  0.00  0.00     0.087 H 
ATOM     34  C14 E41 d   1      -7.359  28.011  51.194  0.00  0.00    -0.082 A 
ATOM     35  H17 E41 d   1      -6.577  29.758  52.206  0.00  0.00     0.084 H 
ATOM     36  C13 E41 d   1      -7.547  26.633  51.234  0.00  0.00    -0.082 A 
ATOM     37  H16 E41 d   1      -7.679  28.568  50.321  0.00  0.00     0.083 H 
ATOM     38  H15 E41 d   1      -7.974  26.119  50.380  0.00  0.00     0.083 H 
ATOM     39  H14 E41 d   1      -7.368  24.841  52.415  0.00  0.00     0.084 H 
ENDBRANCH  20  23
ENDBRANCH   1  20
BRANCH   1  40
ATOM     40  C18 E41 d   1      -2.611  29.759  55.711  0.00  0.00     0.007 C 
ATOM     41  H21 E41 d   1      -3.448  29.928  55.018  0.00  0.00     0.065 H 
ATOM     42  H22 E41 d   1      -1.751  29.355  55.156  0.00  0.00     0.065 H 
BRANCH  40  43
ATOM     43  C16 E41 d   1      -2.208  31.104  56.335  0.00  0.00    -0.047 C 
ATOM     44  H18 E41 d   1      -3.058  31.515  56.901  0.00  0.00     0.035 H 
ATOM     45  H19 E41 d   1      -1.355  30.952  57.013  0.00  0.00     0.035 H 
BRANCH  43  46
ATOM     46  C17 E41 d   1      -1.812  32.082  55.231  0.00  0.00    -0.060 C 
ATOM     47  H20 E41 d   1      -2.528  31.987  54.402  0.00  0.00     0.038 H 
BRANCH  46  48
ATOM     48  C19 E41 d   1      -1.883  33.531  55.751  0.00  0.00    -0.073 C 
ATOM     49  H23 E41 d   1      -1.596  34.224  54.946  0.00  0.00     0.028 H 
ATOM     50  H24 E41 d   1      -1.194  33.650  56.600  0.00  0.00     0.028 H 
ATOM     51  H25 E41 d   1      -2.910  33.754  56.077  0.00  0.00     0.028 H 
ENDBRANCH  46  48
BRANCH  46  52
ATOM     52  C20 E41 d   1      -0.422  31.696  54.708  0.00  0.00    -0.073 C 
ATOM     53  H26 E41 d   1      -0.440  30.655  54.354  0.00  0.00     0.028 H 
ATOM     54  H27 E41 d   1       0.315  31.795  55.518  0.00  0.00     0.028 H 
ATOM     55  H28 E41 d   1      -0.145  32.361  53.877  0.00  0.00     0.028 H 
ENDBRANCH  46  52
ENDBRANCH  43  46
ENDBRANCH  40  43
ENDBRANCH   1  40
TORSDOF 13
