REMARK  4 active torsions:
REMARK  status: ('A' for Active; 'I' for Inactive)
REMARK    1  A    between atoms: C25_1  and  C22_2 
REMARK    2  A    between atoms: C22_2  and  C23_3 
REMARK    3  A    between atoms: C22_2  and  C24_4 
REMARK    4  A    between atoms: C22_2  and  C2_5 
ROOT
ATOM      1  C2  IQ1 d   1     -26.486  80.979  11.607  0.00  0.00     0.113 A 
ATOM      2  N3  IQ1 d   1     -25.924  81.681  10.631  0.00  0.00    -0.232 NA
ATOM      3  N1  IQ1 d   1     -27.795  81.068  11.460  0.00  0.00    -0.341 N 
ATOM      4  C5  IQ1 d   1     -28.094  81.847  10.355  0.00  0.00     0.074 A 
ATOM      5  C6  IQ1 d   1     -29.426  82.017   9.862  0.00  0.00    -0.004 A 
ATOM      6  C7  IQ1 d   1     -30.442  81.192  10.349  0.00  0.00    -0.054 A 
ATOM      7  C8  IQ1 d   1     -31.752  81.357   9.892  0.00  0.00     0.003 A 
ATOM      8  N9  IQ1 d   1     -32.034  82.305   8.978  0.00  0.00    -0.273 NA
ATOM      9  C10 IQ1 d   1     -31.084  83.115   8.485  0.00  0.00     0.003 A 
ATOM     10  C11 IQ1 d   1     -29.767  82.991   8.920  0.00  0.00    -0.054 A 
ATOM     11  C4  IQ1 d   1     -26.891  82.249   9.823  0.00  0.00     0.098 A 
ATOM     12  C12 IQ1 d   1     -26.602  83.177   8.800  0.00  0.00     0.013 A 
ATOM     13  C13 IQ1 d   1     -25.618  84.163   8.975  0.00  0.00     0.015 A 
ATOM     14  N14 IQ1 d   1     -25.330  85.054   8.005  0.00  0.00    -0.259 NA
ATOM     15  C15 IQ1 d   1     -25.966  85.029   6.818  0.00  0.00     0.066 A 
ATOM     16  C16 IQ1 d   1     -25.642  85.960   5.823  0.00  0.00    -0.054 A 
ATOM     17  C21 IQ1 d   1     -27.263  83.140   7.567  0.00  0.00    -0.057 A 
ATOM     18  C20 IQ1 d   1     -26.954  84.067   6.573  0.00  0.00    -0.006 A 
ATOM     19  C19 IQ1 d   1     -27.624  84.035   5.345  0.00  0.00    -0.071 A 
ATOM     20  C18 IQ1 d   1     -27.301  84.966   4.354  0.00  0.00    -0.082 A 
ATOM     21  C17 IQ1 d   1     -26.313  85.929   4.595  0.00  0.00    -0.081 A 
ATOM     22  H10 IQ1 d   1     -28.491  80.624  12.076  0.00  0.00     0.167 HD
ATOM     23  H11 IQ1 d   1     -30.215  80.425  11.080  0.00  0.00     0.087 H 
ATOM     24  H12 IQ1 d   1     -32.542  80.721  10.274  0.00  0.00     0.114 H 
ATOM     25  H13 IQ1 d   1     -31.342  83.866   7.748  0.00  0.00     0.114 H 
ATOM     26  H14 IQ1 d   1     -29.004  83.652   8.526  0.00  0.00     0.087 H 
ATOM     27  H15 IQ1 d   1     -25.077  84.209   9.913  0.00  0.00     0.116 H 
ATOM     28  H16 IQ1 d   1     -24.873  86.703   6.003  0.00  0.00     0.087 H 
ATOM     29  H17 IQ1 d   1     -28.020  82.386   7.384  0.00  0.00     0.086 H 
ATOM     30  H18 IQ1 d   1     -28.391  83.291   5.163  0.00  0.00     0.084 H 
ATOM     31  H19 IQ1 d   1     -27.815  84.943   3.400  0.00  0.00     0.083 H 
ATOM     32  H20 IQ1 d   1     -26.067  86.653   3.827  0.00  0.00     0.083 H 
ENDROOT
BRANCH   1  33
ATOM     33  C22 IQ1 d   1     -25.747  80.215  12.680  0.00  0.00     0.009 C 
BRANCH  33  34
ATOM     34  C25 IQ1 d   1     -25.150  78.947  12.089  0.00  0.00    -0.063 C 
ATOM     35  H1  IQ1 d   1     -24.613  78.394  12.874  0.00  0.00     0.029 H 
ATOM     36  H2  IQ1 d   1     -24.450  79.212  11.283  0.00  0.00     0.029 H 
ATOM     37  H3  IQ1 d   1     -25.955  78.317  11.683  0.00  0.00     0.029 H 
ENDBRANCH  33  34
BRANCH  33  38
ATOM     38  C23 IQ1 d   1     -24.626  81.079  13.252  0.00  0.00    -0.063 C 
ATOM     39  H4  IQ1 d   1     -25.053  81.998  13.681  0.00  0.00     0.029 H 
ATOM     40  H5  IQ1 d   1     -23.921  81.342  12.450  0.00  0.00     0.029 H 
ATOM     41  H6  IQ1 d   1     -24.096  80.520  14.037  0.00  0.00     0.029 H 
ENDBRANCH  33  38
BRANCH  33  42
ATOM     42  C24 IQ1 d   1     -26.714  79.803  13.779  0.00  0.00    -0.063 C 
ATOM     43  H7  IQ1 d   1     -27.514  79.182  13.350  0.00  0.00     0.029 H 
ATOM     44  H8  IQ1 d   1     -27.153  80.702  14.237  0.00  0.00     0.029 H 
ATOM     45  H9  IQ1 d   1     -26.174  79.227  14.545  0.00  0.00     0.029 H 
ENDBRANCH  33  42
ENDBRANCH   1  33
TORSDOF 4
