REMARK  15 active torsions:
REMARK  status: ('A' for Active; 'I' for Inactive)
REMARK    1  A    between atoms: O2P_4  and  P_2 
REMARK    2  A    between atoms: P_2  and  O5'_5 
REMARK    3  A    between atoms: P1_6  and  O2P_4 
REMARK    4  A    between atoms: O5'_5  and  C5'_7 
REMARK    5  A    between atoms: O1_28  and  P1_6 
REMARK    6  A    between atoms: C5'_7  and  C4'_8 
REMARK    7  A    between atoms: C3'_10  and  O3'_12 
REMARK    8  A    between atoms: C1'_11  and  N9_15 
REMARK    9  A    between atoms: C2'_13  and  O2'_14 
REMARK   10  A    between atoms: C2_23  and  N2_24 
REMARK   11  A    between atoms: C1_26  and  O1_28 
REMARK   12  A    between atoms: C2A_27  and  O2_31 
REMARK   13  A    between atoms: C3_30  and  O3_33 
REMARK   14  A    between atoms: C4A_32  and  O4_35 
REMARK   15  A    between atoms: C5A_34  and  C6A_36 
ROOT
ATOM      1  C5' GFB d   1     -11.180 -29.032  17.850  0.00  0.00     0.058 C 
ATOM      2  H   GFB d   1     -11.763 -28.415  18.534  0.00  0.00     0.079 H 
ATOM      3  H   GFB d   1     -10.361 -29.439  18.444  0.00  0.00     0.079 H 
ENDROOT
BRANCH   1   4
ATOM      4  O5' GFB d   1     -10.693 -28.268  16.747  0.00  0.00    -0.287 OA
BRANCH   4   5
ATOM      5  P   GFB d   1     -11.382 -26.857  16.482  0.00  0.00     0.417 P 
ATOM      6  O1P GFB d   1     -12.884 -27.017  16.536  0.00  0.00    -0.624 OA
ATOM      7  O3P GFB d   1     -10.829 -26.213  15.237  0.00  0.00    -0.624 OA
BRANCH   5   8
ATOM      8  O2P GFB d   1     -10.967 -26.010  17.813  0.00  0.00    -0.180 OA
BRANCH   8   9
ATOM      9  P1  GFB d   1      -9.557 -25.824  18.583  0.00  0.00     0.420 P 
ATOM     10  O1X GFB d   1      -9.263 -24.339  18.582  0.00  0.00    -0.624 OA
ATOM     11  O2X GFB d   1      -9.650 -26.488  19.929  0.00  0.00    -0.624 OA
BRANCH   9  12
ATOM     12  O1  GFB d   1      -8.501 -26.673  17.731  0.00  0.00    -0.255 OA
BRANCH  12  13
ATOM     13  C1  GFB d   1      -7.346 -26.108  17.135  0.00  0.00     0.170 C 
ATOM     14  C2A GFB d   1      -7.594 -26.092  15.615  0.00  0.00     0.110 C 
ATOM     15  C3  GFB d   1      -6.326 -25.840  14.804  0.00  0.00     0.092 C 
ATOM     16  H   GFB d   1      -7.968 -27.080  15.347  0.00  0.00     0.094 H 
ATOM     17  C4A GFB d   1      -5.209 -26.767  15.289  0.00  0.00     0.087 C 
ATOM     18  H   GFB d   1      -5.997 -24.810  14.945  0.00  0.00     0.091 H 
ATOM     19  C5A GFB d   1      -5.056 -26.800  16.816  0.00  0.00     0.065 C 
ATOM     20  H   GFB d   1      -4.276 -26.380  14.880  0.00  0.00     0.091 H 
ATOM     21  O5  GFB d   1      -6.307 -27.013  17.495  0.00  0.00    -0.350 OA
ATOM     22  H   GFB d   1      -4.661 -25.825  17.102  0.00  0.00     0.086 H 
ATOM     23  H   GFB d   1      -7.101 -25.092  17.446  0.00  0.00     0.134 H 
BRANCH  14  24
ATOM     24  O2  GFB d   1      -8.536 -25.069  15.304  0.00  0.00    -0.388 OA
ATOM     25  H   GFB d   1      -9.341 -25.213  15.807  0.00  0.00     0.210 HD
ENDBRANCH  14  24
BRANCH  15  26
ATOM     26  O3  GFB d   1      -6.600 -26.038  13.391  0.00  0.00    -0.390 OA
ATOM     27  H   GFB d   1      -6.871 -26.947  13.243  0.00  0.00     0.210 HD
ENDBRANCH  15  26
BRANCH  17  28
ATOM     28  O4  GFB d   1      -5.495 -28.097  14.838  0.00  0.00    -0.390 OA
ATOM     29  H   GFB d   1      -6.309 -28.404  15.245  0.00  0.00     0.210 HD
ENDBRANCH  17  28
BRANCH  19  30
ATOM     30  C6A GFB d   1      -4.113 -27.923  17.227  0.00  0.00    -0.050 C 
ATOM     31  H   GFB d   1      -3.969 -27.898  18.307  0.00  0.00     0.031 H 
ATOM     32  H   GFB d   1      -4.544 -28.882  16.939  0.00  0.00     0.031 H 
ATOM     33  H   GFB d   1      -3.153 -27.790  16.728  0.00  0.00     0.031 H 
ENDBRANCH  19  30
ENDBRANCH  12  13
ENDBRANCH   9  12
ENDBRANCH   8   9
ENDBRANCH   5   8
ENDBRANCH   4   5
ENDBRANCH   1   4
BRANCH   1  34
ATOM     34  C4' GFB d   1     -12.031 -30.144  17.241  0.00  0.00     0.089 C 
ATOM     35  O4' GFB d   1     -11.942 -31.309  18.072  0.00  0.00    -0.353 OA
ATOM     36  C1' GFB d   1     -13.246 -31.799  18.393  0.00  0.00     0.139 C 
ATOM     37  C2' GFB d   1     -14.177 -31.132  17.393  0.00  0.00     0.105 C 
ATOM     38  H   GFB d   1     -13.244 -32.889  18.383  0.00  0.00     0.122 H 
ATOM     39  C3' GFB d   1     -13.507 -29.788  17.158  0.00  0.00     0.091 C 
ATOM     40  H   GFB d   1     -15.207 -31.032  17.735  0.00  0.00     0.093 H 
ATOM     41  H   GFB d   1     -13.809 -29.031  17.881  0.00  0.00     0.091 H 
ATOM     42  H   GFB d   1     -11.648 -30.307  16.234  0.00  0.00     0.090 H 
BRANCH  36  43
ATOM     43  N9  GFB d   1     -13.695 -31.303  19.719  0.00  0.00    -0.295 N 
ATOM     44  C8  GFB d   1     -13.113 -30.413  20.547  0.00  0.00     0.071 A 
ATOM     45  N7  GFB d   1     -13.919 -30.225  21.620  0.00  0.00    -0.234 NA
ATOM     46  H   GFB d   1     -12.153 -29.925  20.381  0.00  0.00     0.144 H 
ATOM     47  C5  GFB d   1     -15.005 -31.010  21.459  0.00  0.00     0.171 A 
ATOM     48  C4  GFB d   1     -14.860 -31.667  20.249  0.00  0.00     0.161 A 
ATOM     49  C6  GFB d   1     -16.153 -31.256  22.199  0.00  0.00     0.292 A 
ATOM     50  N3  GFB d   1     -15.809 -32.510  19.793  0.00  0.00    -0.174 N 
ATOM     51  C2  GFB d   1     -16.907 -32.724  20.519  0.00  0.00     0.680 A 
ATOM     52  H   GFB d   1     -15.687 -32.982  18.897  0.00  0.00     0.186 HD
ATOM     53  N1  GFB d   1     -17.086 -32.107  21.707  0.00  0.00    -0.154 N 
ATOM     54  H   GFB d   1     -17.936 -32.284  22.242  0.00  0.00     0.187 HD
ATOM     55  O6  GFB d   1     -16.303 -30.672  23.296  0.00  0.00    -0.265 OA
BRANCH  51  56
ATOM     56  N2  GFB d   1     -17.798 -33.592  19.997  0.00  0.00    -0.234 N 
ATOM     57  H   GFB d   1     -18.656 -33.809  20.505  0.00  0.00     0.174 HD
ATOM     58  H   GFB d   1     -17.614 -34.031  19.095  0.00  0.00     0.174 HD
ENDBRANCH  51  56
ENDBRANCH  36  43
BRANCH  37  59
ATOM     59  O2' GFB d   1     -14.236 -31.910  16.192  0.00  0.00    -0.388 OA
ATOM     60  H   GFB d   1     -14.825 -31.484  15.565  0.00  0.00     0.210 HD
ENDBRANCH  37  59
BRANCH  39  61
ATOM     61  O3' GFB d   1     -13.875 -29.167  15.910  0.00  0.00    -0.390 OA
ATOM     62  H   GFB d   1     -13.375 -28.355  15.798  0.00  0.00     0.210 HD
ENDBRANCH  39  61
ENDBRANCH   1  34
TORSDOF 15
