REMARK  4 active torsions:
REMARK  status: ('A' for Active; 'I' for Inactive)
REMARK    1  A    between atoms: CAR_20  and  NAA_1 
REMARK    2  A    between atoms: CAQ_18  and  OAB_2 
REMARK    3  A    between atoms: CAS_21  and  NAP_17 
REMARK    4  A    between atoms: NAP_17  and  CAV_24 
ROOT
ATOM      1  CAC 2A8 d   1       7.571 -16.490 -34.162  0.00  0.00    -0.082 A 
ATOM      2  CAD 2A8 d   1       7.853 -15.738 -33.019  0.00  0.00    -0.076 A 
ATOM      3  CAE 2A8 d   1       8.405 -17.529 -34.563  0.00  0.00    -0.082 A 
ATOM      4  CAI 2A8 d   1       9.000 -16.066 -32.286  0.00  0.00    -0.049 A 
ATOM      5  CAJ 2A8 d   1       9.553 -17.839 -33.813  0.00  0.00    -0.073 A 
ATOM      6  CAK 2A8 d   1      12.660 -14.136 -30.892  0.00  0.00    -0.051 A 
ATOM      7  CAL 2A8 d   1      14.282 -15.921 -30.894  0.00  0.00    -0.057 A 
ATOM      8  CAN 2A8 d   1      11.672 -15.063 -31.273  0.00  0.00    -0.046 A 
ATOM      9  CAO 2A8 d   1      13.312 -16.849 -31.272  0.00  0.00    -0.071 A 
ATOM     10  CA0 2A8 d   1       9.168 -15.176 -31.115  0.00  0.00    -0.037 C 
ATOM     11  CAQ 2A8 d   1      11.072 -17.522 -31.900  0.00  0.00     0.087 C 
ATOM     12  CA1 2A8 d   1      10.366 -14.339 -31.402  0.00  0.00    -0.037 C 
ATOM     13  CAS 2A8 d   1      13.975 -14.576 -30.705  0.00  0.00     0.033 A 
ATOM     14  CAT 2A8 d   1       9.835 -17.088 -32.655  0.00  0.00    -0.019 A 
ATOM     15  CAU 2A8 d   1      11.995 -16.405 -31.453  0.00  0.00    -0.019 A 
ATOM     16  H4  2A8 d   1       6.687 -16.260 -34.746  0.00  0.00     0.083 H 
ATOM     17  H5  2A8 d   1       7.205 -14.926 -32.709  0.00  0.00     0.084 H 
ATOM     18  H6  2A8 d   1       8.169 -18.100 -35.454  0.00  0.00     0.083 H 
ATOM     19  H10 2A8 d   1      10.211 -18.643 -34.121  0.00  0.00     0.084 H 
ATOM     20  H11 2A8 d   1      12.405 -13.093 -30.745  0.00  0.00     0.087 H 
ATOM     21  H12 2A8 d   1      15.302 -16.256 -30.743  0.00  0.00     0.086 H 
ATOM     22  H14 2A8 d   1      13.571 -17.891 -31.422  0.00  0.00     0.084 H 
ATOM     23  H15 2A8 d   1       9.327 -15.770 -30.203  0.00  0.00     0.040 H 
ATOM     24  H16 2A8 d   1       8.280 -14.540 -30.988  0.00  0.00     0.040 H 
ATOM     25  H18 2A8 d   1      10.585 -17.656 -30.923  0.00  0.00     0.098 H 
ATOM     26  H19 2A8 d   1      10.283 -13.960 -32.431  0.00  0.00     0.040 H 
ATOM     27  H20 2A8 d   1      10.371 -13.493 -30.699  0.00  0.00     0.040 H 
ENDROOT
BRANCH  13  28
ATOM     28  NAP 2A8 d   1      14.991 -13.614 -30.318  0.00  0.00    -0.354 N 
ATOM     29  H17 2A8 d   1      14.697 -12.666 -30.044  0.00  0.00     0.166 HD
BRANCH  28  30
ATOM     30  CAV 2A8 d   1      16.413 -13.939 -30.303  0.00  0.00     0.059 A 
ATOM     31  CAM 2A8 d   1      17.076 -14.571 -31.359  0.00  0.00    -0.055 A 
ATOM     32  CAG 2A8 d   1      18.437 -14.840 -31.245  0.00  0.00    -0.081 A 
ATOM     33  H13 2A8 d   1      16.536 -14.849 -32.257  0.00  0.00     0.087 H 
ATOM     34  CAF 2A8 d   1      19.132 -14.481 -30.104  0.00  0.00    -0.081 A 
ATOM     35  H8  2A8 d   1      18.957 -15.335 -32.057  0.00  0.00     0.083 H 
ATOM     36  CAH 2A8 d   1      18.507 -13.850 -29.047  0.00  0.00    -0.055 A 
ATOM     37  H7  2A8 d   1      20.192 -14.700 -30.038  0.00  0.00     0.083 H 
ATOM     38  CAR 2A8 d   1      17.144 -13.585 -29.164  0.00  0.00     0.052 A 
ATOM     39  H9  2A8 d   1      19.058 -13.570 -28.156  0.00  0.00     0.087 H 
BRANCH  38  40
ATOM     40  NAA 2A8 d   1      16.453 -12.939 -28.113  0.00  0.00    -0.397 N 
ATOM     41  H1  2A8 d   1      16.957 -12.663 -27.258  0.00  0.00     0.156 HD
ATOM     42  H2  2A8 d   1      15.445 -12.744 -28.202  0.00  0.00     0.156 HD
ENDBRANCH  38  40
ENDBRANCH  28  30
ENDBRANCH  13  28
BRANCH  11  43
ATOM     43  OAB 2A8 d   1      11.466 -18.815 -32.019  0.00  0.00    -0.386 OA
ATOM     44  H3  2A8 d   1      12.249 -18.955 -31.499  0.00  0.00     0.210 HD
ENDBRANCH  11  43
TORSDOF 4
