REMARK  14 active torsions:
REMARK  status: ('A' for Active; 'I' for Inactive)
REMARK    1  A    between atoms: N_1  and  CA_2 
REMARK    2  A    between atoms: CA_2  and  C_3 
REMARK    3  A    between atoms: CA_2  and  CB_5 
REMARK       I    between atoms: C_3  and  N_10 
REMARK    4  A    between atoms: CB_5  and  CG_6 
REMARK    5  A    between atoms: CG_6  and  CD_7 
REMARK    6  A    between atoms: CD_7  and  CE_8 
REMARK    7  A    between atoms: CE_8  and  NZ_9 
REMARK    8  A    between atoms: CA_11  and  C_12 
REMARK       I    between atoms: C_12  and  N_17 
REMARK    9  A    between atoms: N_17  and  CA_18 
REMARK   10  A    between atoms: CA_18  and  C_19 
REMARK   11  A    between atoms: CA_18  and  CB_21 
REMARK       I    between atoms: C_19  and  N_25 
REMARK   12  A    between atoms: CB_21  and  CG_22 
REMARK   13  A    between atoms: CG_22  and  CD1_23 
REMARK   14  A    between atoms: CG_22  and  CD2_24 
ROOT
ATOM      1  C   LYS d   1       3.069 -18.068  -7.341  0.00  0.00     0.251 C 
ATOM      2  O   LYS d   1       3.531 -17.052  -7.858  0.00  0.00    -0.271 OA
ATOM      3  N   PRO d   1       1.798 -18.458  -7.517  0.00  0.00    -0.337 N 
ATOM      4  CA  PRO d   1       0.851 -17.701  -8.343  0.00  0.00     0.091 C 
ATOM      5  CB  PRO d   1      -0.423 -18.551  -8.279  0.00  0.00    -0.036 C 
ATOM      6  CG  PRO d   1      -0.293 -19.340  -7.017  0.00  0.00    -0.048 C 
ATOM      7  CD  PRO d   1       1.170 -19.637  -6.896  0.00  0.00    -0.001 C 
ATOM      8  H   PRO d   1       1.222 -17.536  -9.354  0.00  0.00     0.087 H 
ATOM      9  H   PRO d   1      -0.525 -19.196  -9.152  0.00  0.00     0.036 H 
ATOM     10  H   PRO d   1      -1.322 -17.935  -8.281  0.00  0.00     0.036 H 
ATOM     11  H   PRO d   1      -0.890 -20.252  -7.047  0.00  0.00     0.035 H 
ATOM     12  H   PRO d   1      -0.666 -18.788  -6.154  0.00  0.00     0.035 H 
ATOM     13  H   PRO d   1       1.487 -19.791  -5.864  0.00  0.00     0.064 H 
ATOM     14  H   PRO d   1       1.454 -20.572  -7.380  0.00  0.00     0.064 H 
ENDROOT
BRANCH   4  15
ATOM     15  C   PRO d   1       0.586 -16.311  -7.773  0.00  0.00     0.241 C 
ATOM     16  O   PRO d   1       0.679 -16.111  -6.561  0.00  0.00    -0.271 OA
ATOM     17  N   LEU d   1       0.260 -15.362  -8.643  0.00  0.00    -0.346 N 
ATOM     18  H   LEU d   1       0.198 -15.593  -9.634  0.00  0.00     0.163 HD
BRANCH  17  19
ATOM     19  CA  LEU d   1      -0.011 -13.997  -8.210  0.00  0.00     0.089 C 
ATOM     20  H   LEU d   1       0.638 -13.781  -7.361  0.00  0.00     0.087 H 
BRANCH  19  21
ATOM     21  C   LEU d   1      -1.458 -13.841  -7.751  0.00  0.00     0.238 C 
ATOM     22  O   LEU d   1      -2.387 -14.284  -8.429  0.00  0.00    -0.271 OA
ATOM     23  N   NH2 d   1      -1.641 -13.211  -6.595  0.00  0.00    -0.368 N 
ATOM     24  H   NH2 d   1      -2.584 -13.076  -6.232  0.00  0.00     0.159 HD
ATOM     25  H   NH2 d   1      -0.838 -12.863  -6.071  0.00  0.00     0.159 HD
ENDBRANCH  19  21
BRANCH  19  26
ATOM     26  CB  LEU d   1       0.302 -13.005  -9.332  0.00  0.00    -0.035 C 
ATOM     27  H   LEU d   1       0.161 -12.008  -8.913  0.00  0.00     0.037 H 
ATOM     28  H   LEU d   1      -0.353 -13.261 -10.165  0.00  0.00     0.037 H 
BRANCH  26  29
ATOM     29  CG  LEU d   1       1.732 -13.052  -9.873  0.00  0.00    -0.059 C 
ATOM     30  H   LEU d   1       1.897 -14.035 -10.315  0.00  0.00     0.038 H 
BRANCH  29  31
ATOM     31  CD1 LEU d   1       1.931 -12.006 -10.959  0.00  0.00    -0.073 C 
ATOM     32  H   LEU d   1       1.238 -12.198 -11.778  0.00  0.00     0.028 H 
ATOM     33  H   LEU d   1       1.742 -11.015 -10.546  0.00  0.00     0.028 H 
ATOM     34  H   LEU d   1       2.955 -12.058 -11.329  0.00  0.00     0.028 H 
ENDBRANCH  29  31
BRANCH  29  35
ATOM     35  CD2 LEU d   1       2.741 -12.864  -8.748  0.00  0.00    -0.073 C 
ATOM     36  H   LEU d   1       2.576 -11.898  -8.271  0.00  0.00     0.028 H 
ATOM     37  H   LEU d   1       2.616 -13.659  -8.013  0.00  0.00     0.028 H 
ATOM     38  H   LEU d   1       3.751 -12.901  -9.157  0.00  0.00     0.028 H 
ENDBRANCH  29  35
ENDBRANCH  26  29
ENDBRANCH  19  26
ENDBRANCH  17  19
ENDBRANCH   4  15
BRANCH   1  39
ATOM     39  CA  LYS d   1       3.935 -18.944  -6.445  0.00  0.00     0.176 C 
ATOM     40  H   LYS d   1       3.554 -19.965  -6.481  0.00  0.00     0.099 H 
BRANCH  39  41
ATOM     41  N   LYS d   1       5.315 -18.974  -6.914  0.00  0.00    -0.067 N 
ATOM     42  H   LYS d   1       5.339 -19.317  -7.874  0.00  0.00     0.275 HD
ATOM     43  H   LYS d   1       5.706 -18.032  -6.878  0.00  0.00     0.275 HD
ATOM     44  H   LYS d   1       5.862 -19.594  -6.317  0.00  0.00     0.275 HD
ENDBRANCH  39  41
BRANCH  39  45
ATOM     45  CB  LYS d   1       3.864 -18.433  -5.004  0.00  0.00    -0.030 C 
ATOM     46  H   LYS d   1       2.813 -18.441  -4.717  0.00  0.00     0.036 H 
ATOM     47  H   LYS d   1       4.333 -17.449  -4.993  0.00  0.00     0.036 H 
BRANCH  45  48
ATOM     48  CG  LYS d   1       4.607 -19.288  -3.987  0.00  0.00    -0.061 C 
ATOM     49  H   LYS d   1       4.544 -20.330  -4.301  0.00  0.00     0.033 H 
ATOM     50  H   LYS d   1       4.150 -19.135  -3.009  0.00  0.00     0.033 H 
BRANCH  48  51
ATOM     51  CD  LYS d   1       6.074 -18.902  -3.897  0.00  0.00    -0.043 C 
ATOM     52  H   LYS d   1       6.151 -17.815  -3.887  0.00  0.00     0.035 H 
ATOM     53  H   LYS d   1       6.600 -19.320  -4.755  0.00  0.00     0.035 H 
BRANCH  51  54
ATOM     54  CE  LYS d   1       6.701 -19.449  -2.623  0.00  0.00     0.080 C 
ATOM     55  H   LYS d   1       7.732 -19.099  -2.575  0.00  0.00     0.075 H 
ATOM     56  H   LYS d   1       6.636 -20.537  -2.653  0.00  0.00     0.075 H 
BRANCH  54  57
ATOM     57  NZ  LYS d   1       5.990 -18.974  -1.392  0.00  0.00    -0.079 N 
ATOM     58  H   LYS d   1       6.444 -19.365  -0.566  0.00  0.00     0.274 HD
ATOM     59  H   LYS d   1       6.027 -17.956  -1.351  0.00  0.00     0.274 HD
ATOM     60  H   LYS d   1       5.017 -19.280  -1.423  0.00  0.00     0.274 HD
ENDBRANCH  54  57
ENDBRANCH  51  54
ENDBRANCH  48  51
ENDBRANCH  45  48
ENDBRANCH  39  45
ENDBRANCH   1  39
TORSDOF 14
