REMARK  8 active torsions:
REMARK  status: ('A' for Active; 'I' for Inactive)
REMARK    1  A    between atoms: C1_1  and  S1_12 
REMARK    2  A    between atoms: C2_2  and  O2_3 
REMARK    3  A    between atoms: C3_4  and  O3_5 
REMARK    4  A    between atoms: C4_6  and  O4_7 
REMARK    5  A    between atoms: C5_8  and  C6_10 
REMARK    6  A    between atoms: C6_10  and  O6_11 
REMARK    7  A    between atoms: S1_12  and  C1A_13 
REMARK    8  A    between atoms: C1A_13  and  C2A_14 
ROOT
ATOM      1  C1  G0S d   1       8.558 -18.596 -37.206  0.00  0.00     0.110 C 
ATOM      2  C2  G0S d   1       7.148 -18.379 -36.689  0.00  0.00     0.096 C 
ATOM      3  C3  G0S d   1       7.135 -17.330 -35.674  0.00  0.00     0.090 C 
ATOM      4  C4  G0S d   1       8.224 -17.174 -34.779  0.00  0.00     0.089 C 
ATOM      5  C5  G0S d   1       9.569 -17.561 -35.351  0.00  0.00     0.087 C 
ATOM      6  O5  G0S d   1       9.496 -18.768 -36.189  0.00  0.00    -0.363 OA
ATOM      7  H   G0S d   1       8.853 -17.698 -37.748  0.00  0.00     0.104 H 
ATOM      8  H   G0S d   1       6.809 -19.311 -36.238  0.00  0.00     0.092 H 
ATOM      9  H   G0S d   1       7.440 -16.654 -36.473  0.00  0.00     0.091 H 
ATOM     10  H   G0S d   1       8.371 -16.123 -34.530  0.00  0.00     0.091 H 
ATOM     11  H   G0S d   1       9.868 -16.720 -35.976  0.00  0.00     0.090 H 
ENDROOT
BRANCH   1  12
ATOM     12  S1  G0S d   1       8.558 -20.004 -38.258  0.00  0.00    -0.135 SA
BRANCH  12  13
ATOM     13  C1A G0S d   1       9.853 -19.677 -39.416  0.00  0.00    -0.024 C 
ATOM     14  H   G0S d   1       9.839 -20.514 -40.115  0.00  0.00     0.048 H 
ATOM     15  H   G0S d   1      10.753 -19.535 -38.817  0.00  0.00     0.048 H 
BRANCH  13  16
ATOM     16  C2A G0S d   1       9.733 -18.447 -40.259  0.00  0.00    -0.068 C 
ATOM     17  H   G0S d   1       8.822 -18.503 -40.854  0.00  0.00     0.028 H 
ATOM     18  H   G0S d   1       9.694 -17.569 -39.615  0.00  0.00     0.028 H 
ATOM     19  H   G0S d   1      10.596 -18.376 -40.920  0.00  0.00     0.028 H 
ENDBRANCH  13  16
ENDBRANCH  12  13
ENDBRANCH   1  12
BRANCH   2  20
ATOM     20  O2  G0S d   1       6.260 -18.054 -37.743  0.00  0.00    -0.389 OA
ATOM     21  H   G0S d   1       6.556 -17.248 -38.173  0.00  0.00     0.210 HD
ENDBRANCH   2  20
BRANCH   3  22
ATOM     22  O3  G0S d   1       5.905 -16.726 -35.268  0.00  0.00    -0.390 OA
ATOM     23  H   G0S d   1       5.487 -16.313 -36.027  0.00  0.00     0.210 HD
ENDBRANCH   3  22
BRANCH   5  24
ATOM     24  C6  G0S d   1      10.574 -17.756 -34.318  0.00  0.00     0.043 C 
ATOM     25  H   G0S d   1      10.305 -18.671 -33.790  0.00  0.00     0.078 H 
ATOM     26  H   G0S d   1      10.577 -16.850 -33.712  0.00  0.00     0.078 H 
BRANCH  24  27
ATOM     27  O6  G0S d   1      11.869 -17.930 -34.775  0.00  0.00    -0.398 OA
ATOM     28  H   G0S d   1      12.458 -18.050 -34.026  0.00  0.00     0.209 HD
ENDBRANCH  24  27
ENDBRANCH   5  24
BRANCH   4  29
ATOM     29  O4  G0S d   1       7.864 -17.976 -33.644  0.00  0.00    -0.390 OA
ATOM     30  H   G0S d   1       8.559 -17.924 -32.983  0.00  0.00     0.210 HD
ENDBRANCH   4  29
TORSDOF 8
