REMARK WARNING: 32 MAX_TORS EXCEEDED!!!
REMARK  50 active torsions:
REMARK  status: ('A' for Active; 'I' for Inactive)
REMARK    1  A    between atoms: CA_2  and  N_1 
REMARK    2  A    between atoms: CA_2  and  C_3 
REMARK    3  A    between atoms: CB_5  and  CA_2 
REMARK    4  A    between atoms: CG_6  and  CB_5 
REMARK       I    between atoms: ND2_8  and  CG_6 
REMARK    5  A    between atoms: C1_10  and  ND2_8 
REMARK    6  A    between atoms: C2_11  and  N2_18 
REMARK    7  A    between atoms: C3_12  and  O3_19 
REMARK    8  A    between atoms: O4_20  and  C4_13 
REMARK    9  A    between atoms: C5_14  and  C6_15 
REMARK   10  A    between atoms: C6_15  and  O6_22 
REMARK   11  A    between atoms: C7_16  and  C8_17 
REMARK       I    between atoms: N2_18  and  C7_16 
REMARK   12  A    between atoms: C1_24  and  O4_20 
REMARK   13  A    between atoms: C2_25  and  N2_32 
REMARK   14  A    between atoms: C3_26  and  O3_33 
REMARK   15  A    between atoms: O4_34  and  C4_27 
REMARK   16  A    between atoms: C5_28  and  C6_29 
REMARK   17  A    between atoms: C6_29  and  O6_36 
REMARK   18  A    between atoms: C7_30  and  C8_31 
REMARK       I    between atoms: N2_32  and  C7_30 
REMARK   19  A    between atoms: C1_38  and  O4_34 
REMARK   20  A    between atoms: C2_39  and  O2_44 
REMARK   21  A    between atoms: C3_40  and  O3_45 
REMARK   22  A    between atoms: C4_41  and  O4_46 
REMARK   23  A    between atoms: C6_43  and  C5_42 
REMARK   24  A    between atoms: O6_48  and  C6_43 
REMARK   25  A    between atoms: O3_45  and  C1_49 
REMARK   26  A    between atoms: C1_74  and  O6_48 
REMARK   27  A    between atoms: C2_50  and  O2_55 
REMARK   28  A    between atoms: C3_51  and  O3_56 
REMARK   29  A    between atoms: C4_52  and  O4_57 
REMARK   30  A    between atoms: C5_53  and  C6_54 
REMARK   31  A    between atoms: C6_54  and  O6_59 
REMARK   32  A    between atoms: O2_55  and  C1_60 
REMARK   33  A    between atoms: C2_61  and  N2_68 
REMARK   34  A    between atoms: C3_62  and  O3_69 
REMARK   35  A    between atoms: C4_63  and  O4_70 
REMARK   36  A    between atoms: C5_64  and  C6_65 
REMARK   37  A    between atoms: C6_65  and  O6_72 
REMARK   38  A    between atoms: C7_66  and  C8_67 
REMARK       I    between atoms: N2_68  and  C7_66 
REMARK   39  A    between atoms: O2_80  and  C2_75 
REMARK   40  A    between atoms: C3_76  and  O3_81 
REMARK   41  A    between atoms: C4_77  and  O4_82 
REMARK   42  A    between atoms: C5_78  and  C6_79 
REMARK   43  A    between atoms: C6_79  and  O6_84 
REMARK   44  A    between atoms: C1_85  and  O2_80 
REMARK   45  A    between atoms: N2_93  and  C2_86 
REMARK   46  A    between atoms: C3_87  and  O3_94 
REMARK   47  A    between atoms: C4_88  and  O4_95 
REMARK   48  A    between atoms: C5_89  and  C6_90 
REMARK   49  A    between atoms: C6_90  and  O6_97 
REMARK   50  A    between atoms: C7_91  and  C8_92 
REMARK       I    between atoms: C7_91  and  N2_93 
ROOT
ATOM      1  H34 ASN d   1      37.273  13.000  44.457  0.00  0.00     0.133 H 
ATOM      2  H35 ASN d   1      37.455  10.614  44.247  0.00  0.00     0.094 H 
ATOM      3  H36 ASN d   1      35.266  11.561  44.356  0.00  0.00     0.091 H 
ATOM      4  H37 ASN d   1      35.402  11.345  47.399  0.00  0.00     0.091 H 
ATOM      5  H38 ASN d   1      35.438  13.836  45.619  0.00  0.00     0.090 H 
ATOM      6  C1  BMA d   1      37.636  12.452  45.339  0.00  0.00     0.159 C 
ATOM      7  C2  BMA d   1      37.150  11.014  45.225  0.00  0.00     0.110 C 
ATOM      8  C3  BMA d   1      35.622  11.060  45.268  0.00  0.00     0.098 C 
ATOM      9  C4  BMA d   1      35.112  11.867  46.475  0.00  0.00     0.090 C 
ATOM     10  C5  BMA d   1      35.751  13.273  46.510  0.00  0.00     0.089 C 
ATOM     11  O5  BMA d   1      37.171  13.109  46.499  0.00  0.00    -0.348 OA
ENDROOT
BRANCH   6  12
ATOM     12  O4  NAG d   1      39.063  12.508  45.367  0.00  0.00    -0.348 OA
BRANCH  12  13
ATOM     13  C4  NAG d   1      39.579  13.839  45.190  0.00  0.00     0.095 C 
ATOM     14  C3  NAG d   1      40.193  14.362  46.484  0.00  0.00     0.087 C 
ATOM     15  C2  NAG d   1      40.973  15.663  46.229  0.00  0.00     0.087 C 
ATOM     16  H23 ASN d   1      40.885  13.598  46.867  0.00  0.00     0.090 H 
ATOM     17  C1  NAG d   1      41.902  15.467  45.034  0.00  0.00     0.154 C 
ATOM     18  H22 ASN d   1      40.260  16.464  45.983  0.00  0.00     0.084 H 
ATOM     19  O5  NAG d   1      41.206  15.048  43.879  0.00  0.00    -0.349 OA
ATOM     20  H21 ASN d   1      42.664  14.710  45.273  0.00  0.00     0.132 H 
ATOM     21  C5  NAG d   1      40.612  13.770  44.042  0.00  0.00     0.089 C 
ATOM     22  H25 ASN d   1      41.389  13.041  44.316  0.00  0.00     0.090 H 
ATOM     23  H24 ASN d   1      38.760  14.513  44.898  0.00  0.00     0.091 H 
BRANCH  14  24
ATOM     24  O3  NAG d   1      39.200  14.636  47.496  0.00  0.00    -0.391 OA
ATOM     25  H32 ASN d   1      39.629  14.958  48.280  0.00  0.00     0.210 HD
ENDBRANCH  14  24
BRANCH  15  26
ATOM     26  N2  NAG d   1      41.684  16.042  47.439  0.00  0.00    -0.349 N 
ATOM     27  C7  NAG d   1      41.552  17.233  48.020  0.00  0.00     0.214 C 
ATOM     28  O7  NAG d   1      40.833  18.137  47.566  0.00  0.00    -0.274 OA
ATOM     29  H31 ASN d   1      42.303  15.376  47.855  0.00  0.00     0.163 HD
BRANCH  27  30
ATOM     30  C8  NAG d   1      42.306  17.465  49.298  0.00  0.00    -0.003 C 
ATOM     31  H28 ASN d   1      42.105  18.483  49.663  0.00  0.00     0.040 H 
ATOM     32  H29 ASN d   1      43.384  17.348  49.114  0.00  0.00     0.040 H 
ATOM     33  H30 ASN d   1      41.981  16.734  50.053  0.00  0.00     0.040 H 
ENDBRANCH  27  30
ENDBRANCH  15  26
BRANCH  17  34
ATOM     34  O4  NAG d   1      42.525  16.747  44.856  0.00  0.00    -0.348 OA
BRANCH  34  35
ATOM     35  C4  NAG d   1      43.583  16.717  43.897  0.00  0.00     0.095 C 
ATOM     36  C3  NAG d   1      43.334  17.866  42.922  0.00  0.00     0.086 C 
ATOM     37  C2  NAG d   1      44.457  18.002  41.906  0.00  0.00     0.081 C 
ATOM     38  H10 ASN d   1      43.253  18.801  43.496  0.00  0.00     0.090 H 
ATOM     39  C1  NAG d   1      45.835  17.982  42.556  0.00  0.00     0.128 C 
ATOM     40  H9  ASN d   1      44.404  17.157  41.204  0.00  0.00     0.083 H 
ATOM     41  O5  NAG d   1      45.954  16.967  43.558  0.00  0.00    -0.354 OA
ATOM     42  H8  ASN d   1      46.016  18.957  43.032  0.00  0.00     0.121 H 
ATOM     43  C5  NAG d   1      44.934  16.968  44.547  0.00  0.00     0.089 C 
ATOM     44  H12 ASN d   1      44.912  17.939  45.063  0.00  0.00     0.090 H 
ATOM     45  H11 ASN d   1      43.590  15.750  43.373  0.00  0.00     0.091 H 
BRANCH  36  46
ATOM     46  O3  NAG d   1      42.146  17.651  42.210  0.00  0.00    -0.391 OA
ATOM     47  H19 ASN d   1      41.419  17.597  42.819  0.00  0.00     0.210 HD
ENDBRANCH  36  46
BRANCH  37  48
ATOM     48  N2  NAG d   1      44.214  19.253  41.165  0.00  0.00    -0.350 N 
ATOM     49  C7  NAG d   1      44.227  19.289  39.833  0.00  0.00     0.214 C 
ATOM     50  O7  NAG d   1      44.481  18.311  39.117  0.00  0.00    -0.274 OA
ATOM     51  H18 ASN d   1      44.035  20.095  41.674  0.00  0.00     0.163 HD
BRANCH  49  52
ATOM     52  C8  NAG d   1      43.956  20.647  39.234  0.00  0.00    -0.003 C 
ATOM     53  H15 ASN d   1      43.987  20.577  38.137  0.00  0.00     0.040 H 
ATOM     54  H16 ASN d   1      44.721  21.359  39.578  0.00  0.00     0.040 H 
ATOM     55  H17 ASN d   1      42.962  20.996  39.551  0.00  0.00     0.040 H 
ENDBRANCH  49  52
ENDBRANCH  37  48
BRANCH  39  56
ATOM     56  ND2 ASN d   1      46.815  17.777  41.499  0.00  0.00    -0.333 N 
ATOM     57  CG  ASN d   1      47.919  18.527  41.507  0.00  0.00     0.222 C 
ATOM     58  OD1 ASN d   1      48.134  19.373  42.382  0.00  0.00    -0.273 OA
ATOM     59  H7  ASN d   1      46.665  17.092  40.786  0.00  0.00     0.165 HD
BRANCH  57  60
ATOM     60  CB  ASN d   1      48.920  18.295  40.371  0.00  0.00     0.045 C 
ATOM     61  H5  ASN d   1      49.646  17.533  40.691  0.00  0.00     0.051 H 
ATOM     62  H6  ASN d   1      48.373  17.933  39.488  0.00  0.00     0.051 H 
BRANCH  60  63
ATOM     63  CA  ASN d   1      49.680  19.569  39.990  0.00  0.00     0.190 C 
ATOM     64  H4  ASN d   1      50.292  19.373  39.097  0.00  0.00     0.102 H 
BRANCH  63  65
ATOM     65  N   ASN d   1      50.579  19.952  41.091  0.00  0.00    -0.065 N 
ATOM     66  H1  ASN d   1      51.229  19.203  41.270  0.00  0.00     0.275 HD
ATOM     67  H2  ASN d   1      50.036  20.132  41.921  0.00  0.00     0.275 HD
ATOM     68  H3  ASN d   1      51.088  20.784  40.835  0.00  0.00     0.275 HD
ENDBRANCH  63  65
BRANCH  63  69
ATOM     69  C   ASN d   1      48.651  20.660  39.648  0.00  0.00     0.205 C 
ATOM     70  O   ASN d   1      48.580  21.666  40.347  0.00  0.00    -0.646 OA
ATOM     71  OXT ASN d   1      47.822  20.531  38.721  0.00  0.00    -0.646 OA
ENDBRANCH  63  69
ENDBRANCH  60  63
ENDBRANCH  57  60
ENDBRANCH  39  56
BRANCH  43  72
ATOM     72  C6  NAG d   1      45.277  15.858  45.545  0.00  0.00     0.043 C 
ATOM     73  H13 ASN d   1      44.514  15.817  46.336  0.00  0.00     0.078 H 
ATOM     74  H14 ASN d   1      46.262  16.051  45.995  0.00  0.00     0.078 H 
BRANCH  72  75
ATOM     75  O6  NAG d   1      45.303  14.636  44.839  0.00  0.00    -0.398 OA
ATOM     76  H20 ASN d   1      45.514  13.930  45.438  0.00  0.00     0.209 HD
ENDBRANCH  72  75
ENDBRANCH  43  72
ENDBRANCH  34  35
ENDBRANCH  17  34
BRANCH  21  77
ATOM     77  C6  NAG d   1      39.999  13.347  42.727  0.00  0.00     0.043 C 
ATOM     78  H26 ASN d   1      39.577  12.336  42.828  0.00  0.00     0.078 H 
ATOM     79  H27 ASN d   1      40.773  13.345  41.946  0.00  0.00     0.078 H 
BRANCH  77  80
ATOM     80  O6  NAG d   1      38.978  14.247  42.372  0.00  0.00    -0.398 OA
ATOM     81  H33 ASN d   1      39.343  15.120  42.285  0.00  0.00     0.209 HD
ENDBRANCH  77  80
ENDBRANCH  21  77
ENDBRANCH  12  13
ENDBRANCH   6  12
BRANCH   7  82
ATOM     82  O2  BMA d   1      37.745  10.170  46.240  0.00  0.00    -0.388 OA
ATOM     83  H41 ASN d   1      38.691  10.190  46.153  0.00  0.00     0.210 HD
ENDBRANCH   7  82
BRANCH   8  84
ATOM     84  O3  BMA d   1      35.123   9.739  45.271  0.00  0.00    -0.348 OA
BRANCH  84  85
ATOM     85  C1  MAN d   1      34.461   9.347  44.035  0.00  0.00     0.159 C 
ATOM     86  C2  MAN d   1      33.663   8.064  44.276  0.00  0.00     0.116 C 
ATOM     87  C3  MAN d   1      34.618   6.905  44.504  0.00  0.00     0.092 C 
ATOM     88  H44 ASN d   1      33.018   8.195  45.157  0.00  0.00     0.095 H 
ATOM     89  C4  MAN d   1      35.585   6.829  43.318  0.00  0.00     0.090 C 
ATOM     90  H45 ASN d   1      35.188   7.069  45.430  0.00  0.00     0.091 H 
ATOM     91  C5  MAN d   1      36.297   8.159  43.102  0.00  0.00     0.089 C 
ATOM     92  H46 ASN d   1      35.012   6.578  42.413  0.00  0.00     0.091 H 
ATOM     93  O5  MAN d   1      35.345   9.187  42.949  0.00  0.00    -0.348 OA
ATOM     94  H47 ASN d   1      36.945   8.371  43.965  0.00  0.00     0.090 H 
ATOM     95  H43 ASN d   1      33.754  10.146  43.767  0.00  0.00     0.133 H 
BRANCH  86  96
ATOM     96  O2  MAN d   1      32.865   7.761  43.139  0.00  0.00    -0.346 OA
BRANCH  96  97
ATOM     97  C1  NAG d   1      31.565   8.360  43.122  0.00  0.00     0.154 C 
ATOM     98  C2  NAG d   1      31.206   8.437  41.636  0.00  0.00     0.087 C 
ATOM     99  C3  NAG d   1      29.810   9.004  41.522  0.00  0.00     0.086 C 
ATOM    100  H54 ASN d   1      31.238   7.438  41.176  0.00  0.00     0.084 H 
ATOM    101  C4  NAG d   1      28.845   8.150  42.349  0.00  0.00     0.089 C 
ATOM    102  H55 ASN d   1      29.790  10.045  41.876  0.00  0.00     0.090 H 
ATOM    103  C5  NAG d   1      29.310   8.083  43.801  0.00  0.00     0.089 C 
ATOM    104  H56 ASN d   1      28.782   7.138  41.924  0.00  0.00     0.091 H 
ATOM    105  O5  NAG d   1      30.652   7.588  43.840  0.00  0.00    -0.349 OA
ATOM    106  H57 ASN d   1      29.311   9.105  44.208  0.00  0.00     0.090 H 
ATOM    107  H53 ASN d   1      31.600   9.369  43.558  0.00  0.00     0.132 H 
BRANCH  98 108
ATOM    108  N2  NAG d   1      32.202   9.307  41.007  0.00  0.00    -0.349 N 
ATOM    109  C7  NAG d   1      33.213   8.880  40.259  0.00  0.00     0.214 C 
ATOM    110  O7  NAG d   1      33.418   7.692  39.986  0.00  0.00    -0.274 OA
ATOM    111  H63 ASN d   1      32.115  10.293  41.151  0.00  0.00     0.163 HD
BRANCH 109 112
ATOM    112  C8  NAG d   1      34.138   9.951  39.761  0.00  0.00    -0.003 C 
ATOM    113  H60 ASN d   1      34.935   9.495  39.156  0.00  0.00     0.040 H 
ATOM    114  H61 ASN d   1      34.584  10.478  40.617  0.00  0.00     0.040 H 
ATOM    115  H62 ASN d   1      33.573  10.666  39.144  0.00  0.00     0.040 H 
ENDBRANCH 109 112
ENDBRANCH  98 108
BRANCH  99 116
ATOM    116  O3  NAG d   1      29.432   8.938  40.165  0.00  0.00    -0.391 OA
ATOM    117  H64 ASN d   1      28.547   9.268  40.068  0.00  0.00     0.210 HD
ENDBRANCH  99 116
BRANCH 101 118
ATOM    118  O4  NAG d   1      27.584   8.766  42.343  0.00  0.00    -0.390 OA
ATOM    119  H65 ASN d   1      26.979   8.251  42.864  0.00  0.00     0.210 HD
ENDBRANCH 101 118
BRANCH 103 120
ATOM    120  C6  NAG d   1      28.359   7.243  44.664  0.00  0.00     0.043 C 
ATOM    121  H58 ASN d   1      27.358   7.698  44.638  0.00  0.00     0.078 H 
ATOM    122  H59 ASN d   1      28.731   7.234  45.699  0.00  0.00     0.078 H 
BRANCH 120 123
ATOM    123  O6  NAG d   1      28.271   5.916  44.198  0.00  0.00    -0.398 OA
ATOM    124  H66 ASN d   1      27.946   5.916  43.306  0.00  0.00     0.209 HD
ENDBRANCH 120 123
ENDBRANCH 103 120
ENDBRANCH  96  97
ENDBRANCH  86  96
BRANCH  87 125
ATOM    125  O3  MAN d   1      33.861   5.700  44.621  0.00  0.00    -0.390 OA
ATOM    126  H50 ASN d   1      33.360   5.564  43.825  0.00  0.00     0.210 HD
ENDBRANCH  87 125
BRANCH  89 127
ATOM    127  O4  MAN d   1      36.563   5.828  43.542  0.00  0.00    -0.390 OA
ATOM    128  H51 ASN d   1      36.133   4.992  43.678  0.00  0.00     0.210 HD
ENDBRANCH  89 127
BRANCH  91 129
ATOM    129  C6  MAN d   1      37.127   8.119  41.833  0.00  0.00     0.043 C 
ATOM    130  H48 ASN d   1      36.458   8.056  40.962  0.00  0.00     0.078 H 
ATOM    131  H49 ASN d   1      37.784   7.237  41.855  0.00  0.00     0.078 H 
BRANCH 129 132
ATOM    132  O6  MAN d   1      37.921   9.295  41.732  0.00  0.00    -0.398 OA
ATOM    133  H52 ASN d   1      37.355  10.057  41.711  0.00  0.00     0.209 HD
ENDBRANCH 129 132
ENDBRANCH  91 129
ENDBRANCH  84  85
ENDBRANCH   8  84
BRANCH  10 134
ATOM    134  C6  BMA d   1      35.330  14.048  47.759  0.00  0.00     0.049 C 
ATOM    135  H39 ASN d   1      34.233  14.126  47.790  0.00  0.00     0.078 H 
ATOM    136  H40 ASN d   1      35.769  15.056  47.730  0.00  0.00     0.078 H 
BRANCH 134 137
ATOM    137  O6  BMA d   1      35.791  13.361  48.924  0.00  0.00    -0.356 OA
BRANCH 137 138
ATOM    138  C1  MAN d   1      34.928  13.671  50.038  0.00  0.00     0.159 C 
ATOM    139  C2  MAN d   1      35.802  13.687  51.305  0.00  0.00     0.116 C 
ATOM    140  C3  MAN d   1      36.196  12.280  51.720  0.00  0.00     0.092 C 
ATOM    141  H68 ASN d   1      36.715  14.277  51.133  0.00  0.00     0.095 H 
ATOM    142  C4  MAN d   1      34.992  11.376  51.777  0.00  0.00     0.090 C 
ATOM    143  H69 ASN d   1      36.888  11.873  50.968  0.00  0.00     0.091 H 
ATOM    144  C5  MAN d   1      34.301  11.413  50.421  0.00  0.00     0.089 C 
ATOM    145  H70 ASN d   1      34.300  11.698  52.569  0.00  0.00     0.091 H 
ATOM    146  O5  MAN d   1      33.847  12.747  50.145  0.00  0.00    -0.348 OA
ATOM    147  H71 ASN d   1      35.014  11.097  49.645  0.00  0.00     0.090 H 
ATOM    148  H67 ASN d   1      34.502  14.674  49.889  0.00  0.00     0.133 H 
BRANCH 139 149
ATOM    149  O2  MAN d   1      34.999  14.306  52.272  0.00  0.00    -0.346 OA
BRANCH 149 150
ATOM    150  C1  NAG d   1      35.561  15.468  52.918  0.00  0.00     0.154 C 
ATOM    151  C2  NAG d   1      34.457  16.352  53.466  0.00  0.00     0.087 C 
ATOM    152  C3  NAG d   1      35.100  17.525  54.209  0.00  0.00     0.086 C 
ATOM    153  H78 ASN d   1      33.845  15.768  54.169  0.00  0.00     0.084 H 
ATOM    154  C4  NAG d   1      36.157  17.086  55.206  0.00  0.00     0.089 C 
ATOM    155  H79 ASN d   1      35.601  18.153  53.458  0.00  0.00     0.090 H 
ATOM    156  C5  NAG d   1      37.153  16.110  54.591  0.00  0.00     0.089 C 
ATOM    157  H80 ASN d   1      35.633  16.556  56.015  0.00  0.00     0.091 H 
ATOM    158  O5  NAG d   1      36.466  15.073  53.899  0.00  0.00    -0.349 OA
ATOM    159  H81 ASN d   1      37.761  16.676  53.870  0.00  0.00     0.090 H 
ATOM    160  H77 ASN d   1      36.113  16.049  52.164  0.00  0.00     0.132 H 
BRANCH 151 161
ATOM    161  N2  NAG d   1      33.591  16.851  52.387  0.00  0.00    -0.349 N 
ATOM    162  C7  NAG d   1      32.279  16.978  52.520  0.00  0.00     0.214 C 
ATOM    163  O7  NAG d   1      31.693  16.711  53.582  0.00  0.00    -0.274 OA
ATOM    164  H87 ASN d   1      34.011  17.105  51.516  0.00  0.00     0.163 HD
BRANCH 162 165
ATOM    165  C8  NAG d   1      31.530  17.505  51.324  0.00  0.00    -0.003 C 
ATOM    166  H84 ASN d   1      30.457  17.563  51.560  0.00  0.00     0.040 H 
ATOM    167  H85 ASN d   1      31.681  16.829  50.469  0.00  0.00     0.040 H 
ATOM    168  H86 ASN d   1      31.904  18.507  51.069  0.00  0.00     0.040 H 
ENDBRANCH 162 165
ENDBRANCH 151 161
BRANCH 152 169
ATOM    169  O3  NAG d   1      34.100  18.324  54.846  0.00  0.00    -0.391 OA
ATOM    170  H88 ASN d   1      33.450  18.587  54.205  0.00  0.00     0.210 HD
ENDBRANCH 152 169
BRANCH 154 171
ATOM    171  O4  NAG d   1      36.853  18.195  55.803  0.00  0.00    -0.390 OA
ATOM    172  H89 ASN d   1      37.360  18.645  55.137  0.00  0.00     0.210 HD
ENDBRANCH 154 171
BRANCH 156 173
ATOM    173  C6  NAG d   1      38.102  15.441  55.579  0.00  0.00     0.043 C 
ATOM    174  H82 ASN d   1      37.545  14.702  56.174  0.00  0.00     0.078 H 
ATOM    175  H83 ASN d   1      38.528  16.204  56.247  0.00  0.00     0.078 H 
BRANCH 173 176
ATOM    176  O6  NAG d   1      39.146  14.792  54.888  0.00  0.00    -0.398 OA
ATOM    177  H90 ASN d   1      38.780  14.132  54.312  0.00  0.00     0.209 HD
ENDBRANCH 173 176
ENDBRANCH 156 173
ENDBRANCH 149 150
ENDBRANCH 139 149
BRANCH 140 178
ATOM    178  O3  MAN d   1      36.883  12.353  52.972  0.00  0.00    -0.390 OA
ATOM    179  H74 ASN d   1      37.632  12.932  52.888  0.00  0.00     0.210 HD
ENDBRANCH 140 178
BRANCH 142 180
ATOM    180  O4  MAN d   1      35.458  10.069  52.028  0.00  0.00    -0.390 OA
ATOM    181  H75 ASN d   1      34.723   9.467  52.029  0.00  0.00     0.210 HD
ENDBRANCH 142 180
BRANCH 144 182
ATOM    182  C6  MAN d   1      33.096  10.491  50.403  0.00  0.00     0.043 C 
ATOM    183  H72 ASN d   1      33.421   9.476  50.677  0.00  0.00     0.078 H 
ATOM    184  H73 ASN d   1      32.673  10.479  49.388  0.00  0.00     0.078 H 
BRANCH 182 185
ATOM    185  O6  MAN d   1      32.085  10.912  51.317  0.00  0.00    -0.398 OA
ATOM    186  H76 ASN d   1      32.440  10.919  52.198  0.00  0.00     0.209 HD
ENDBRANCH 182 185
ENDBRANCH 144 182
ENDBRANCH 137 138
ENDBRANCH 134 137
ENDBRANCH  10 134
BRANCH   9 187
ATOM    187  O4  BMA d   1      33.702  11.894  46.403  0.00  0.00    -0.390 OA
ATOM    188  H42 ASN d   1      33.370  11.004  46.385  0.00  0.00     0.210 HD
ENDBRANCH   9 187
TORSDOF 50
