REMARK  6 active torsions:
REMARK  status: ('A' for Active; 'I' for Inactive)
REMARK    1  A    between atoms: CA_1  and  C_2 
REMARK    2  A    between atoms: CA_1  and  CB_5 
REMARK    3  A    between atoms: N2_13  and  CA_1 
REMARK    4  A    between atoms: CB_5  and  CG_6 
REMARK    5  A    between atoms: CG_6  and  CD_7 
REMARK    6  A    between atoms: C7_10  and  C8_11 
REMARK       I    between atoms: C7_10  and  N2_13 
ROOT
ATOM      1  CA  NLG d   1       6.375  32.307   2.419  0.00  0.00     0.096 C 
ATOM      2  H1  NLG d   1       6.456  33.399   2.520  0.00  0.00     0.089 H 
ENDROOT
BRANCH   1   3
ATOM      3  C   NLG d   1       7.556  31.784   1.576  0.00  0.00     0.196 C 
ATOM      4  OXT NLG d   1       8.613  32.460   1.600  0.00  0.00    -0.646 OA
ATOM      5  O   NLG d   1       7.394  30.720   0.928  0.00  0.00    -0.646 OA
ENDBRANCH   1   3
BRANCH   1   6
ATOM      6  CB  NLG d   1       6.378  31.652   3.803  0.00  0.00    -0.028 C 
ATOM      7  H2  NLG d   1       6.112  30.591   3.687  0.00  0.00     0.037 H 
ATOM      8  H3  NLG d   1       5.624  32.153   4.428  0.00  0.00     0.037 H 
BRANCH   6   9
ATOM      9  CG  NLG d   1       7.731  31.739   4.512  0.00  0.00     0.018 C 
ATOM     10  H4  NLG d   1       8.529  31.627   3.763  0.00  0.00     0.049 H 
ATOM     11  H5  NLG d   1       7.798  30.921   5.244  0.00  0.00     0.049 H 
BRANCH   9  12
ATOM     12  CD  NLG d   1       7.929  33.069   5.244  0.00  0.00     0.172 C 
ATOM     13  OE1 NLG d   1       9.066  33.252   5.717  0.00  0.00    -0.648 OA
ATOM     14  OE2 NLG d   1       6.972  33.880   5.285  0.00  0.00    -0.648 OA
ENDBRANCH   9  12
ENDBRANCH   6   9
ENDBRANCH   1   6
BRANCH   1  15
ATOM     15  N2  NLG d   1       5.095  31.955   1.781  0.00  0.00    -0.347 N 
ATOM     16  C7  NLG d   1       4.486  32.687   0.854  0.00  0.00     0.214 C 
ATOM     17  O7  NLG d   1       4.936  33.743   0.421  0.00  0.00    -0.274 OA
ATOM     18  H9  NLG d   1       4.653  31.105   2.066  0.00  0.00     0.163 HD
BRANCH  16  19
ATOM     19  C8  NLG d   1       3.269  32.226   0.346  0.00  0.00    -0.003 C 
ATOM     20  H6  NLG d   1       3.005  31.275   0.832  0.00  0.00     0.040 H 
ATOM     21  H7  NLG d   1       3.360  32.070  -0.739  0.00  0.00     0.040 H 
ATOM     22  H8  NLG d   1       2.483  32.970   0.545  0.00  0.00     0.040 H 
ENDBRANCH  16  19
ENDBRANCH   1  15
TORSDOF 6
