REMARK  6 active torsions:
REMARK  status: ('A' for Active; 'I' for Inactive)
REMARK    1  A    between atoms: N_1  and  CA_2 
REMARK    2  A    between atoms: CA_2  and  C_3 
REMARK    3  A    between atoms: CA_2  and  CB_5 
REMARK    4  A    between atoms: CB_5  and  CG_6 
REMARK    5  A    between atoms: CG_6  and  CD_7 
REMARK    6  A    between atoms: CD_7  and  NE_8 
REMARK       I    between atoms: NE_8  and  CZ_9 
REMARK       I    between atoms: CZ_9  and  NH1_10 
ROOT
ATOM      1  CG  ARG d   1     -29.695  49.487 -70.342  0.00  0.00    -0.047 C 
ATOM      2  H7  ARG d   1     -30.088  48.681 -70.978  0.00  0.00     0.035 H 
ATOM      3  H8  ARG d   1     -28.693  49.213 -69.980  0.00  0.00     0.035 H 
ENDROOT
BRANCH   1   4
ATOM      4  CB  ARG d   1     -30.619  49.661 -69.143  0.00  0.00    -0.028 C 
ATOM      5  H5  ARG d   1     -30.180  50.418 -68.477  0.00  0.00     0.036 H 
ATOM      6  H6  ARG d   1     -31.594  50.016 -69.509  0.00  0.00     0.036 H 
BRANCH   4   7
ATOM      7  CA  ARG d   1     -30.849  48.381 -68.328  0.00  0.00     0.182 C 
ATOM      8  H4  ARG d   1     -31.465  48.627 -67.450  0.00  0.00     0.101 H 
BRANCH   7   9
ATOM      9  N   ARG d   1     -29.555  47.807 -67.857  0.00  0.00    -0.065 N 
ATOM     10  H1  ARG d   1     -29.071  48.488 -67.293  0.00  0.00     0.275 HD
ATOM     11  H2  ARG d   1     -28.986  47.564 -68.653  0.00  0.00     0.275 HD
ATOM     12  H3  ARG d   1     -29.734  46.981 -67.307  0.00  0.00     0.275 HD
ENDBRANCH   7   9
BRANCH   7  13
ATOM     13  C   ARG d   1     -31.587  47.365 -69.178  0.00  0.00     0.204 C 
ATOM     14  O   ARG d   1     -32.775  47.522 -69.452  0.00  0.00    -0.646 OA
ATOM     15  OXT ARG d   1     -30.996  46.379 -69.617  0.00  0.00    -0.646 OA
ENDBRANCH   7  13
ENDBRANCH   4   7
ENDBRANCH   1   4
BRANCH   1  16
ATOM     16  CD  ARG d   1     -29.585  50.762 -71.176  0.00  0.00     0.009 C 
ATOM     17  H9  ARG d   1     -29.097  51.542 -70.573  0.00  0.00     0.064 H 
ATOM     18  H10 ARG d   1     -30.596  51.094 -71.456  0.00  0.00     0.064 H 
BRANCH  16  19
ATOM     19  NE  ARG d   1     -28.803  50.544 -72.393  0.00  0.00    -0.227 N 
ATOM     20  CZ  ARG d   1     -28.448  51.501 -73.251  0.00  0.00     0.665 C 
ATOM     21  NH1 ARG d   1     -28.805  52.767 -73.047  0.00  0.00    -0.235 N 
ATOM     22  NH2 ARG d   1     -27.727  51.188 -74.324  0.00  0.00    -0.235 N 
ATOM     23  H12 ARG d   1     -28.524  53.496 -73.718  0.00  0.00     0.174 HD
ATOM     24  H13 ARG d   1     -29.363  53.018 -72.218  0.00  0.00     0.174 HD
ATOM     25  H14 ARG d   1     -27.447  50.211 -74.489  0.00  0.00     0.174 HD
ATOM     26  H15 ARG d   1     -27.449  51.923 -74.990  0.00  0.00     0.174 HD
ATOM     27  H11 ARG d   1     -28.505  49.581 -72.603  0.00  0.00     0.177 HD
ENDBRANCH  16  19
ENDBRANCH   1  16
TORSDOF 6
