REMARK  28 active torsions:
REMARK  status: ('A' for Active; 'I' for Inactive)
REMARK    1  A    between atoms: N_1  and  CA_2 
REMARK    2  A    between atoms: CA_2  and  C_3 
REMARK    3  A    between atoms: CA_2  and  CB_5 
REMARK       I    between atoms: C_3  and  N_6 
REMARK    4  A    between atoms: N_6  and  CA_7 
REMARK    5  A    between atoms: CA_7  and  C_8 
REMARK    6  A    between atoms: CA_7  and  CB_10 
REMARK       I    between atoms: C_8  and  N_17 
REMARK    7  A    between atoms: CB_10  and  CG_11 
REMARK    8  A    between atoms: CG_11  and  CD_12 
REMARK    9  A    between atoms: CD_12  and  NE_13 
REMARK       I    between atoms: NE_13  and  CZ_14 
REMARK       I    between atoms: CZ_14  and  NH1_15 
REMARK   10  A    between atoms: N_17  and  CA_18 
REMARK   11  A    between atoms: CA_18  and  CB_19 
REMARK   12  A    between atoms: CA_18  and  C_26 
REMARK   13  A    between atoms: CB_19  and  CG2_20 
REMARK   14  A    between atoms: CB_19  and  OG1_21 
REMARK   15  A    between atoms: OG1_21  and  P_22 
REMARK       I    between atoms: C_26  and  N_28 
REMARK   16  A    between atoms: N_28  and  CA_29 
REMARK   17  A    between atoms: CA_29  and  C_30 
REMARK   18  A    between atoms: CA_29  and  CB_32 
REMARK       I    between atoms: C_30  and  N_37 
REMARK   19  A    between atoms: CB_32  and  CG_33 
REMARK   20  A    between atoms: CG_33  and  CD_34 
REMARK   21  A    between atoms: CD_34  and  CE_35 
REMARK   22  A    between atoms: CE_35  and  NZ_36 
REMARK   23  A    between atoms: N_37  and  CA_38 
REMARK   24  A    between atoms: CA_38  and  C_39 
REMARK   25  A    between atoms: CA_38  and  CB_41 
REMARK       I    between atoms: C_39  and  N_42 
REMARK   26  A    between atoms: N_42  and  CA_43 
REMARK   27  A    between atoms: CA_43  and  C_44 
REMARK   28  A    between atoms: CA_43  and  CB_46 
ROOT
ATOM      1  CA  TPO d   1      -2.230 -38.841  35.041  0.00  0.00     0.114 C 
ATOM      2  H   TPO d   1      -1.725 -38.528  34.127  0.00  0.00     0.091 H 
ENDROOT
BRANCH   1   3
ATOM      3  N   TPO d   1      -2.905 -40.117  34.836  0.00  0.00    -0.344 N 
ATOM      4  C   ARG d   1      -2.279 -41.151  34.282  0.00  0.00     0.241 C 
ATOM      5  O   ARG d   1      -1.206 -41.050  33.692  0.00  0.00    -0.271 OA
ATOM      6  H   TPO d   1      -3.878 -40.219  35.124  0.00  0.00     0.163 HD
BRANCH   4   7
ATOM      7  CA  ARG d   1      -2.952 -42.507  34.437  0.00  0.00     0.089 C 
ATOM      8  H   ARG d   1      -4.032 -42.403  34.337  0.00  0.00     0.087 H 
BRANCH   7   9
ATOM      9  N   ARG d   1      -2.533 -43.438  33.389  0.00  0.00    -0.346 N 
ATOM     10  C   ALA d   1      -3.282 -43.665  32.313  0.00  0.00     0.248 C 
ATOM     11  O   ALA d   1      -4.373 -43.128  32.136  0.00  0.00    -0.271 OA
ATOM     12  H   ARG d   1      -1.643 -43.926  33.486  0.00  0.00     0.163 HD
BRANCH  10  13
ATOM     13  CA  ALA d   1      -2.721 -44.646  31.280  0.00  0.00     0.172 C 
ATOM     14  H   ALA d   1      -2.667 -45.621  31.764  0.00  0.00     0.098 H 
BRANCH  13  15
ATOM     15  N   ALA d   1      -3.591 -44.781  30.114  0.00  0.00    -0.067 N 
ATOM     16  H   ALA d   1      -4.522 -45.066  30.417  0.00  0.00     0.275 HD
ATOM     17  H   ALA d   1      -3.649 -43.886  29.629  0.00  0.00     0.275 HD
ATOM     18  H   ALA d   1      -3.207 -45.486  29.485  0.00  0.00     0.275 HD
ENDBRANCH  13  15
BRANCH  13  19
ATOM     19  CB  ALA d   1      -1.341 -44.226  30.848  0.00  0.00    -0.042 C 
ATOM     20  H   ALA d   1      -1.388 -43.232  30.404  0.00  0.00     0.030 H 
ATOM     21  H   ALA d   1      -0.680 -44.208  31.715  0.00  0.00     0.030 H 
ATOM     22  H   ALA d   1      -0.960 -44.936  30.114  0.00  0.00     0.030 H 
ENDBRANCH  13  19
ENDBRANCH  10  13
ENDBRANCH   7   9
BRANCH   7  23
ATOM     23  CB  ARG d   1      -2.589 -43.040  35.827  0.00  0.00    -0.036 C 
ATOM     24  H   ARG d   1      -2.968 -42.311  36.543  0.00  0.00     0.036 H 
ATOM     25  H   ARG d   1      -1.509 -43.190  35.825  0.00  0.00     0.036 H 
BRANCH  23  26
ATOM     26  CG  ARG d   1      -3.201 -44.366  36.207  0.00  0.00    -0.048 C 
ATOM     27  H   ARG d   1      -2.823 -45.141  35.541  0.00  0.00     0.035 H 
ATOM     28  H   ARG d   1      -4.285 -44.300  36.120  0.00  0.00     0.035 H 
BRANCH  26  29
ATOM     29  CD  ARG d   1      -2.832 -44.712  37.641  0.00  0.00     0.009 C 
ATOM     30  H   ARG d   1      -2.977 -45.783  37.783  0.00  0.00     0.064 H 
ATOM     31  H   ARG d   1      -3.464 -44.126  38.308  0.00  0.00     0.064 H 
BRANCH  29  32
ATOM     32  NE  ARG d   1      -1.434 -44.394  37.934  0.00  0.00    -0.227 N 
ATOM     33  CZ  ARG d   1      -0.414 -45.224  37.728  0.00  0.00     0.665 C 
ATOM     34  NH1 ARG d   1      -0.625 -46.431  37.222  0.00  0.00    -0.235 N 
ATOM     35  NH2 ARG d   1       0.821 -44.849  38.028  0.00  0.00    -0.235 N 
ATOM     36  H   ARG d   1      -1.573 -46.728  36.989  0.00  0.00     0.174 HD
ATOM     37  H   ARG d   1       0.160 -47.063  37.066  0.00  0.00     0.174 HD
ATOM     38  H   ARG d   1       0.992 -43.922  38.418  0.00  0.00     0.174 HD
ATOM     39  H   ARG d   1       1.601 -45.487  37.869  0.00  0.00     0.174 HD
ATOM     40  H   ARG d   1      -1.227 -43.474  38.322  0.00  0.00     0.177 HD
ENDBRANCH  29  32
ENDBRANCH  26  29
ENDBRANCH  23  26
ENDBRANCH   7  23
ENDBRANCH   4   7
ENDBRANCH   1   3
BRANCH   1  41
ATOM     41  CB  TPO d   1      -3.243 -37.739  35.397  0.00  0.00     0.076 C 
ATOM     42  H   TPO d   1      -3.898 -38.131  36.175  0.00  0.00     0.087 H 
BRANCH  41  43
ATOM     43  CG2 TPO d   1      -2.527 -36.491  35.928  0.00  0.00    -0.049 C 
ATOM     44  H   TPO d   1      -1.961 -36.751  36.823  0.00  0.00     0.031 H 
ATOM     45  H   TPO d   1      -1.848 -36.111  35.165  0.00  0.00     0.031 H 
ATOM     46  H   TPO d   1      -3.265 -35.727  36.172  0.00  0.00     0.031 H 
ENDBRANCH  41  43
BRANCH  41  47
ATOM     47  OG1 TPO d   1      -4.031 -37.386  34.254  0.00  0.00    -0.275 OA
BRANCH  47  48
ATOM     48  P   TPO d   1      -5.484 -36.947  34.793  0.00  0.00     0.422 P 
ATOM     49  O1P TPO d   1      -6.542 -37.452  33.888  0.00  0.00    -0.617 OA
ATOM     50  O2P TPO d   1      -5.674 -37.546  36.276  0.00  0.00    -0.617 OA
ATOM     51  O3P TPO d   1      -5.597 -35.342  34.853  0.00  0.00    -0.617 OA
ENDBRANCH  47  48
ENDBRANCH  41  47
ENDBRANCH   1  41
BRANCH   1  52
ATOM     52  C   TPO d   1      -1.217 -39.032  36.169  0.00  0.00     0.243 C 
ATOM     53  O   TPO d   1      -1.533 -39.626  37.201  0.00  0.00    -0.271 OA
ATOM     54  N   LYS d   1       0.002 -38.544  35.967  0.00  0.00    -0.346 N 
ATOM     55  H   LYS d   1       0.198 -38.040  35.102  0.00  0.00     0.163 HD
BRANCH  54  56
ATOM     56  CA  LYS d   1       1.070 -38.711  36.952  0.00  0.00     0.089 C 
ATOM     57  H   LYS d   1       1.268 -39.781  37.017  0.00  0.00     0.087 H 
BRANCH  56  58
ATOM     58  C   LYS d   1       0.662 -38.236  38.348  0.00  0.00     0.241 C 
ATOM     59  O   LYS d   1      -0.127 -37.297  38.494  0.00  0.00    -0.271 OA
ATOM     60  N   GLN d   1       1.206 -38.892  39.368  0.00  0.00    -0.346 N 
ATOM     61  H   GLN d   1       1.828 -39.678  39.178  0.00  0.00     0.163 HD
BRANCH  60  62
ATOM     62  CA  GLN d   1       0.937 -38.517  40.750  0.00  0.00     0.086 C 
ATOM     63  H   GLN d   1       0.304 -37.630  40.757  0.00  0.00     0.086 H 
BRANCH  62  64
ATOM     64  C   GLN d   1       2.240 -38.175  41.476  0.00  0.00     0.240 C 
ATOM     65  O   GLN d   1       3.266 -38.823  41.265  0.00  0.00    -0.271 OA
ATOM     66  N   THR d   1       2.193 -37.147  42.321  0.00  0.00    -0.345 N 
ATOM     67  H   THR d   1       1.311 -36.649  42.437  0.00  0.00     0.163 HD
BRANCH  66  68
ATOM     68  CA  THR d   1       3.359 -36.703  43.091  0.00  0.00     0.093 C 
ATOM     69  H   THR d   1       2.987 -35.915  43.746  0.00  0.00     0.089 H 
BRANCH  68  70
ATOM     70  C   THR d   1       4.463 -36.098  42.216  0.00  0.00     0.196 C 
ATOM     71  O   THR d   1       5.015 -35.036  42.531  0.00  0.00    -0.646 OA
ATOM     72  O1  THR d   1       4.814 -36.691  41.161  0.00  0.00    -0.646 OA
ENDBRANCH  68  70
BRANCH  68  73
ATOM     73  CB  THR d   1       3.947 -37.843  43.959  0.00  0.00    -0.048 C 
ATOM     74  H   THR d   1       3.188 -38.193  44.659  0.00  0.00     0.030 H 
ATOM     75  H   THR d   1       4.256 -38.666  43.315  0.00  0.00     0.030 H 
ATOM     76  H   THR d   1       4.809 -37.469  44.512  0.00  0.00     0.030 H 
ENDBRANCH  68  73
ENDBRANCH  66  68
ENDBRANCH  62  64
BRANCH  62  77
ATOM     77  CB  GLN d   1       0.195 -39.647  41.466  0.00  0.00    -0.049 C 
ATOM     78  H   GLN d   1      -0.749 -39.840  40.957  0.00  0.00     0.030 H 
ATOM     79  H   GLN d   1       0.808 -40.548  41.452  0.00  0.00     0.030 H 
ATOM     80  H   GLN d   1      -0.000 -39.355  42.498  0.00  0.00     0.030 H 
ENDBRANCH  62  77
ENDBRANCH  60  62
ENDBRANCH  56  58
BRANCH  56  81
ATOM     81  CB  LYS d   1       2.344 -37.984  36.502  0.00  0.00    -0.038 C 
ATOM     82  H   LYS d   1       2.093 -36.930  36.384  0.00  0.00     0.036 H 
ATOM     83  H   LYS d   1       2.683 -38.460  35.582  0.00  0.00     0.036 H 
BRANCH  81  84
ATOM     84  CG  LYS d   1       3.486 -38.070  37.506  0.00  0.00    -0.061 C 
ATOM     85  H   LYS d   1       3.949 -39.051  37.402  0.00  0.00     0.033 H 
ATOM     86  H   LYS d   1       3.071 -37.903  38.500  0.00  0.00     0.033 H 
BRANCH  84  87
ATOM     87  CD  LYS d   1       4.565 -37.015  37.266  0.00  0.00    -0.043 C 
ATOM     88  H   LYS d   1       4.101 -36.030  37.213  0.00  0.00     0.035 H 
ATOM     89  H   LYS d   1       5.079 -37.232  36.330  0.00  0.00     0.035 H 
BRANCH  87  90
ATOM     90  CE  LYS d   1       5.574 -37.036  38.412  0.00  0.00     0.080 C 
ATOM     91  H   LYS d   1       6.145 -37.961  38.333  0.00  0.00     0.075 H 
ATOM     92  H   LYS d   1       5.016 -36.955  39.345  0.00  0.00     0.075 H 
BRANCH  90  93
ATOM     93  NZ  LYS d   1       6.538 -35.906  38.363  0.00  0.00    -0.079 N 
ATOM     94  H   LYS d   1       7.182 -35.976  39.151  0.00  0.00     0.274 HD
ATOM     95  H   LYS d   1       7.062 -35.946  37.489  0.00  0.00     0.274 HD
ATOM     96  H   LYS d   1       6.029 -35.024  38.416  0.00  0.00     0.274 HD
ENDBRANCH  90  93
ENDBRANCH  87  90
ENDBRANCH  84  87
ENDBRANCH  81  84
ENDBRANCH  56  81
ENDBRANCH  54  56
ENDBRANCH   1  52
TORSDOF 28
