REMARK  7 active torsions:
REMARK  status: ('A' for Active; 'I' for Inactive)
REMARK    1  A    between atoms: CAT_19  and  CAL_20 
REMARK    2  A    between atoms: CAL_20  and  CAJ_21 
REMARK    3  A    between atoms: CAJ_21  and  CAK_22 
REMARK    4  A    between atoms: CAK_22  and  CAM_23 
REMARK    5  A    between atoms: CAM_23  and  NBD_24 
REMARK    6  A    between atoms: CAW_28  and  CAI_29 
REMARK    7  A    between atoms: CAI_29  and  OAB_30 
ROOT
ATOM      1  CAN H34 d   1       9.954 -25.165  92.771  0.00  0.00    -0.037 C 
ATOM      2  CBC H34 d   1       8.914 -25.768  93.668  0.00  0.00    -0.020 C 
ATOM      3  CAP H34 d   1       7.959 -26.678  92.763  0.00  0.00    -0.051 C 
ATOM      4  CAY H34 d   1       8.241 -24.694  94.272  0.00  0.00    -0.002 A 
ATOM      5  CAV H34 d   1       8.850 -24.013  95.349  0.00  0.00     0.047 A 
ATOM      6  NAA H34 d   1      10.041 -24.421  95.816  0.00  0.00    -0.398 N 
ATOM      7  CBA H34 d   1       8.206 -22.947  95.981  0.00  0.00     0.019 A 
ATOM      8  CAF H34 d   1       8.776 -22.284  97.086  0.00  0.00    -0.067 A 
ATOM      9  CAE H34 d   1       8.096 -21.187  97.665  0.00  0.00    -0.061 A 
ATOM     10  CAU H34 d   1       6.837 -20.813  97.128  0.00  0.00     0.036 A 
ATOM     11 CL1  H34 d   1       5.946 -19.496  97.747  0.00  0.00    -0.084 Cl
ATOM     12  CAG H34 d   1       6.257 -21.488  96.030  0.00  0.00    -0.033 A 
ATOM     13  CAZ H34 d   1       6.938 -22.568  95.452  0.00  0.00     0.071 A 
ATOM     14  NAS H34 d   1       6.362 -23.220  94.423  0.00  0.00    -0.252 NA
ATOM     15  CAX H34 d   1       6.955 -24.278  93.822  0.00  0.00     0.044 A 
ATOM     16  CAO H34 d   1       6.281 -24.906  92.707  0.00  0.00    -0.018 C 
ATOM     17  CBB H34 d   1       7.247 -25.751  91.826  0.00  0.00    -0.032 C 
ATOM     18  CAD H34 d   1       8.156 -24.948  91.065  0.00  0.00    -0.096 C 
ATOM     19  CAT H34 d   1       9.444 -24.632  91.521  0.00  0.00    -0.083 C 
ATOM     20  H1  H34 d   1      10.695 -25.943  92.534  0.00  0.00     0.040 H 
ATOM     21  H2  H34 d   1      10.444 -24.346  93.318  0.00  0.00     0.040 H 
ATOM     22  H3  H34 d   1       9.383 -26.392  94.443  0.00  0.00     0.048 H 
ATOM     23  H4  H34 d   1       7.233 -27.211  93.394  0.00  0.00     0.035 H 
ATOM     24  H5  H34 d   1       8.556 -27.407  92.195  0.00  0.00     0.035 H 
ATOM     25  H6  H34 d   1      10.531 -25.206  95.363  0.00  0.00     0.156 HD
ATOM     26  H7  H34 d   1      10.465 -23.949  96.628  0.00  0.00     0.156 HD
ATOM     27  H8  H34 d   1       9.727 -22.612  97.489  0.00  0.00     0.085 H 
ATOM     28  H9  H34 d   1       8.527 -20.645  98.499  0.00  0.00     0.086 H 
ATOM     29  H10 H34 d   1       5.296 -21.174  95.639  0.00  0.00     0.089 H 
ATOM     30  H11 H34 d   1       5.828 -24.122  92.082  0.00  0.00     0.043 H 
ATOM     31  H12 H34 d   1       5.492 -25.565  93.098  0.00  0.00     0.043 H 
ATOM     32  H13 H34 d   1       6.653 -26.346  91.117  0.00  0.00     0.046 H 
ATOM     33  H14 H34 d   1       7.835 -24.569  90.096  0.00  0.00     0.077 H 
ENDROOT
BRANCH  19  34
ATOM     34  CAL H34 d   1      10.309 -23.775  90.717  0.00  0.00    -0.045 C 
ATOM     35  H15 H34 d   1       9.723 -23.370  89.879  0.00  0.00     0.039 H 
ATOM     36  H16 H34 d   1      11.140 -24.381  90.326  0.00  0.00     0.039 H 
BRANCH  34  37
ATOM     37  CAJ H34 d   1      10.917 -22.551  91.557  0.00  0.00    -0.060 C 
ATOM     38  H17 H34 d   1      11.564 -22.957  92.349  0.00  0.00     0.033 H 
ATOM     39  H18 H34 d   1      10.086 -21.992  92.013  0.00  0.00     0.033 H 
BRANCH  37  40
ATOM     40  CAK H34 d   1      11.733 -21.596  90.710  0.00  0.00    -0.048 C 
ATOM     41  H19 H34 d   1      11.093 -21.160  89.929  0.00  0.00     0.035 H 
ATOM     42  H20 H34 d   1      12.565 -22.142  90.240  0.00  0.00     0.035 H 
BRANCH  40  43
ATOM     43  CAM H34 d   1      12.298 -20.465  91.605  0.00  0.00     0.018 C 
ATOM     44  H21 H34 d   1      12.815 -20.901  92.472  0.00  0.00     0.067 H 
ATOM     45  H22 H34 d   1      11.476 -19.822  91.954  0.00  0.00     0.067 H 
BRANCH  43  46
ATOM     46  NBD H34 d   1      13.260 -19.659  90.798  0.00  0.00    -0.261 N 
ATOM     47  CAH H34 d   1      14.591 -19.758  90.805  0.00  0.00     0.028 A 
ATOM     48  CAW H34 d   1      15.049 -18.907  89.894  0.00  0.00     0.099 A 
ATOM     49  H23 H34 d   1      15.188 -20.413  91.438  0.00  0.00     0.117 H 
ATOM     50  NAQ H34 d   1      14.041 -18.278  89.322  0.00  0.00    -0.133 NA
ATOM     51  NAR H34 d   1      12.943 -18.764  89.896  0.00  0.00    -0.066 NA
BRANCH  48  52
ATOM     52  CAI H34 d   1      16.492 -18.641  89.547  0.00  0.00     0.059 C 
ATOM     53  H24 H34 d   1      16.811 -19.281  88.711  0.00  0.00     0.083 H 
ATOM     54  H25 H34 d   1      17.137 -18.827  90.418  0.00  0.00     0.083 H 
BRANCH  52  55
ATOM     55  OAB H34 d   1      16.546 -17.273  89.173  0.00  0.00    -0.395 OA
ATOM     56  H26 H34 d   1      15.977 -17.127  88.427  0.00  0.00     0.209 HD
ENDBRANCH  52  55
ENDBRANCH  48  52
ENDBRANCH  43  46
ENDBRANCH  40  43
ENDBRANCH  37  40
ENDBRANCH  34  37
ENDBRANCH  19  34
TORSDOF 7
