REMARK WARNING: 32 MAX_TORS EXCEEDED!!!
REMARK  90 active torsions:
REMARK  status: ('A' for Active; 'I' for Inactive)
REMARK    1  A    between atoms: CA_2  and  N_1 
REMARK    2  A    between atoms: C_3  and  CA_2 
REMARK    3  A    between atoms: CA_2  and  CB_5 
REMARK       I    between atoms: N_9  and  C_3 
REMARK    4  A    between atoms: CB_5  and  CG1_6 
REMARK    5  A    between atoms: CB_5  and  CG2_7 
REMARK    6  A    between atoms: CG1_6  and  CD1_8 
REMARK    7  A    between atoms: CB_10  and  N_9 
REMARK    8  A    between atoms: CB_10  and  CG_11 
REMARK    9  A    between atoms: CA_21  and  CB_10 
REMARK   10  A    between atoms: CG_11  and  CD_12 
REMARK   11  A    between atoms: C_22  and  CA_21 
REMARK       I    between atoms: N_24  and  C_22 
REMARK   12  A    between atoms: CA_25  and  N_24 
REMARK   13  A    between atoms: C_26  and  CA_25 
REMARK   14  A    between atoms: CA_25  and  CB_28 
REMARK       I    between atoms: N_32  and  C_26 
REMARK   15  A    between atoms: CB_28  and  CG1_29 
REMARK   16  A    between atoms: CB_28  and  CG2_30 
REMARK   17  A    between atoms: CG1_29  and  CD1_31 
REMARK   18  A    between atoms: CA_33  and  N_32 
REMARK   19  A    between atoms: C_34  and  CA_33 
REMARK   20  A    between atoms: CA_33  and  CB_36 
REMARK       I    between atoms: N_37  and  C_34 
REMARK   21  A    between atoms: CA_38  and  N_37 
REMARK   22  A    between atoms: C_39  and  CA_38 
REMARK   23  A    between atoms: CA_38  and  CB_41 
REMARK       I    between atoms: N_46  and  C_39 
REMARK   24  A    between atoms: CB_41  and  CG_42 
REMARK   25  A    between atoms: CG_42  and  CD_43 
REMARK       I    between atoms: CD_43  and  NE2_45 
REMARK   26  A    between atoms: CB_47  and  N_46 
REMARK   27  A    between atoms: CB_47  and  CG_48 
REMARK   28  A    between atoms: CA_53  and  CB_47 
REMARK   29  A    between atoms: CG_48  and  CD_49 
REMARK   30  A    between atoms: CD_49  and  CE_50 
REMARK   31  A    between atoms: C_54  and  CA_53 
REMARK       I    between atoms: N_56  and  C_54 
REMARK   32  A    between atoms: CA_57  and  N_56 
REMARK   33  A    between atoms: C_58  and  CA_57 
REMARK   34  A    between atoms: CA_57  and  CB_60 
REMARK       I    between atoms: N_64  and  C_58 
REMARK   35  A    between atoms: CB_60  and  CG_61 
REMARK   36  A    between atoms: CG_61  and  CD1_62 
REMARK   37  A    between atoms: CG_61  and  CD2_63 
REMARK   38  A    between atoms: CA_65  and  N_64 
REMARK   39  A    between atoms: C_66  and  CA_65 
REMARK   40  A    between atoms: CA_65  and  CB_68 
REMARK       I    between atoms: N_75  and  C_66 
REMARK   41  A    between atoms: CB_68  and  CG_69 
REMARK   42  A    between atoms: CG_69  and  CD_70 
REMARK   43  A    between atoms: CD_70  and  NE_71 
REMARK       I    between atoms: NE_71  and  CZ_72 
REMARK       I    between atoms: CZ_72  and  NH1_73 
REMARK       I    between atoms: CZ_72  and  NH2_74 
REMARK   44  A    between atoms: CA_76  and  N_75 
REMARK   45  A    between atoms: C_77  and  CA_76 
REMARK   46  A    between atoms: CA_76  and  CB_79 
REMARK       I    between atoms: N_90  and  C_77 
REMARK   47  A    between atoms: CB_79  and  CG_80 
REMARK   48  A    between atoms: CG_80  and  CD_81 
REMARK   49  A    between atoms: CD_81  and  NE_82 
REMARK       I    between atoms: NE_82  and  CZ_83 
REMARK       I    between atoms: CZ_83  and  NH1_84 
REMARK   50  A    between atoms: C_86  and  CA_88 
REMARK       I    between atoms: N_95  and  C_86 
REMARK   51  A    between atoms: CA_88  and  CB_89 
REMARK   52  A    between atoms: CB_89  and  N_90 
REMARK   53  A    between atoms: CB_89  and  CG_91 
REMARK   54  A    between atoms: CG_91  and  CD2_92 
REMARK   55  A    between atoms: CG_91  and  CD1_93 
REMARK   56  A    between atoms: CD1_93  and  CE1_94 
REMARK   57  A    between atoms: CA_96  and  N_95 
REMARK   58  A    between atoms: C_97  and  CA_96 
REMARK       I    between atoms: N_99  and  C_97 
REMARK   59  A    between atoms: CA_100  and  N_99 
REMARK   60  A    between atoms: C_101  and  CA_100 
REMARK   61  A    between atoms: CA_100  and  CB_103 
REMARK       I    between atoms: N_107  and  C_101 
REMARK   62  A    between atoms: CB_103  and  CG_104 
REMARK   63  A    between atoms: CA_108  and  N_107 
REMARK   64  A    between atoms: C_109  and  CA_108 
REMARK   65  A    between atoms: CA_108  and  CB_111 
REMARK       I    between atoms: N_116  and  C_109 
REMARK   66  A    between atoms: CB_111  and  CG_112 
REMARK   67  A    between atoms: CG_112  and  CD_113 
REMARK   68  A    between atoms: CA_117  and  N_116 
REMARK   69  A    between atoms: CA_117  and  CB_118 
REMARK   70  A    between atoms: CCC_125  and  CA_117 
REMARK   71  A    between atoms: CB_118  and  CG_119 
REMARK   72  A    between atoms: C_126  and  CCC_125 
REMARK       I    between atoms: N_128  and  C_126 
REMARK   73  A    between atoms: CA_129  and  N_128 
REMARK   74  A    between atoms: C_130  and  CA_129 
REMARK   75  A    between atoms: CA_129  and  CB_132 
REMARK       I    between atoms: N_136  and  C_130 
REMARK   76  A    between atoms: CB_132  and  CG_133 
REMARK       I    between atoms: CG_133  and  ND2_135 
REMARK   77  A    between atoms: CA_137  and  N_136 
REMARK   78  A    between atoms: C_138  and  CA_137 
REMARK   79  A    between atoms: CA_137  and  CB_140 
REMARK       I    between atoms: N_141  and  C_138 
REMARK   80  A    between atoms: CA_142  and  N_141 
REMARK   81  A    between atoms: C_143  and  CA_142 
REMARK   82  A    between atoms: CA_142  and  CB_145 
REMARK       I    between atoms: N_157  and  C_143 
REMARK   83  A    between atoms: CB_145  and  CG_146 
REMARK   84  A    between atoms: CZ_151  and  OH_152 
REMARK   85  A    between atoms: CA_155  and  C_154 
REMARK       I    between atoms: C_154  and  N_166 
REMARK   86  A    between atoms: CB_156  and  CA_155 
REMARK   87  A    between atoms: CB_156  and  N_157 
REMARK   88  A    between atoms: CB_156  and  CG_158 
REMARK   89  A    between atoms: CG_158  and  CD_159 
REMARK   90  A    between atoms: CZ_162  and  OH_163 
ROOT
ATOM      1  CA  NON d   1     -44.084 -13.237  24.884  0.00  0.00     0.089 C 
ATOM      2  H   NON d   1     -44.727 -13.198  24.005  0.00  0.00     0.087 H 
ENDROOT
BRANCH   1   3
ATOM      3  N   NON d   1     -44.539 -14.263  25.795  0.00  0.00    -0.346 N 
ATOM      4  C   NON d   1     -44.996 -15.422  25.361  0.00  0.00     0.241 C 
ATOM      5  O   NON d   1     -44.934 -15.760  24.181  0.00  0.00    -0.271 OA
ATOM      6  H   NON d   1     -44.506 -14.086  26.799  0.00  0.00     0.163 HD
BRANCH   4   7
ATOM      7  CA  NON d   1     -45.598 -16.338  26.426  0.00  0.00     0.089 C 
ATOM      8  H   NON d   1     -45.679 -17.329  25.980  0.00  0.00     0.087 H 
BRANCH   7   9
ATOM      9  N   NON d   1     -44.744 -16.523  27.597  0.00  0.00    -0.346 N 
ATOM     10  C   NON d   1     -43.759 -17.414  27.538  0.00  0.00     0.241 C 
ATOM     11  O   NON d   1     -43.468 -18.010  26.515  0.00  0.00    -0.271 OA
ATOM     12  H   NON d   1     -44.901 -15.978  28.445  0.00  0.00     0.163 HD
BRANCH  10  13
ATOM     13  CA  NON d   1     -42.972 -17.679  28.791  0.00  0.00     0.089 C 
ATOM     14  H   NON d   1     -41.975 -18.014  28.506  0.00  0.00     0.087 H 
BRANCH  13  15
ATOM     15  N   NON d   1     -42.756 -16.480  29.597  0.00  0.00    -0.348 N 
ATOM     16  C   NON d   1     -42.183 -15.377  29.116  0.00  0.00     0.220 C 
ATOM     17  O   NON d   1     -41.934 -15.200  27.922  0.00  0.00    -0.274 OA
ATOM     18  H   NON d   1     -43.057 -16.487  30.572  0.00  0.00     0.163 HD
BRANCH  16  19
ATOM     19  CA  NON d   1     -41.832 -14.293  30.137  0.00  0.00     0.028 C 
ATOM     20  H   NON d   1     -41.753 -14.781  31.108  0.00  0.00     0.050 H 
ATOM     21  H   NON d   1     -40.911 -13.819  29.797  0.00  0.00     0.050 H 
BRANCH  19  22
ATOM     22  CB  NON d   1     -42.876 -13.198  30.270  0.00  0.00     0.021 C 
ATOM     23  H   NON d   1     -43.121 -12.710  29.327  0.00  0.00     0.073 H 
BRANCH  22  24
ATOM     24  N   NON d   1     -44.153 -13.767  30.727  0.00  0.00    -0.354 N 
ATOM     25  C   NON d   1     -45.108 -13.542  29.825  0.00  0.00     0.240 C 
ATOM     26  O   NON d   1     -44.894 -13.156  28.678  0.00  0.00    -0.271 OA
ATOM     27  H   NON d   1     -44.288 -14.263  31.608  0.00  0.00     0.162 HD
BRANCH  25  28
ATOM     28  CA  NON d   1     -46.527 -13.804  30.304  0.00  0.00     0.090 C 
ATOM     29  H   NON d   1     -47.086 -14.184  29.449  0.00  0.00     0.087 H 
BRANCH  28  30
ATOM     30  N   NON d   1     -46.541 -14.812  31.363  0.00  0.00    -0.346 N 
ATOM     31  C   NON d   1     -46.489 -16.114  31.094  0.00  0.00     0.240 C 
ATOM     32  O   NON d   1     -46.406 -16.568  29.947  0.00  0.00    -0.271 OA
ATOM     33  H   NON d   1     -46.592 -14.508  32.336  0.00  0.00     0.163 HD
BRANCH  31  34
ATOM     34  CA  NON d   1     -46.559 -17.048  32.287  0.00  0.00     0.086 C 
ATOM     35  H   NON d   1     -46.099 -17.989  31.983  0.00  0.00     0.086 H 
BRANCH  34  36
ATOM     36  N   NON d   1     -45.797 -16.563  33.433  0.00  0.00    -0.346 N 
ATOM     37  C   NON d   1     -44.469 -16.505  33.413  0.00  0.00     0.241 C 
ATOM     38  O   NON d   1     -43.805 -16.700  32.396  0.00  0.00    -0.271 OA
ATOM     39  H   NON d   1     -46.295 -16.261  34.270  0.00  0.00     0.163 HD
BRANCH  37  40
ATOM     40  CA  NON d   1     -43.778 -16.136  34.722  0.00  0.00     0.092 C 
ATOM     41  H   NON d   1     -42.767 -15.819  34.464  0.00  0.00     0.088 H 
BRANCH  40  42
ATOM     42  N   NON d   1     -44.383 -14.991  35.402  0.00  0.00    -0.347 N 
ATOM     43  C   NON d   1     -44.451 -13.805  34.811  0.00  0.00     0.220 C 
ATOM     44  O   NON d   1     -44.116 -13.636  33.640  0.00  0.00    -0.274 OA
ATOM     45  H   NON d   1     -44.758 -15.106  36.344  0.00  0.00     0.163 HD
BRANCH  43  46
ATOM     46  CA  NON d   1     -44.934 -12.646  35.657  0.00  0.00     0.028 C 
ATOM     47  H   NON d   1     -44.601 -12.851  36.674  0.00  0.00     0.050 H 
ATOM     48  H   NON d   1     -44.535 -11.743  35.194  0.00  0.00     0.050 H 
BRANCH  46  49
ATOM     49  CB  NON d   1     -46.443 -12.455  35.733  0.00  0.00     0.024 C 
ATOM     50  H   NON d   1     -46.865 -12.465  34.728  0.00  0.00     0.073 H 
BRANCH  49  51
ATOM     51  N   NON d   1     -47.042 -13.536  36.495  0.00  0.00    -0.354 N 
ATOM     52  C   NON d   1     -48.044 -13.960  35.726  0.00  0.00     0.249 C 
ATOM     53  O   NON d   1     -48.117 -13.742  34.509  0.00  0.00    -0.271 OA
ATOM     54  H   NON d   1     -46.760 -13.890  37.409  0.00  0.00     0.162 HD
BRANCH  52  55
ATOM     55  CA  NON d   1     -49.143 -14.736  36.484  0.00  0.00     0.179 C 
ATOM     56  H   NON d   1     -49.440 -14.099  37.317  0.00  0.00     0.099 H 
BRANCH  55  57
ATOM     57  N   NON d   1     -50.388 -14.943  35.747  0.00  0.00    -0.066 N 
ATOM     58  H   NON d   1     -50.740 -14.044  35.418  0.00  0.00     0.275 HD
ATOM     59  H   NON d   1     -50.212 -15.554  34.949  0.00  0.00     0.275 HD
ATOM     60  H   NON d   1     -51.078 -15.375  36.362  0.00  0.00     0.275 HD
ENDBRANCH  55  57
BRANCH  55  61
ATOM     61  CB  NON d   1     -48.559 -16.082  37.012  0.00  0.00    -0.022 C 
ATOM     62  H   NON d   1     -49.416 -16.744  37.132  0.00  0.00     0.043 H 
BRANCH  61  63
ATOM     63  CG1 NON d   1     -47.828 -15.882  38.327  0.00  0.00    -0.063 C 
ATOM     64  H   NON d   1     -48.560 -15.580  39.076  0.00  0.00     0.033 H 
ATOM     65  H   NON d   1     -47.056 -15.129  38.172  0.00  0.00     0.033 H 
BRANCH  63  66
ATOM     66  CD1 NON d   1     -47.170 -17.120  38.803  0.00  0.00    -0.076 C 
ATOM     67  H   NON d   1     -47.921 -17.896  38.950  0.00  0.00     0.027 H 
ATOM     68  H   NON d   1     -46.444 -17.452  38.061  0.00  0.00     0.027 H 
ATOM     69  H   NON d   1     -46.662 -16.920  39.747  0.00  0.00     0.027 H 
ENDBRANCH  63  66
ENDBRANCH  61  63
BRANCH  61  70
ATOM     70  CG2 NON d   1     -47.571 -16.688  36.059  0.00  0.00    -0.070 C 
ATOM     71  H   NON d   1     -46.726 -16.011  35.935  0.00  0.00     0.028 H 
ATOM     72  H   NON d   1     -47.220 -17.640  36.458  0.00  0.00     0.028 H 
ATOM     73  H   NON d   1     -48.052 -16.852  35.094  0.00  0.00     0.028 H 
ENDBRANCH  61  70
ENDBRANCH  55  61
ENDBRANCH  52  55
ENDBRANCH  49  51
BRANCH  49  74
ATOM     74  CG  NON d   1     -46.745 -11.102  36.403  0.00  0.00    -0.020 C 
ATOM     75  H   NON d   1     -46.026 -10.387  36.003  0.00  0.00     0.043 H 
ATOM     76  H   NON d   1     -46.687 -11.266  37.479  0.00  0.00     0.043 H 
BRANCH  74  77
ATOM     77  CD  NON d   1     -48.112 -10.540  36.125  0.00  0.00    -0.028 A 
ATOM     78  CE2 NON d   1     -49.296 -10.700  36.926  0.00  0.00    -0.002 A 
ATOM     79  CZ3 NON d   1     -49.579 -11.367  38.129  0.00  0.00    -0.070 A 
ATOM     80  CZ2 NON d   1     -50.339 -10.003  36.276  0.00  0.00     0.042 A 
ATOM     81  CH3 NON d   1     -50.864 -11.325  38.643  0.00  0.00    -0.082 A 
ATOM     82  H   NON d   1     -48.794 -11.913  38.653  0.00  0.00     0.084 H 
ATOM     83  CT2 NON d   1     -51.882 -10.629  37.977  0.00  0.00    -0.081 A 
ATOM     84  H   NON d   1     -51.087 -11.840  39.578  0.00  0.00     0.083 H 
ATOM     85  CH2 NON d   1     -51.649  -9.962  36.799  0.00  0.00    -0.056 A 
ATOM     86  H   NON d   1     -52.885 -10.617  38.405  0.00  0.00     0.083 H 
ATOM     87  H   NON d   1     -52.446  -9.422  36.288  0.00  0.00     0.086 H 
ATOM     88  NZ1 NON d   1     -49.818  -9.447  35.137  0.00  0.00    -0.365 N 
ATOM     89  CE1 NON d   1     -48.481  -9.768  35.056  0.00  0.00    -0.015 A 
ATOM     90  H   NON d   1     -50.336  -8.887  34.460  0.00  0.00     0.165 HD
ATOM     91  H   NON d   1     -47.812  -9.453  34.255  0.00  0.00     0.112 H 
ENDBRANCH  74  77
ENDBRANCH  49  74
ENDBRANCH  46  49
ENDBRANCH  43  46
ENDBRANCH  40  42
BRANCH  40  92
ATOM     92  CB  NON d   1     -43.702 -17.353  35.640  0.00  0.00    -0.030 C 
ATOM     93  H   NON d   1     -44.693 -17.542  36.053  0.00  0.00     0.043 H 
BRANCH  92  94
ATOM     94  CG1 NON d   1     -42.721 -17.074  36.780  0.00  0.00    -0.063 C 
ATOM     95  H   NON d   1     -42.901 -16.055  37.124  0.00  0.00     0.033 H 
ATOM     96  H   NON d   1     -41.715 -17.231  36.392  0.00  0.00     0.033 H 
BRANCH  94  97
ATOM     97  CD1 NON d   1     -42.899 -17.997  37.973  0.00  0.00    -0.076 C 
ATOM     98  H   NON d   1     -43.906 -17.881  38.373  0.00  0.00     0.027 H 
ATOM     99  H   NON d   1     -42.748 -19.029  37.658  0.00  0.00     0.027 H 
ATOM    100  H   NON d   1     -42.170 -17.740  38.741  0.00  0.00     0.027 H 
ENDBRANCH  94  97
ENDBRANCH  92  94
BRANCH  92 101
ATOM    101  CG2 NON d   1     -43.272 -18.585  34.869  0.00  0.00    -0.071 C 
ATOM    102  H   NON d   1     -43.993 -18.787  34.077  0.00  0.00     0.028 H 
ATOM    103  H   NON d   1     -42.289 -18.413  34.431  0.00  0.00     0.028 H 
ATOM    104  H   NON d   1     -43.226 -19.438  35.546  0.00  0.00     0.028 H 
ENDBRANCH  92 101
ENDBRANCH  40  92
ENDBRANCH  37  40
ENDBRANCH  34  36
BRANCH  34 105
ATOM    105  CB  NON d   1     -48.007 -17.291  32.675  0.00  0.00    -0.049 C 
ATOM    106  H   NON d   1     -48.049 -18.036  33.470  0.00  0.00     0.030 H 
ATOM    107  H   NON d   1     -48.449 -16.358  33.026  0.00  0.00     0.030 H 
ATOM    108  H   NON d   1     -48.559 -17.652  31.807  0.00  0.00     0.030 H 
ENDBRANCH  34 105
ENDBRANCH  31  34
ENDBRANCH  28  30
BRANCH  28 109
ATOM    109  CB  NON d   1     -47.219 -12.535  30.771  0.00  0.00    -0.030 C 
ATOM    110  H   NON d   1     -47.329 -11.868  29.916  0.00  0.00     0.037 H 
ATOM    111  H   NON d   1     -46.615 -12.083  31.558  0.00  0.00     0.037 H 
BRANCH 109 112
ATOM    112  CG  NON d   1     -48.602 -12.825  31.334  0.00  0.00     0.011 C 
ATOM    113  H   NON d   1     -48.473 -13.269  32.321  0.00  0.00     0.047 H 
ATOM    114  H   NON d   1     -49.114 -13.486  30.635  0.00  0.00     0.047 H 
BRANCH 112 115
ATOM    115  CD  NON d   1     -49.444 -11.583  31.494  0.00  0.00     0.215 C 
ATOM    116  OE1 NON d   1     -48.929 -10.491  31.763  0.00  0.00    -0.274 OA
ATOM    117  NE2 NON d   1     -50.747 -11.736  31.312  0.00  0.00    -0.370 N 
ATOM    118  H   NON d   1     -51.371 -10.933  31.392  0.00  0.00     0.159 HD
ATOM    119  H   NON d   1     -51.127 -12.657  31.092  0.00  0.00     0.159 HD
ENDBRANCH 112 115
ENDBRANCH 109 112
ENDBRANCH  28 109
ENDBRANCH  25  28
ENDBRANCH  22  24
BRANCH  22 120
ATOM    120  CG  NON d   1     -42.260 -12.171  31.229  0.00  0.00    -0.037 C 
ATOM    121  H   NON d   1     -41.196 -12.405  31.267  0.00  0.00     0.036 H 
ATOM    122  H   NON d   1     -42.826 -12.258  32.156  0.00  0.00     0.036 H 
BRANCH 120 123
ATOM    123  CD  NON d   1     -42.343 -10.715  30.835  0.00  0.00     0.018 C 
ATOM    124  H   NON d   1     -41.852 -10.152  31.629  0.00  0.00     0.049 H 
ATOM    125  H   NON d   1     -43.400 -10.496  30.685  0.00  0.00     0.049 H 
BRANCH 123 126
ATOM    126  CE  NON d   1     -41.637 -10.341  29.541  0.00  0.00     0.172 C 
ATOM    127  OF2 NON d   1     -40.376 -10.280  29.459  0.00  0.00    -0.648 OA
ATOM    128  OF1 NON d   1     -42.380 -10.070  28.579  0.00  0.00    -0.648 OA
ENDBRANCH 123 126
ENDBRANCH 120 123
ENDBRANCH  22 120
ENDBRANCH  19  22
ENDBRANCH  16  19
ENDBRANCH  13  15
BRANCH  13 129
ATOM    129  CB  NON d   1     -43.683 -18.771  29.589  0.00  0.00    -0.035 C 
ATOM    130  H   NON d   1     -43.930 -19.560  28.879  0.00  0.00     0.037 H 
ATOM    131  H   NON d   1     -44.531 -18.292  30.079  0.00  0.00     0.037 H 
BRANCH 129 132
ATOM    132  CG  NON d   1     -42.863 -19.426  30.692  0.00  0.00    -0.059 C 
ATOM    133  H   NON d   1     -42.443 -18.658  31.342  0.00  0.00     0.038 H 
BRANCH 132 134
ATOM    134  CD1 NON d   1     -43.759 -20.317  31.507  0.00  0.00    -0.073 C 
ATOM    135  H   NON d   1     -44.558 -19.721  31.948  0.00  0.00     0.028 H 
ATOM    136  H   NON d   1     -44.189 -21.084  30.863  0.00  0.00     0.028 H 
ATOM    137  H   NON d   1     -43.177 -20.789  32.299  0.00  0.00     0.028 H 
ENDBRANCH 132 134
BRANCH 132 138
ATOM    138  CD2 NON d   1     -41.699 -20.206  30.101  0.00  0.00    -0.073 C 
ATOM    139  H   NON d   1     -42.082 -20.981  29.437  0.00  0.00     0.028 H 
ATOM    140  H   NON d   1     -41.057 -19.528  29.538  0.00  0.00     0.028 H 
ATOM    141  H   NON d   1     -41.126 -20.666  30.906  0.00  0.00     0.028 H 
ENDBRANCH 132 138
ENDBRANCH 129 132
ENDBRANCH  13 129
ENDBRANCH  10  13
ENDBRANCH   7   9
BRANCH   7 142
ATOM    142  CB  NON d   1     -46.989 -15.851  26.809  0.00  0.00    -0.036 C 
ATOM    143  H   NON d   1     -46.909 -14.815  27.139  0.00  0.00     0.036 H 
ATOM    144  H   NON d   1     -47.374 -16.501  27.595  0.00  0.00     0.036 H 
BRANCH 142 145
ATOM    145  CG  NON d   1     -47.949 -15.903  25.639  0.00  0.00    -0.048 C 
ATOM    146  H   NON d   1     -48.519 -16.830  25.694  0.00  0.00     0.035 H 
ATOM    147  H   NON d   1     -47.376 -15.854  24.713  0.00  0.00     0.035 H 
BRANCH 145 148
ATOM    148  CD  NON d   1     -48.914 -14.733  25.679  0.00  0.00     0.009 C 
ATOM    149  H   NON d   1     -49.593 -14.845  24.834  0.00  0.00     0.064 H 
ATOM    150  H   NON d   1     -48.318 -13.821  25.651  0.00  0.00     0.064 H 
BRANCH 148 151
ATOM    151  NE  NON d   1     -49.733 -14.678  26.889  0.00  0.00    -0.227 N 
ATOM    152  CZ  NON d   1     -50.119 -13.546  27.480  0.00  0.00     0.665 C 
ATOM    153  NH1 NON d   1     -49.756 -12.368  26.994  0.00  0.00    -0.235 N 
ATOM    154  NH2 NON d   1     -50.864 -13.588  28.573  0.00  0.00    -0.235 N 
ATOM    155  H   NON d   1     -49.174 -12.319  26.158  0.00  0.00     0.174 HD
ATOM    156  H   NON d   1     -50.058 -11.511  27.456  0.00  0.00     0.174 HD
ATOM    157  H   NON d   1     -51.144 -14.487  28.965  0.00  0.00     0.174 HD
ATOM    158  H   NON d   1     -51.158 -12.721  29.023  0.00  0.00     0.174 HD
ATOM    159  H   NON d   1     -50.028 -15.560  27.307  0.00  0.00     0.177 HD
ENDBRANCH 148 151
ENDBRANCH 145 148
ENDBRANCH 142 145
ENDBRANCH   7 142
ENDBRANCH   4   7
ENDBRANCH   1   3
BRANCH   1 160
ATOM    160  C   NON d   1     -42.668 -13.537  24.400  0.00  0.00     0.240 C 
ATOM    161  O   NON d   1     -42.302 -13.248  23.259  0.00  0.00    -0.271 OA
ATOM    162  N   NON d   1     -41.889 -14.149  25.282  0.00  0.00    -0.354 N 
ATOM    163  H   NON d   1     -42.283 -14.410  26.186  0.00  0.00     0.162 HD
BRANCH 162 164
ATOM    164  CB  NON d   1     -40.506 -14.460  25.013  0.00  0.00     0.023 C 
ATOM    165  H   NON d   1     -40.173 -14.327  23.984  0.00  0.00     0.073 H 
BRANCH 164 166
ATOM    166  CA  NON d   1     -40.201 -15.953  25.162  0.00  0.00     0.028 C 
ATOM    167  H   NON d   1     -39.123 -16.115  25.149  0.00  0.00     0.050 H 
ATOM    168  H   NON d   1     -40.596 -16.320  26.109  0.00  0.00     0.050 H 
BRANCH 166 169
ATOM    169  C   NON d   1     -40.852 -16.700  24.004  0.00  0.00     0.220 C 
ATOM    170  O   NON d   1     -40.352 -16.671  22.881  0.00  0.00    -0.274 OA
ATOM    171  N   NON d   1     -41.964 -17.380  24.272  0.00  0.00    -0.352 N 
ATOM    172  H   NON d   1     -42.342 -17.365  25.219  0.00  0.00     0.162 HD
BRANCH 171 173
ATOM    173  CA  NON d   1     -42.654 -18.145  23.242  0.00  0.00     0.069 C 
ATOM    174  H   NON d   1     -43.629 -18.387  23.664  0.00  0.00     0.078 H 
ATOM    175  H   NON d   1     -41.986 -18.971  22.997  0.00  0.00     0.078 H 
BRANCH 173 176
ATOM    176  C   NON d   1     -42.948 -17.447  21.908  0.00  0.00     0.236 C 
ATOM    177  O   NON d   1     -42.675 -17.999  20.831  0.00  0.00    -0.272 OA
ATOM    178  N   NON d   1     -43.514 -16.245  21.965  0.00  0.00    -0.346 N 
ATOM    179  H   NON d   1     -43.638 -15.789  22.869  0.00  0.00     0.163 HD
BRANCH 178 180
ATOM    180  CA  NON d   1     -43.959 -15.572  20.751  0.00  0.00     0.098 C 
ATOM    181  H   NON d   1     -44.496 -16.321  20.169  0.00  0.00     0.088 H 
BRANCH 180 182
ATOM    182  C   NON d   1     -42.808 -15.074  19.903  0.00  0.00     0.241 C 
ATOM    183  O   NON d   1     -42.954 -14.890  18.700  0.00  0.00    -0.271 OA
ATOM    184  N   NON d   1     -41.664 -14.866  20.537  0.00  0.00    -0.346 N 
ATOM    185  H   NON d   1     -41.607 -15.074  21.534  0.00  0.00     0.163 HD
BRANCH 184 186
ATOM    186  CA  NON d   1     -40.485 -14.350  19.856  0.00  0.00     0.090 C 
ATOM    187  H   NON d   1     -40.788 -13.586  19.140  0.00  0.00     0.087 H 
BRANCH 186 188
ATOM    188  C   NON d   1     -39.794 -15.488  19.136  0.00  0.00     0.240 C 
ATOM    189  O   NON d   1     -39.447 -15.375  17.954  0.00  0.00    -0.271 OA
ATOM    190  N   NON d   1     -39.595 -16.581  19.869  0.00  0.00    -0.354 N 
ATOM    191  H   NON d   1     -39.917 -16.584  20.837  0.00  0.00     0.162 HD
BRANCH 190 192
ATOM    192  CA  NON d   1     -38.939 -17.772  19.351  0.00  0.00     0.024 C 
ATOM    193  H   NON d   1     -38.365 -17.561  18.448  0.00  0.00     0.073 H 
BRANCH 192 194
ATOM    194  CB  NON d   1     -37.990 -18.299  20.435  0.00  0.00    -0.022 C 
ATOM    195  H   NON d   1     -38.593 -18.451  21.331  0.00  0.00     0.043 H 
ATOM    196  H   NON d   1     -37.189 -17.567  20.531  0.00  0.00     0.043 H 
BRANCH 194 197
ATOM    197  CG  NON d   1     -37.330 -19.625  20.128  0.00  0.00    -0.056 A 
ATOM    198  CD1 NON d   1     -36.173 -19.669  19.361  0.00  0.00    -0.077 A 
ATOM    199  CE1 NON d   1     -35.566 -20.892  19.089  0.00  0.00    -0.082 A 
ATOM    200  H   NON d   1     -35.741 -18.747  18.972  0.00  0.00     0.084 H 
ATOM    201  CH  NON d   1     -36.093 -22.074  19.597  0.00  0.00    -0.083 A 
ATOM    202  H   NON d   1     -34.668 -20.923  18.471  0.00  0.00     0.083 H 
ATOM    203  CE2 NON d   1     -37.246 -22.031  20.366  0.00  0.00    -0.082 A 
ATOM    204  H   NON d   1     -35.604 -23.026  19.392  0.00  0.00     0.083 H 
ATOM    205  CD2 NON d   1     -37.852 -20.813  20.638  0.00  0.00    -0.077 A 
ATOM    206  H   NON d   1     -37.676 -22.953  20.756  0.00  0.00     0.083 H 
ATOM    207  H   NON d   1     -38.748 -20.784  21.258  0.00  0.00     0.084 H 
ENDBRANCH 194 197
ENDBRANCH 192 194
BRANCH 192 208
ATOM    208  CCC NON d   1     -40.016 -18.796  19.028  0.00  0.00     0.028 C 
ATOM    209  H   NON d   1     -40.757 -18.762  19.827  0.00  0.00     0.050 H 
ATOM    210  H   NON d   1     -39.533 -19.769  18.937  0.00  0.00     0.050 H 
BRANCH 208 211
ATOM    211  C   NON d   1     -40.731 -18.511  17.722  0.00  0.00     0.220 C 
ATOM    212  O   NON d   1     -40.130 -18.467  16.672  0.00  0.00    -0.274 OA
ATOM    213  N   NON d   1     -42.040 -18.314  17.824  0.00  0.00    -0.347 N 
ATOM    214  H   NON d   1     -42.453 -18.325  18.757  0.00  0.00     0.163 HD
BRANCH 213 215
ATOM    215  CA  NON d   1     -42.924 -18.083  16.690  0.00  0.00     0.097 C 
ATOM    216  H   NON d   1     -42.770 -18.971  16.077  0.00  0.00     0.088 H 
BRANCH 215 217
ATOM    217  C   NON d   1     -42.590 -16.954  15.710  0.00  0.00     0.241 C 
ATOM    218  O   NON d   1     -42.825 -17.087  14.503  0.00  0.00    -0.271 OA
ATOM    219  N   NON d   1     -42.046 -15.854  16.217  0.00  0.00    -0.346 N 
ATOM    220  H   NON d   1     -41.830 -15.814  17.213  0.00  0.00     0.163 HD
BRANCH 219 221
ATOM    221  CA  NON d   1     -41.752 -14.698  15.368  0.00  0.00     0.086 C 
ATOM    222  H   NON d   1     -42.666 -14.501  14.808  0.00  0.00     0.086 H 
BRANCH 221 223
ATOM    223  C   NON d   1     -40.669 -14.954  14.304  0.00  0.00     0.240 C 
ATOM    224  O   NON d   1     -40.751 -14.436  13.190  0.00  0.00    -0.271 OA
ATOM    225  N   NON d   1     -39.680 -15.774  14.631  0.00  0.00    -0.346 N 
ATOM    226  H   NON d   1     -39.714 -16.264  15.525  0.00  0.00     0.163 HD
BRANCH 225 227
ATOM    227  CA  NON d   1     -38.544 -15.992  13.741  0.00  0.00     0.093 C 
ATOM    228  H   NON d   1     -38.865 -15.621  12.768  0.00  0.00     0.088 H 
BRANCH 227 229
ATOM    229  C   NON d   1     -38.162 -17.459  13.524  0.00  0.00     0.241 C 
ATOM    230  O   NON d   1     -37.296 -17.751  12.707  0.00  0.00    -0.271 OA
ATOM    231  N   NON d   1     -38.786 -18.374  14.260  0.00  0.00    -0.354 N 
ATOM    232  H   NON d   1     -39.502 -18.078  14.924  0.00  0.00     0.162 HD
BRANCH 231 233
ATOM    233  CB  NON d   1     -38.469 -19.789  14.138  0.00  0.00     0.024 C 
ATOM    234  H   NON d   1     -37.827 -19.913  13.266  0.00  0.00     0.073 H 
BRANCH 233 235
ATOM    235  CA  NON d   1     -39.755 -20.583  13.991  0.00  0.00     0.028 C 
ATOM    236  H   NON d   1     -39.575 -21.646  14.152  0.00  0.00     0.050 H 
ATOM    237  H   NON d   1     -40.490 -20.273  14.734  0.00  0.00     0.050 H 
BRANCH 235 238
ATOM    238  C   NON d   1     -40.262 -20.331  12.600  0.00  0.00     0.217 C 
ATOM    239  O   NON d   1     -41.335 -19.776  12.418  0.00  0.00    -0.274 OA
ATOM    240  N   NON d   1     -39.472 -20.743  11.611  0.00  0.00    -0.370 N 
ATOM    241  H   NON d   1     -39.753 -20.601  10.641  0.00  0.00     0.159 HD
ATOM    242  H   NON d   1     -38.586 -21.201  11.823  0.00  0.00     0.159 HD
ENDBRANCH 235 238
ENDBRANCH 233 235
BRANCH 233 243
ATOM    243  CG  NON d   1     -37.742 -20.302  15.382  0.00  0.00    -0.022 C 
ATOM    244  H   NON d   1     -37.655 -21.387  15.315  0.00  0.00     0.043 H 
ATOM    245  H   NON d   1     -38.311 -20.012  16.265  0.00  0.00     0.043 H 
BRANCH 243 246
ATOM    246  CD  NON d   1     -36.358 -19.709  15.479  0.00  0.00    -0.056 A 
ATOM    247  CE2 NON d   1     -35.252 -20.423  15.016  0.00  0.00    -0.074 A 
ATOM    248  CF2 NON d   1     -33.975 -19.872  15.111  0.00  0.00    -0.051 A 
ATOM    249  H   NON d   1     -35.387 -21.413  14.580  0.00  0.00     0.084 H 
ATOM    250  CZ  NON d   1     -33.817 -18.603  15.669  0.00  0.00     0.065 A 
ATOM    251  H   NON d   1     -33.108 -20.427  14.753  0.00  0.00     0.087 H 
ATOM    252  CF1 NON d   1     -34.921 -17.903  16.136  0.00  0.00    -0.051 A 
ATOM    253  CE1 NON d   1     -36.193 -18.454  16.044  0.00  0.00    -0.074 A 
ATOM    254  H   NON d   1     -34.789 -16.915  16.578  0.00  0.00     0.087 H 
ATOM    255  H   NON d   1     -37.057 -17.902  16.414  0.00  0.00     0.084 H 
BRANCH 250 256
ATOM    256  OH  NON d   1     -32.580 -18.039  15.767  0.00  0.00    -0.361 OA
ATOM    257  H   NON d   1     -32.199 -17.952  14.890  0.00  0.00     0.217 HD
ENDBRANCH 250 256
ENDBRANCH 243 246
ENDBRANCH 233 243
ENDBRANCH 231 233
ENDBRANCH 227 229
BRANCH 227 258
ATOM    258  CB  NON d   1     -37.321 -15.223  14.264  0.00  0.00    -0.014 C 
ATOM    259  H   NON d   1     -36.503 -15.395  13.565  0.00  0.00     0.043 H 
ATOM    260  H   NON d   1     -37.115 -15.583  15.272  0.00  0.00     0.043 H 
BRANCH 258 261
ATOM    261  CG  NON d   1     -37.540 -13.720  14.351  0.00  0.00    -0.056 A 
ATOM    262  CD1 NON d   1     -37.415 -12.904  13.215  0.00  0.00    -0.074 A 
ATOM    263  CE1 NON d   1     -37.627 -11.513  13.289  0.00  0.00    -0.051 A 
ATOM    264  H   NON d   1     -37.149 -13.355  12.259  0.00  0.00     0.084 H 
ATOM    265  CZ  NON d   1     -37.958 -10.937  14.508  0.00  0.00     0.065 A 
ATOM    266  H   NON d   1     -37.532 -10.894  12.397  0.00  0.00     0.087 H 
ATOM    267  CE2 NON d   1     -38.087 -11.730  15.642  0.00  0.00    -0.051 A 
ATOM    268  CD2 NON d   1     -37.876 -13.112  15.559  0.00  0.00    -0.074 A 
ATOM    269  H   NON d   1     -38.353 -11.276  16.597  0.00  0.00     0.087 H 
ATOM    270  H   NON d   1     -37.977 -13.723  16.456  0.00  0.00     0.084 H 
BRANCH 265 271
ATOM    271  OH  NON d   1     -38.163  -9.578  14.592  0.00  0.00    -0.361 OA
ATOM    272  H   NON d   1     -39.058  -9.409  14.894  0.00  0.00     0.217 HD
ENDBRANCH 265 271
ENDBRANCH 258 261
ENDBRANCH 227 258
ENDBRANCH 225 227
ENDBRANCH 221 223
BRANCH 221 273
ATOM    273  CB  NON d   1     -41.406 -13.474  16.221  0.00  0.00    -0.049 C 
ATOM    274  H   NON d   1     -42.250 -13.232  16.866  0.00  0.00     0.030 H 
ATOM    275  H   NON d   1     -40.531 -13.694  16.832  0.00  0.00     0.030 H 
ATOM    276  H   NON d   1     -41.191 -12.627  15.569  0.00  0.00     0.030 H 
ENDBRANCH 221 273
ENDBRANCH 219 221
ENDBRANCH 215 217
BRANCH 215 277
ATOM    277  CB  NON d   1     -44.360 -17.943  17.184  0.00  0.00     0.036 C 
ATOM    278  H   NON d   1     -44.518 -16.902  17.468  0.00  0.00     0.051 H 
ATOM    279  H   NON d   1     -44.496 -18.628  18.020  0.00  0.00     0.051 H 
BRANCH 277 280
ATOM    280  CG  NON d   1     -45.376 -18.297  16.119  0.00  0.00     0.217 C 
ATOM    281  OD1 NON d   1     -45.498 -19.454  15.715  0.00  0.00    -0.274 OA
ATOM    282  ND2 NON d   1     -46.124 -17.306  15.674  0.00  0.00    -0.370 N 
ATOM    283  H   NON d   1     -46.838 -17.483  14.967  0.00  0.00     0.159 HD
ATOM    284  H   NON d   1     -45.989 -16.362  16.037  0.00  0.00     0.159 HD
ENDBRANCH 277 280
ENDBRANCH 215 277
ENDBRANCH 213 215
ENDBRANCH 208 211
ENDBRANCH 192 208
ENDBRANCH 190 192
ENDBRANCH 186 188
BRANCH 186 285
ATOM    285  CB  NON d   1     -39.520 -13.722  20.868  0.00  0.00    -0.029 C 
ATOM    286  H   NON d   1     -39.396 -14.444  21.675  0.00  0.00     0.037 H 
ATOM    287  H   NON d   1     -39.954 -12.768  21.167  0.00  0.00     0.037 H 
BRANCH 285 288
ATOM    288  CG  NON d   1     -38.126 -13.421  20.328  0.00  0.00     0.018 C 
ATOM    289  H   NON d   1     -38.239 -12.980  19.338  0.00  0.00     0.049 H 
ATOM    290  H   NON d   1     -37.565 -14.355  20.311  0.00  0.00     0.049 H 
BRANCH 288 291
ATOM    291  CD  NON d   1     -37.360 -12.432  21.195  0.00  0.00     0.172 C 
ATOM    292  OE1 NON d   1     -37.663 -11.222  21.126  0.00  0.00    -0.648 OA
ATOM    293  OE2 NON d   1     -36.448 -12.858  21.943  0.00  0.00    -0.648 OA
ENDBRANCH 288 291
ENDBRANCH 285 288
ENDBRANCH 186 285
ENDBRANCH 184 186
ENDBRANCH 180 182
BRANCH 180 294
ATOM    294  CB  NON d   1     -44.905 -14.416  21.075  0.00  0.00     0.043 C 
ATOM    295  H   NON d   1     -44.968 -13.777  20.194  0.00  0.00     0.052 H 
ATOM    296  H   NON d   1     -44.509 -13.892  21.945  0.00  0.00     0.052 H 
BRANCH 294 297
ATOM    297  CG  NON d   1     -46.307 -14.888  21.412  0.00  0.00     0.175 C 
ATOM    298  OD1 NON d   1     -46.626 -16.068  21.150  0.00  0.00    -0.648 OA
ATOM    299  OD2 NON d   1     -47.088 -14.073  21.937  0.00  0.00    -0.648 OA
ENDBRANCH 294 297
ENDBRANCH 180 294
ENDBRANCH 178 180
ENDBRANCH 173 176
ENDBRANCH 171 173
ENDBRANCH 166 169
ENDBRANCH 164 166
BRANCH 164 300
ATOM    300  CG  NON d   1     -39.774 -13.464  25.938  0.00  0.00    -0.038 C 
ATOM    301  H   NON d   1     -40.609 -12.836  26.248  0.00  0.00     0.042 H 
BRANCH 300 302
ATOM    302  CD2 NON d   1     -39.227 -13.906  27.307  0.00  0.00    -0.071 C 
ATOM    303  H   NON d   1     -40.048 -14.269  27.925  0.00  0.00     0.028 H 
ATOM    304  H   NON d   1     -38.497 -14.703  27.165  0.00  0.00     0.028 H 
ATOM    305  H   NON d   1     -38.749 -13.058  27.797  0.00  0.00     0.028 H 
ENDBRANCH 300 302
BRANCH 300 306
ATOM    306  CD1 NON d   1     -38.708 -12.728  25.171  0.00  0.00    -0.064 C 
ATOM    307  H   NON d   1     -38.494 -13.221  24.223  0.00  0.00     0.033 H 
ATOM    308  H   NON d   1     -37.767 -12.711  25.721  0.00  0.00     0.033 H 
BRANCH 306 309
ATOM    309  CE1 NON d   1     -39.236 -11.338  24.954  0.00  0.00    -0.076 C 
ATOM    310  H   NON d   1     -40.165 -11.388  24.387  0.00  0.00     0.027 H 
ATOM    311  H   NON d   1     -39.423 -10.867  25.919  0.00  0.00     0.027 H 
ATOM    312  H   NON d   1     -38.501 -10.754  24.399  0.00  0.00     0.027 H 
ENDBRANCH 306 309
ENDBRANCH 300 306
ENDBRANCH 164 300
ENDBRANCH 162 164
ENDBRANCH   1 160
BRANCH   1 313
ATOM    313  CB  NON d   1     -44.123 -11.908  25.633  0.00  0.00    -0.036 C 
ATOM    314  H   NON d   1     -43.456 -12.022  26.487  0.00  0.00     0.036 H 
ATOM    315  H   NON d   1     -45.172 -11.719  25.861  0.00  0.00     0.036 H 
BRANCH 313 316
ATOM    316  CG  NON d   1     -43.636 -10.706  24.880  0.00  0.00    -0.048 C 
ATOM    317  H   NON d   1     -44.387 -10.424  24.142  0.00  0.00     0.035 H 
ATOM    318  H   NON d   1     -42.693 -10.953  24.393  0.00  0.00     0.035 H 
BRANCH 316 319
ATOM    319  CD  NON d   1     -43.409  -9.526  25.835  0.00  0.00     0.009 C 
ATOM    320  H   NON d   1     -43.205  -9.905  26.836  0.00  0.00     0.064 H 
ATOM    321  H   NON d   1     -44.301  -8.900  25.855  0.00  0.00     0.064 H 
BRANCH 319 322
ATOM    322  NE  NON d   1     -42.274  -8.736  25.376  0.00  0.00    -0.227 N 
ATOM    323  CZ  NON d   1     -41.060  -8.760  25.910  0.00  0.00     0.665 C 
ATOM    324  NH1 NON d   1     -40.802  -9.502  26.958  0.00  0.00    -0.235 N 
ATOM    325  NH2 NON d   1     -40.097  -8.021  25.402  0.00  0.00    -0.235 N 
ATOM    326  H   NON d   1     -41.539 -10.071  27.374  0.00  0.00     0.174 HD
ATOM    327  H   NON d   1     -39.864  -9.511  27.358  0.00  0.00     0.174 HD
ATOM    328  H   NON d   1     -40.282  -7.426  24.594  0.00  0.00     0.174 HD
ATOM    329  H   NON d   1     -39.165  -8.043  25.816  0.00  0.00     0.174 HD
ATOM    330  H   NON d   1     -42.425  -8.115  24.581  0.00  0.00     0.177 HD
ENDBRANCH 319 322
ENDBRANCH 316 319
ENDBRANCH 313 316
ENDBRANCH   1 313
TORSDOF 90
