REMARK  8 active torsions:
REMARK  status: ('A' for Active; 'I' for Inactive)
REMARK    1  A    between atoms: C15_2  and  C2_3 
REMARK       I    between atoms: C15_2  and  N17_17 
REMARK    2  A    between atoms: C3_4  and  O13_5 
REMARK    3  A    between atoms: O13_5  and  C14_6 
REMARK    4  A    between atoms: C5_8  and  N10_9 
REMARK    5  A    between atoms: N10_9  and  C12_10 
REMARK    6  A    between atoms: N10_9  and  C11_11 
REMARK    7  A    between atoms: C6_12  and  N7_13 
REMARK    8  A    between atoms: N17_17  and  C18_18 
ROOT
ATOM      1  C2  C56 d   1      31.894  22.474   9.784  0.00  0.00     0.067 A 
ATOM      2  C3  C56 d   1      32.943  23.390   9.928  0.00  0.00     0.086 A 
ATOM      3  C4  C56 d   1      33.935  23.499   8.960  0.00  0.00    -0.022 A 
ATOM      4  C5  C56 d   1      33.918  22.694   7.840  0.00  0.00     0.065 A 
ATOM      5  C6  C56 d   1      32.867  21.790   7.696  0.00  0.00     0.130 A 
ATOM      6  C1  C56 d   1      31.876  21.681   8.654  0.00  0.00    -0.031 A 
ATOM      7  H4  C56 d   1      34.730  24.224   9.087  0.00  0.00     0.091 H 
ATOM      8  H11 C56 d   1      31.075  20.964   8.516  0.00  0.00     0.089 H 
ENDROOT
BRANCH   4   9
ATOM      9  N10 C56 d   1      34.947  22.882   6.895  0.00  0.00    -0.387 N 
BRANCH   9  10
ATOM     10  C12 C56 d   1      36.144  23.668   7.172  0.00  0.00    -0.019 C 
ATOM     11  H5  C56 d   1      36.796  23.668   6.286  0.00  0.00     0.056 H 
ATOM     12  H6  C56 d   1      36.683  23.227   8.023  0.00  0.00     0.056 H 
ATOM     13  H7  C56 d   1      35.856  24.701   7.416  0.00  0.00     0.056 H 
ENDBRANCH   9  10
BRANCH   9  14
ATOM     14  C11 C56 d   1      34.927  22.311   5.560  0.00  0.00    -0.019 C 
ATOM     15  H8  C56 d   1      34.000  21.735   5.422  0.00  0.00     0.056 H 
ATOM     16  H9  C56 d   1      35.794  21.647   5.432  0.00  0.00     0.056 H 
ATOM     17  H10 C56 d   1      34.971  23.119   4.815  0.00  0.00     0.056 H 
ENDBRANCH   9  14
ENDBRANCH   4   9
BRANCH   5  18
ATOM     18  N7  C56 d   1      32.739  20.933   6.610  0.00  0.00    -0.113 N 
ATOM     19  O9  C56 d   1      33.454  19.746   6.666  0.00  0.00    -0.532 OA
ATOM     20  O8  C56 d   1      31.984  21.219   5.698  0.00  0.00    -0.532 OA
ENDBRANCH   5  18
BRANCH   2  21
ATOM     21  O13 C56 d   1      33.066  24.228  11.008  0.00  0.00    -0.355 OA
BRANCH  21  22
ATOM     22  C14 C56 d   1      34.336  24.849  11.209  0.00  0.00     0.010 C 
ATOM     23  H1  C56 d   1      34.294  25.489  12.103  0.00  0.00     0.066 H 
ATOM     24  H2  C56 d   1      34.588  25.462  10.331  0.00  0.00     0.066 H 
ATOM     25  H3  C56 d   1      35.105  24.075  11.348  0.00  0.00     0.066 H 
ENDBRANCH  21  22
ENDBRANCH   2  21
BRANCH   1  26
ATOM     26  C15 C56 d   1      30.760  22.271  10.770  0.00  0.00     0.254 C 
ATOM     27  O16 C56 d   1      29.999  21.331  10.581  0.00  0.00    -0.268 OA
ATOM     28  N17 C56 d   1      30.564  23.084  11.815  0.00  0.00    -0.361 N 
ATOM     29  H12 C56 d   1      31.183  23.856  11.960  0.00  0.00     0.162 HD
BRANCH  28  30
ATOM     30  C18 C56 d   1      29.463  22.865  12.747  0.00  0.00    -0.018 C 
ATOM     31  H13 C56 d   1      29.483  23.641  13.527  0.00  0.00     0.056 H 
ATOM     32  H14 C56 d   1      29.569  21.874  13.213  0.00  0.00     0.056 H 
ATOM     33  H15 C56 d   1      28.508  22.915  12.204  0.00  0.00     0.056 H 
ENDBRANCH  28  30
ENDBRANCH   1  26
TORSDOF 8
