REMARK WARNING: 32 MAX_TORS EXCEEDED!!!
REMARK  63 active torsions:
REMARK  status: ('A' for Active; 'I' for Inactive)
REMARK    1  A    between atoms: N_1  and  CA_2 
REMARK    2  A    between atoms: CA_2  and  C_3 
REMARK    3  A    between atoms: CA_2  and  CB_5 
REMARK       I    between atoms: C_3  and  N_9 
REMARK    4  A    between atoms: CB_5  and  CG_6 
REMARK    5  A    between atoms: N_9  and  CA_10 
REMARK    6  A    between atoms: CA_10  and  C_11 
REMARK    7  A    between atoms: CA_10  and  CB_13 
REMARK       I    between atoms: C_11  and  N_17 
REMARK    8  A    between atoms: CB_13  and  CG1_14 
REMARK    9  A    between atoms: CB_13  and  CG2_15 
REMARK   10  A    between atoms: CG1_14  and  CD1_16 
REMARK   11  A    between atoms: CA_18  and  C_19 
REMARK       I    between atoms: C_19  and  N_24 
REMARK   12  A    between atoms: N_24  and  CA_25 
REMARK   13  A    between atoms: CA_25  and  C_26 
REMARK   14  A    between atoms: CA_25  and  CB_28 
REMARK       I    between atoms: C_26  and  N_29 
REMARK   15  A    between atoms: N_29  and  CA_30 
REMARK   16  A    between atoms: CA_30  and  C_31 
REMARK   17  A    between atoms: CA_30  and  CB_33 
REMARK       I    between atoms: C_31  and  N_37 
REMARK   18  A    between atoms: CB_33  and  CG1_34 
REMARK   19  A    between atoms: CB_33  and  CG2_35 
REMARK   20  A    between atoms: CG1_34  and  CD1_36 
REMARK   21  A    between atoms: N_37  and  CA_38 
REMARK   22  A    between atoms: CA_38  and  C_39 
REMARK   23  A    between atoms: CA_38  and  CB_41 
REMARK       I    between atoms: C_39  and  N_49 
REMARK   24  A    between atoms: CB_41  and  CG_42 
REMARK   25  A    between atoms: CZ_47  and  OH_48 
REMARK   26  A    between atoms: N_49  and  CA_50 
REMARK   27  A    between atoms: CA_50  and  C_51 
REMARK   28  A    between atoms: CA_50  and  CB_53 
REMARK       I    between atoms: C_51  and  N_60 
REMARK   29  A    between atoms: CB_53  and  CG_54 
REMARK   30  A    between atoms: CG_54  and  CD_55 
REMARK   31  A    between atoms: CD_55  and  NE_56 
REMARK       I    between atoms: NE_56  and  CZ_57 
REMARK       I    between atoms: CZ_57  and  NH1_58 
REMARK   32  A    between atoms: N_60  and  CA_61 
REMARK   33  A    between atoms: CA_61  and  C_62 
REMARK   34  A    between atoms: CA_61  and  CB_64 
REMARK       I    between atoms: C_62  and  N_72 
REMARK   35  A    between atoms: CB_64  and  CG_65 
REMARK   36  A    between atoms: CZ_70  and  OH_71 
REMARK   37  A    between atoms: N_72  and  CA_73 
REMARK   38  A    between atoms: CA_73  and  C_74 
REMARK       I    between atoms: C_74  and  N_76 
REMARK   39  A    between atoms: N_76  and  CA_77 
REMARK   40  A    between atoms: CA_77  and  C_78 
REMARK   41  A    between atoms: CA_77  and  CB_80 
REMARK       I    between atoms: C_78  and  N_84 
REMARK   42  A    between atoms: CB_80  and  CG_81 
REMARK   43  A    between atoms: CG_81  and  CD1_82 
REMARK   44  A    between atoms: CG_81  and  CD2_83 
REMARK   45  A    between atoms: N_84  and  CA_85 
REMARK   46  A    between atoms: CA_85  and  C_86 
REMARK   47  A    between atoms: CA_85  and  CB_88 
REMARK       I    between atoms: C_86  and  N_93 
REMARK   48  A    between atoms: CB_88  and  CG_89 
REMARK   49  A    between atoms: CG_89  and  CD_90 
REMARK   50  A    between atoms: N_93  and  CA_94 
REMARK   51  A    between atoms: CA_94  and  C_95 
REMARK       I    between atoms: C_95  and  N_97 
REMARK   52  A    between atoms: N_97  and  CA_98 
REMARK   53  A    between atoms: CA_98  and  C_99 
REMARK   54  A    between atoms: CA_98  and  CB_101 
REMARK       I    between atoms: C_99  and  N_105 
REMARK   55  A    between atoms: CB_101  and  CG_102 
REMARK   56  A    between atoms: CG_102  and  CD1_103 
REMARK   57  A    between atoms: CG_102  and  CD2_104 
REMARK   58  A    between atoms: N_105  and  CA_106 
REMARK   59  A    between atoms: CA_106  and  C_107 
REMARK   60  A    between atoms: CA_106  and  CB_109 
REMARK   61  A    between atoms: CB_109  and  CG_110 
REMARK   62  A    between atoms: CG_110  and  CD1_111 
REMARK   63  A    between atoms: CG_110  and  CD2_112 
ROOT
ATOM      1  CA  ARG d   1     -21.415 -11.039  63.063  0.00  0.00     0.089 C 
ATOM      2  H51 ARG d   1     -21.821 -11.926  62.554  0.00  0.00     0.087 H 
ENDROOT
BRANCH   1   3
ATOM      3  N   ARG d   1     -21.405  -9.946  62.097  0.00  0.00    -0.346 N 
ATOM      4  C   TYR d   1     -22.505  -9.608  61.426  0.00  0.00     0.241 C 
ATOM      5  O   TYR d   1     -23.599 -10.140  61.614  0.00  0.00    -0.271 OA
ATOM      6  H50 ARG d   1     -20.557  -9.441  61.936  0.00  0.00     0.163 HD
BRANCH   4   7
ATOM      7  CA  TYR d   1     -22.353  -8.497  60.399  0.00  0.00     0.093 C 
ATOM      8  H42 TYR d   1     -23.357  -8.159  60.102  0.00  0.00     0.088 H 
BRANCH   7   9
ATOM      9  N   TYR d   1     -21.624  -7.349  60.946  0.00  0.00    -0.346 N 
ATOM     10  C   ILE d   1     -22.126  -6.588  61.915  0.00  0.00     0.241 C 
ATOM     11  O   ILE d   1     -23.233  -6.769  62.397  0.00  0.00    -0.271 OA
ATOM     12  H41 TYR d   1     -20.720  -7.131  60.579  0.00  0.00     0.163 HD
BRANCH  10  13
ATOM     13  CA  ILE d   1     -21.226  -5.465  62.461  0.00  0.00     0.092 C 
ATOM     14  H31 ILE d   1     -21.628  -5.171  63.442  0.00  0.00     0.088 H 
BRANCH  13  15
ATOM     15  N   ILE d   1     -19.870  -5.935  62.672  0.00  0.00    -0.346 N 
ATOM     16  C   ALA d   1     -19.635  -6.995  63.432  0.00  0.00     0.240 C 
ATOM     17  O   ALA d   1     -20.540  -7.660  63.942  0.00  0.00    -0.271 OA
ATOM     18  H30 ILE d   1     -19.106  -5.455  62.240  0.00  0.00     0.163 HD
BRANCH  16  19
ATOM     19  CA  ALA d   1     -18.173  -7.349  63.668  0.00  0.00     0.086 C 
ATOM     20  H26 ALA d   1     -18.125  -8.436  63.831  0.00  0.00     0.086 H 
BRANCH  19  21
ATOM     21  N   ALA d   1     -17.314  -7.044  62.532  0.00  0.00    -0.346 N 
ATOM     22  C   PRO d   1     -17.552  -7.534  61.322  0.00  0.00     0.241 C 
ATOM     23  O   PRO d   1     -18.530  -8.241  61.062  0.00  0.00    -0.271 OA
ATOM     24  H25 ALA d   1     -16.522  -6.448  62.668  0.00  0.00     0.163 HD
BRANCH  22  25
ATOM     25  CA  PRO d   1     -16.526  -7.183  60.252  0.00  0.00     0.091 C 
ATOM     26  N   PRO d   1     -16.359  -8.276  59.286  0.00  0.00    -0.337 N 
ATOM     27  C   ILE d   1     -16.072  -9.505  59.761  0.00  0.00     0.243 C 
ATOM     28  CD  PRO d   1     -16.389  -7.780  57.892  0.00  0.00    -0.001 C 
ATOM     29  O   ILE d   1     -15.950  -9.739  60.969  0.00  0.00    -0.271 OA
ATOM     30  CG  PRO d   1     -16.326  -6.260  58.059  0.00  0.00    -0.048 C 
ATOM     31  H23 PRO d   1     -17.317  -8.083  57.386  0.00  0.00     0.064 H 
ATOM     32  H24 PRO d   1     -15.524  -8.150  57.323  0.00  0.00     0.064 H 
ATOM     33  CB  PRO d   1     -17.003  -6.011  59.372  0.00  0.00    -0.036 C 
ATOM     34  H21 PRO d   1     -15.283  -5.912  58.085  0.00  0.00     0.035 H 
ATOM     35  H22 PRO d   1     -16.861  -5.754  57.241  0.00  0.00     0.035 H 
ATOM     36  H19 PRO d   1     -16.690  -5.046  59.799  0.00  0.00     0.036 H 
ATOM     37  H20 PRO d   1     -18.097  -6.024  59.259  0.00  0.00     0.036 H 
ATOM     38  H18 PRO d   1     -15.569  -6.942  60.737  0.00  0.00     0.087 H 
BRANCH  27  39
ATOM     39  CA  ILE d   1     -15.870 -10.629  58.741  0.00  0.00     0.092 C 
ATOM     40  H8  ILE d   1     -15.857 -10.207  57.725  0.00  0.00     0.088 H 
BRANCH  39  41
ATOM     41  N   ILE d   1     -14.589 -11.274  59.009  0.00  0.00    -0.346 N 
ATOM     42  C   ASP d   1     -13.504 -10.992  58.297  0.00  0.00     0.249 C 
ATOM     43  O   ASP d   1     -13.529 -10.256  57.313  0.00  0.00    -0.271 OA
ATOM     44  H7  ILE d   1     -14.526 -11.945  59.748  0.00  0.00     0.163 HD
BRANCH  42  45
ATOM     45  CA  ASP d   1     -12.204 -11.657  58.730  0.00  0.00     0.185 C 
ATOM     46  H4  ASP d   1     -12.438 -12.459  59.446  0.00  0.00     0.100 H 
BRANCH  45  47
ATOM     47  N   ASP d   1     -11.547 -12.240  57.567  0.00  0.00    -0.066 N 
ATOM     48  H1  ASP d   1     -10.687 -12.680  57.853  0.00  0.00     0.275 HD
ATOM     49  H2  ASP d   1     -11.347 -11.515  56.896  0.00  0.00     0.275 HD
ATOM     50  H3  ASP d   1     -12.153 -12.928  57.148  0.00  0.00     0.275 HD
ENDBRANCH  45  47
BRANCH  45  51
ATOM     51  CB  ASP d   1     -11.277 -10.644  59.416  0.00  0.00     0.050 C 
ATOM     52  H5  ASP d   1     -11.170  -9.766  58.761  0.00  0.00     0.052 H 
ATOM     53  H6  ASP d   1     -10.293 -11.113  59.565  0.00  0.00     0.052 H 
BRANCH  51  54
ATOM     54  CG  ASP d   1     -11.806 -10.180  60.771  0.00  0.00     0.175 C 
ATOM     55  OD1 ASP d   1     -12.733 -10.828  61.318  0.00  0.00    -0.648 OA
ATOM     56  OD2 ASP d   1     -11.285  -9.169  61.294  0.00  0.00    -0.648 OA
ENDBRANCH  51  54
ENDBRANCH  45  51
ENDBRANCH  42  45
ENDBRANCH  39  41
BRANCH  39  57
ATOM     57  CB  ILE d   1     -17.034 -11.634  58.853  0.00  0.00    -0.030 C 
ATOM     58  H9  ILE d   1     -17.047 -12.032  59.878  0.00  0.00     0.043 H 
BRANCH  57  59
ATOM     59  CG1 ILE d   1     -16.837 -12.803  57.884  0.00  0.00    -0.063 C 
ATOM     60  H10 ILE d   1     -15.973 -13.394  58.221  0.00  0.00     0.033 H 
ATOM     61  H11 ILE d   1     -16.634 -12.396  56.883  0.00  0.00     0.033 H 
BRANCH  59  62
ATOM     62  CD1 ILE d   1     -18.050 -13.726  57.795  0.00  0.00    -0.076 C 
ATOM     63  H15 ILE d   1     -17.840 -14.540  57.085  0.00  0.00     0.027 H 
ATOM     64  H16 ILE d   1     -18.922 -13.153  57.449  0.00  0.00     0.027 H 
ATOM     65  H17 ILE d   1     -18.261 -14.151  58.787  0.00  0.00     0.027 H 
ENDBRANCH  59  62
ENDBRANCH  57  59
BRANCH  57  66
ATOM     66  CG2 ILE d   1     -18.364 -10.954  58.588  0.00  0.00    -0.071 C 
ATOM     67  H12 ILE d   1     -18.494 -10.117  59.290  0.00  0.00     0.028 H 
ATOM     68  H13 ILE d   1     -19.180 -11.678  58.726  0.00  0.00     0.028 H 
ATOM     69  H14 ILE d   1     -18.382 -10.574  57.556  0.00  0.00     0.028 H 
ENDBRANCH  57  66
ENDBRANCH  39  57
ENDBRANCH  27  39
ENDBRANCH  22  25
ENDBRANCH  19  21
BRANCH  19  70
ATOM     70  CB  ALA d   1     -17.640  -6.656  64.946  0.00  0.00    -0.049 C 
ATOM     71  H27 ALA d   1     -18.298  -6.895  65.794  0.00  0.00     0.030 H 
ATOM     72  H28 ALA d   1     -17.622  -5.567  64.792  0.00  0.00     0.030 H 
ATOM     73  H29 ALA d   1     -16.622  -7.013  65.159  0.00  0.00     0.030 H 
ENDBRANCH  19  70
ENDBRANCH  16  19
ENDBRANCH  13  15
BRANCH  13  74
ATOM     74  CB  ILE d   1     -21.258  -4.211  61.557  0.00  0.00    -0.030 C 
ATOM     75  H32 ILE d   1     -20.633  -3.444  62.038  0.00  0.00     0.043 H 
BRANCH  74  76
ATOM     76  CG1 ILE d   1     -22.675  -3.644  61.472  0.00  0.00    -0.063 C 
ATOM     77  H33 ILE d   1     -23.027  -3.434  62.493  0.00  0.00     0.033 H 
ATOM     78  H34 ILE d   1     -23.325  -4.401  61.008  0.00  0.00     0.033 H 
BRANCH  76  79
ATOM     79  CD1 ILE d   1     -22.772  -2.354  60.651  0.00  0.00    -0.076 C 
ATOM     80  H38 ILE d   1     -23.816  -2.007  60.635  0.00  0.00     0.027 H 
ATOM     81  H39 ILE d   1     -22.434  -2.548  59.622  0.00  0.00     0.027 H 
ATOM     82  H40 ILE d   1     -22.136  -1.581  61.106  0.00  0.00     0.027 H 
ENDBRANCH  76  79
ENDBRANCH  74  76
BRANCH  74  83
ATOM     83  CG2 ILE d   1     -20.632  -4.497  60.180  0.00  0.00    -0.071 C 
ATOM     84  H35 ILE d   1     -19.618  -4.901  60.315  0.00  0.00     0.028 H 
ATOM     85  H36 ILE d   1     -20.581  -3.564  59.600  0.00  0.00     0.028 H 
ATOM     86  H37 ILE d   1     -21.250  -5.230  59.641  0.00  0.00     0.028 H 
ENDBRANCH  74  83
ENDBRANCH  13  74
ENDBRANCH  10  13
ENDBRANCH   7   9
BRANCH   7  87
ATOM     87  CB  TYR d   1     -21.631  -9.035  59.165  0.00  0.00    -0.014 C 
ATOM     88  H43 TYR d   1     -22.206  -9.879  58.757  0.00  0.00     0.043 H 
ATOM     89  H44 TYR d   1     -20.631  -9.383  59.463  0.00  0.00     0.043 H 
BRANCH  87  90
ATOM     90  CG  TYR d   1     -21.482  -7.987  58.094  0.00  0.00    -0.056 A 
ATOM     91  CD1 TYR d   1     -22.592  -7.324  57.600  0.00  0.00    -0.074 A 
ATOM     92  CE1 TYR d   1     -22.466  -6.339  56.629  0.00  0.00    -0.051 A 
ATOM     93  H45 TYR d   1     -23.576  -7.578  57.977  0.00  0.00     0.084 H 
ATOM     94  CZ  TYR d   1     -21.214  -6.014  56.153  0.00  0.00     0.065 A 
ATOM     95  H47 TYR d   1     -23.345  -5.830  56.249  0.00  0.00     0.087 H 
ATOM     96  CE2 TYR d   1     -20.091  -6.658  56.640  0.00  0.00    -0.051 A 
ATOM     97  CD2 TYR d   1     -20.232  -7.634  57.608  0.00  0.00    -0.074 A 
ATOM     98  H48 TYR d   1     -19.107  -6.399  56.265  0.00  0.00     0.087 H 
ATOM     99  H46 TYR d   1     -19.350  -8.132  57.994  0.00  0.00     0.084 H 
BRANCH  94 100
ATOM    100  OH  TYR d   1     -21.073  -5.042  55.186  0.00  0.00    -0.361 OA
ATOM    101  H49 TYR d   1     -20.667  -5.420  54.415  0.00  0.00     0.217 HD
ENDBRANCH  94 100
ENDBRANCH  87  90
ENDBRANCH   7  87
ENDBRANCH   4   7
ENDBRANCH   1   3
BRANCH   1 102
ATOM    102  C   ARG d   1     -22.343 -10.739  64.258  0.00  0.00     0.241 C 
ATOM    103  O   ARG d   1     -22.789 -11.652  64.962  0.00  0.00    -0.271 OA
ATOM    104  N   TYR d   1     -22.649  -9.462  64.468  0.00  0.00    -0.346 N 
ATOM    105  H63 TYR d   1     -22.248  -8.762  63.877  0.00  0.00     0.163 HD
BRANCH 104 106
ATOM    106  CA  TYR d   1     -23.556  -9.052  65.540  0.00  0.00     0.093 C 
ATOM    107  H64 TYR d   1     -23.625  -9.877  66.265  0.00  0.00     0.088 H 
BRANCH 106 108
ATOM    108  C   TYR d   1     -24.970  -8.767  65.009  0.00  0.00     0.241 C 
ATOM    109  O   TYR d   1     -25.876  -8.373  65.762  0.00  0.00    -0.271 OA
ATOM    110  N   GLY d   1     -25.152  -8.975  63.707  0.00  0.00    -0.351 N 
ATOM    111  H72 GLY d   1     -24.374  -9.252  63.144  0.00  0.00     0.163 HD
BRANCH 110 112
ATOM    112  CA  GLY d   1     -26.452  -8.809  63.086  0.00  0.00     0.069 C 
ATOM    113  H73 GLY d   1     -27.155  -9.513  63.555  0.00  0.00     0.078 H 
ATOM    114  H74 GLY d   1     -26.360  -9.042  62.015  0.00  0.00     0.078 H 
BRANCH 112 115
ATOM    115  C   GLY d   1     -27.010  -7.406  63.227  0.00  0.00     0.236 C 
ATOM    116  O   GLY d   1     -28.198  -7.227  63.501  0.00  0.00    -0.272 OA
ATOM    117  N   LEU d   1     -26.151  -6.409  63.026  0.00  0.00    -0.346 N 
ATOM    118  H75 LEU d   1     -25.189  -6.623  62.858  0.00  0.00     0.163 HD
BRANCH 117 119
ATOM    119  CA  LEU d   1     -26.576  -5.011  63.044  0.00  0.00     0.089 C 
ATOM    120  H76 LEU d   1     -27.604  -4.963  63.433  0.00  0.00     0.087 H 
BRANCH 119 121
ATOM    121  C   LEU d   1     -26.552  -4.393  61.648  0.00  0.00     0.241 C 
ATOM    122  O   LEU d   1     -26.690  -3.176  61.512  0.00  0.00    -0.271 OA
ATOM    123  N   GLU d   1     -26.377  -5.220  60.617  0.00  0.00    -0.346 N 
ATOM    124  H86 GLU d   1     -26.375  -6.207  60.775  0.00  0.00     0.163 HD
BRANCH 123 125
ATOM    125  CA  GLU d   1     -26.188  -4.709  59.259  0.00  0.00     0.090 C 
ATOM    126  H87 GLU d   1     -25.406  -3.937  59.306  0.00  0.00     0.087 H 
BRANCH 125 127
ATOM    127  C   GLU d   1     -27.445  -4.055  58.683  0.00  0.00     0.240 C 
ATOM    128  O   GLU d   1     -27.383  -3.331  57.681  0.00  0.00    -0.271 OA
ATOM    129  N   GLY d   1     -28.582  -4.302  59.323  0.00  0.00    -0.351 N 
ATOM    130  H92 GLY d   1     -28.579  -4.927  60.103  0.00  0.00     0.163 HD
BRANCH 129 131
ATOM    131  CA  GLY d   1     -29.833  -3.681  58.912  0.00  0.00     0.069 C 
ATOM    132  H93 GLY d   1     -30.648  -4.087  59.530  0.00  0.00     0.078 H 
ATOM    133  H94 GLY d   1     -30.018  -3.926  57.856  0.00  0.00     0.078 H 
BRANCH 131 134
ATOM    134  C   GLY d   1     -29.812  -2.169  59.065  0.00  0.00     0.236 C 
ATOM    135  O   GLY d   1     -30.645  -1.469  58.493  0.00  0.00    -0.272 OA
ATOM    136  N   LEU d   1     -28.857  -1.659  59.841  0.00  0.00    -0.346 N 
ATOM    137  H95 LEU d   1     -28.207  -2.273  60.290  0.00  0.00     0.163 HD
BRANCH 136 138
ATOM    138  CA  LEU d   1     -28.744  -0.218  60.046  0.00  0.00     0.089 C 
ATOM    139  H96 LEU d   1     -29.759   0.205  60.019  0.00  0.00     0.087 H 
BRANCH 138 140
ATOM    140  C   LEU d   1     -27.927   0.469  58.943  0.00  0.00     0.241 C 
ATOM    141  O   LEU d   1     -27.873   1.701  58.882  0.00  0.00    -0.271 OA
ATOM    142  N   LEU d   1     -27.302  -0.318  58.068  0.00  0.00    -0.345 N 
ATOM    143 6H10 LEU d   1     -27.385  -1.311  58.156  0.00  0.00     0.163 HD
BRANCH 142 144
ATOM    144  CA  LEU d   1     -26.497   0.240  56.982  0.00  0.00     0.096 C 
ATOM    145 7H10 LEU d   1     -25.928   1.089  57.387  0.00  0.00     0.089 H 
BRANCH 144 146
ATOM    146  C   LEU d   1     -27.367   0.758  55.832  0.00  0.00     0.196 C 
ATOM    147  O   LEU d   1     -28.555   0.444  55.765  0.00  0.00    -0.646 OA
ATOM    148  OXT LEU d   1     -26.882   1.490  54.970  0.00  0.00    -0.646 OA
ENDBRANCH 144 146
BRANCH 144 149
ATOM    149  CB  LEU d   1     -25.505  -0.791  56.455  0.00  0.00    -0.034 C 
ATOM    150 8H10 LEU d   1     -25.056  -0.395  55.532  0.00  0.00     0.037 H 
ATOM    151 9H10 LEU d   1     -26.058  -1.714  56.227  0.00  0.00     0.037 H 
BRANCH 149 152
ATOM    152  CG  LEU d   1     -24.373  -1.140  57.424  0.00  0.00    -0.059 C 
ATOM    153 0H11 LEU d   1     -24.812  -1.495  58.368  0.00  0.00     0.038 H 
BRANCH 152 154
ATOM    154  CD1 LEU d   1     -23.478  -2.236  56.868  0.00  0.00    -0.073 C 
ATOM    155 1H11 LEU d   1     -22.679  -2.458  57.590  0.00  0.00     0.028 H 
ATOM    156 2H11 LEU d   1     -23.032  -1.900  55.920  0.00  0.00     0.028 H 
ATOM    157 3H11 LEU d   1     -24.075  -3.143  56.691  0.00  0.00     0.028 H 
ENDBRANCH 152 154
BRANCH 152 158
ATOM    158  CD2 LEU d   1     -23.569   0.110  57.695  0.00  0.00    -0.073 C 
ATOM    159 4H11 LEU d   1     -24.231   0.892  58.096  0.00  0.00     0.028 H 
ATOM    160 5H11 LEU d   1     -23.111   0.462  56.759  0.00  0.00     0.028 H 
ATOM    161 6H11 LEU d   1     -22.779  -0.114  58.428  0.00  0.00     0.028 H 
ENDBRANCH 152 158
ENDBRANCH 149 152
ENDBRANCH 144 149
ENDBRANCH 142 144
ENDBRANCH 138 140
BRANCH 138 162
ATOM    162  CB  LEU d   1     -28.145   0.066  61.434  0.00  0.00    -0.035 C 
ATOM    163  H97 LEU d   1     -27.910   1.139  61.485  0.00  0.00     0.037 H 
ATOM    164  H98 LEU d   1     -27.216  -0.517  61.525  0.00  0.00     0.037 H 
BRANCH 162 165
ATOM    165  CG  LEU d   1     -29.032  -0.277  62.637  0.00  0.00    -0.059 C 
ATOM    166  H99 LEU d   1     -29.499  -1.254  62.446  0.00  0.00     0.038 H 
BRANCH 165 167
ATOM    167  CD1 LEU d   1     -28.218  -0.388  63.918  0.00  0.00    -0.073 C 
ATOM    168 0H10 LEU d   1     -28.886  -0.634  64.757  0.00  0.00     0.028 H 
ATOM    169 1H10 LEU d   1     -27.716   0.570  64.118  0.00  0.00     0.028 H 
ATOM    170 2H10 LEU d   1     -27.463  -1.180  63.805  0.00  0.00     0.028 H 
ENDBRANCH 165 167
BRANCH 165 171
ATOM    171  CD2 LEU d   1     -30.138   0.752  62.799  0.00  0.00    -0.073 C 
ATOM    172 3H10 LEU d   1     -30.716   0.819  61.865  0.00  0.00     0.028 H 
ATOM    173 4H10 LEU d   1     -29.696   1.733  63.028  0.00  0.00     0.028 H 
ATOM    174 5H10 LEU d   1     -30.803   0.449  63.621  0.00  0.00     0.028 H 
ENDBRANCH 165 171
ENDBRANCH 162 165
ENDBRANCH 138 162
ENDBRANCH 136 138
ENDBRANCH 131 134
ENDBRANCH 129 131
ENDBRANCH 125 127
BRANCH 125 175
ATOM    175  CB  GLU d   1     -25.700  -5.818  58.320  0.00  0.00    -0.029 C 
ATOM    176  H88 GLU d   1     -24.830  -6.304  58.786  0.00  0.00     0.037 H 
ATOM    177  H89 GLU d   1     -25.396  -5.354  57.370  0.00  0.00     0.037 H 
BRANCH 175 178
ATOM    178  CG  GLU d   1     -26.744  -6.898  58.013  0.00  0.00     0.018 C 
ATOM    179  H90 GLU d   1     -26.429  -7.445  57.112  0.00  0.00     0.049 H 
ATOM    180  H91 GLU d   1     -27.711  -6.409  57.826  0.00  0.00     0.049 H 
BRANCH 178 181
ATOM    181  CD  GLU d   1     -26.914  -7.891  59.150  0.00  0.00     0.172 C 
ATOM    182  OE1 GLU d   1     -26.219  -7.747  60.187  0.00  0.00    -0.648 OA
ATOM    183  OE2 GLU d   1     -27.740  -8.827  59.005  0.00  0.00    -0.648 OA
ENDBRANCH 178 181
ENDBRANCH 175 178
ENDBRANCH 125 175
ENDBRANCH 123 125
ENDBRANCH 119 121
BRANCH 119 184
ATOM    184  CB  LEU d   1     -25.655  -4.199  63.961  0.00  0.00    -0.035 C 
ATOM    185  H77 LEU d   1     -25.974  -3.147  63.918  0.00  0.00     0.037 H 
ATOM    186  H78 LEU d   1     -24.628  -4.287  63.576  0.00  0.00     0.037 H 
BRANCH 184 187
ATOM    187  CG  LEU d   1     -25.647  -4.628  65.421  0.00  0.00    -0.059 C 
ATOM    188  H79 LEU d   1     -25.484  -5.715  65.459  0.00  0.00     0.038 H 
BRANCH 187 189
ATOM    189  CD1 LEU d   1     -24.506  -3.949  66.194  0.00  0.00    -0.073 C 
ATOM    190  H80 LEU d   1     -24.527  -4.279  67.243  0.00  0.00     0.028 H 
ATOM    191  H81 LEU d   1     -24.632  -2.857  66.150  0.00  0.00     0.028 H 
ATOM    192  H82 LEU d   1     -23.542  -4.225  65.742  0.00  0.00     0.028 H 
ENDBRANCH 187 189
BRANCH 187 193
ATOM    193  CD2 LEU d   1     -26.999  -4.324  66.061  0.00  0.00    -0.073 C 
ATOM    194  H83 LEU d   1     -27.796  -4.821  65.489  0.00  0.00     0.028 H 
ATOM    195  H84 LEU d   1     -27.170  -3.237  66.059  0.00  0.00     0.028 H 
ATOM    196  H85 LEU d   1     -27.006  -4.694  67.097  0.00  0.00     0.028 H 
ENDBRANCH 187 193
ENDBRANCH 184 187
ENDBRANCH 119 184
ENDBRANCH 117 119
ENDBRANCH 112 115
ENDBRANCH 110 112
ENDBRANCH 106 108
BRANCH 106 197
ATOM    197  CB  TYR d   1     -22.991  -7.822  66.261  0.00  0.00    -0.014 C 
ATOM    198  H65 TYR d   1     -23.831  -7.237  66.665  0.00  0.00     0.043 H 
ATOM    199  H66 TYR d   1     -22.438  -7.213  65.531  0.00  0.00     0.043 H 
BRANCH 197 200
ATOM    200  CG  TYR d   1     -22.060  -8.171  67.398  0.00  0.00    -0.056 A 
ATOM    201  CD1 TYR d   1     -20.752  -8.582  67.159  0.00  0.00    -0.074 A 
ATOM    202  CE1 TYR d   1     -19.898  -8.909  68.212  0.00  0.00    -0.051 A 
ATOM    203  H67 TYR d   1     -20.392  -8.649  66.139  0.00  0.00     0.084 H 
ATOM    204  CZ  TYR d   1     -20.364  -8.826  69.510  0.00  0.00     0.065 A 
ATOM    205  H69 TYR d   1     -18.880  -9.225  68.014  0.00  0.00     0.087 H 
ATOM    206  CE2 TYR d   1     -21.659  -8.429  69.762  0.00  0.00    -0.051 A 
ATOM    207  CD2 TYR d   1     -22.495  -8.107  68.711  0.00  0.00    -0.074 A 
ATOM    208  H70 TYR d   1     -22.021  -8.370  70.782  0.00  0.00     0.087 H 
ATOM    209  H68 TYR d   1     -23.513  -7.798  68.918  0.00  0.00     0.084 H 
BRANCH 204 210
ATOM    210  OH  TYR d   1     -19.543  -9.149  70.571  0.00  0.00    -0.361 OA
ATOM    211  H71 TYR d   1     -18.688  -9.402  70.243  0.00  0.00     0.217 HD
ENDBRANCH 204 210
ENDBRANCH 197 200
ENDBRANCH 106 197
ENDBRANCH 104 106
ENDBRANCH   1 102
BRANCH   1 212
ATOM    212  CB  ARG d   1     -19.978 -11.380  63.504  0.00  0.00    -0.036 C 
ATOM    213  H52 ARG d   1     -20.033 -12.064  64.364  0.00  0.00     0.036 H 
ATOM    214  H53 ARG d   1     -19.479 -10.448  63.808  0.00  0.00     0.036 H 
BRANCH 212 215
ATOM    215  CG  ARG d   1     -19.127 -12.050  62.405  0.00  0.00    -0.048 C 
ATOM    216  H54 ARG d   1     -19.445 -11.656  61.428  0.00  0.00     0.035 H 
ATOM    217  H55 ARG d   1     -19.305 -13.135  62.438  0.00  0.00     0.035 H 
BRANCH 215 218
ATOM    218  CD  ARG d   1     -17.618 -11.797  62.567  0.00  0.00     0.009 C 
ATOM    219  H56 ARG d   1     -17.374 -10.803  62.165  0.00  0.00     0.064 H 
ATOM    220  H57 ARG d   1     -17.062 -12.565  62.009  0.00  0.00     0.064 H 
BRANCH 218 221
ATOM    221  NE  ARG d   1     -17.230 -11.852  63.965  0.00  0.00    -0.227 N 
ATOM    222  CZ  ARG d   1     -16.395 -11.016  64.562  0.00  0.00     0.665 C 
ATOM    223  NH1 ARG d   1     -15.786 -10.026  63.898  0.00  0.00    -0.235 N 
ATOM    224  NH2 ARG d   1     -16.156 -11.194  65.844  0.00  0.00    -0.235 N 
ATOM    225  H59 ARG d   1     -15.142  -9.393  64.394  0.00  0.00     0.174 HD
ATOM    226  H60 ARG d   1     -15.961  -9.897  62.891  0.00  0.00     0.174 HD
ATOM    227  H61 ARG d   1     -16.625 -11.956  66.354  0.00  0.00     0.174 HD
ATOM    228  H62 ARG d   1     -15.500 -10.571  66.337  0.00  0.00     0.174 HD
ATOM    229  H58 ARG d   1     -17.638 -12.603  64.540  0.00  0.00     0.177 HD
ENDBRANCH 218 221
ENDBRANCH 215 218
ENDBRANCH 212 215
ENDBRANCH   1 212
TORSDOF 63
