REMARK  31 active torsions:
REMARK  status: ('A' for Active; 'I' for Inactive)
REMARK    1  A    between atoms: N_1  and  CA_2 
REMARK    2  A    between atoms: CA_2  and  C_3 
REMARK    3  A    between atoms: CA_2  and  CB_5 
REMARK       I    between atoms: C_3  and  N_7 
REMARK    4  A    between atoms: CB_5  and  OG_6 
REMARK    5  A    between atoms: N_7  and  CA_8 
REMARK    6  A    between atoms: CA_8  and  C_9 
REMARK    7  A    between atoms: CA_8  and  CB_11 
REMARK       I    between atoms: C_9  and  N_15 
REMARK    8  A    between atoms: CB_11  and  CG_12 
REMARK    9  A    between atoms: N_15  and  CA_16 
REMARK   10  A    between atoms: CA_16  and  C_17 
REMARK       I    between atoms: C_17  and  N_19 
REMARK   11  A    between atoms: N_19  and  CA_20 
REMARK   12  A    between atoms: CA_20  and  C_21 
REMARK   13  A    between atoms: CA_20  and  CB_23 
REMARK       I    between atoms: C_21  and  N_35 
REMARK   14  A    between atoms: CB_23  and  CG_24 
REMARK   15  A    between atoms: CZ_29  and  OH_30 
REMARK   16  A    between atoms: OH_30  and  P_31 
REMARK   17  A    between atoms: N_35  and  CA_36 
REMARK   18  A    between atoms: CA_36  and  C_37 
REMARK   19  A    between atoms: CA_36  and  CB_39 
REMARK       I    between atoms: C_37  and  N_42 
REMARK   20  A    between atoms: CB_39  and  OG1_40 
REMARK   21  A    between atoms: CB_39  and  CG2_41 
REMARK   22  A    between atoms: CA_43  and  C_44 
REMARK       I    between atoms: C_44  and  N_49 
REMARK   23  A    between atoms: N_49  and  CA_50 
REMARK   24  A    between atoms: CA_50  and  C_51 
REMARK   25  A    between atoms: CA_50  and  CB_53 
REMARK       I    between atoms: C_51  and  N_58 
REMARK   26  A    between atoms: CB_53  and  CG_54 
REMARK   27  A    between atoms: CG_54  and  CD_55 
REMARK   28  A    between atoms: CA_59  and  C_60 
REMARK       I    between atoms: C_60  and  N_65 
REMARK   29  A    between atoms: N_65  and  CA_66 
REMARK   30  A    between atoms: CA_66  and  C_67 
REMARK   31  A    between atoms: CA_66  and  CB_69 
ROOT
ATOM      1  CA  THR d   1     -38.942   9.093  -8.068  0.00  0.00     0.114 C 
ATOM      2  H   THR d   1     -38.212   8.650  -7.391  0.00  0.00     0.091 H 
ENDROOT
BRANCH   1   3
ATOM      3  N   THR d   1     -38.171   9.772  -9.093  0.00  0.00    -0.344 N 
ATOM      4  C   PTR d   1     -36.884  10.034  -8.925  0.00  0.00     0.241 C 
ATOM      5  O   PTR d   1     -36.272   9.734  -7.901  0.00  0.00    -0.271 OA
ATOM      6  H   THR d   1     -38.630  10.053  -9.960  0.00  0.00     0.163 HD
BRANCH   4   7
ATOM      7  CA  PTR d   1     -36.202  10.786 -10.066  0.00  0.00     0.093 C 
ATOM      8  H   PTR d   1     -36.978  11.445 -10.456  0.00  0.00     0.088 H 
BRANCH   7   9
ATOM      9  N   PTR d   1     -35.069  11.534  -9.568  0.00  0.00    -0.346 N 
ATOM     10  C   GLY d   1     -35.218  12.801  -9.199  0.00  0.00     0.236 C 
ATOM     11  O   GLY d   1     -36.283  13.402  -9.313  0.00  0.00    -0.272 OA
ATOM     12  H   PTR d   1     -34.154  11.088  -9.500  0.00  0.00     0.163 HD
BRANCH  10  13
ATOM     13  CA  GLY d   1     -33.994  13.482  -8.614  0.00  0.00     0.069 C 
ATOM     14  H   GLY d   1     -33.577  14.127  -9.388  0.00  0.00     0.078 H 
ATOM     15  H   GLY d   1     -34.314  14.022  -7.723  0.00  0.00     0.078 H 
BRANCH  13  16
ATOM     16  N   GLY d   1     -32.951  12.555  -8.211  0.00  0.00    -0.351 N 
ATOM     17  C   ASP d   1     -31.902  12.355  -8.999  0.00  0.00     0.241 C 
ATOM     18  O   ASP d   1     -31.806  12.900 -10.113  0.00  0.00    -0.271 OA
ATOM     19  H   GLY d   1     -33.025  12.058  -7.323  0.00  0.00     0.163 HD
BRANCH  17  20
ATOM     20  CA  ASP d   1     -30.827  11.348  -8.494  0.00  0.00     0.098 C 
ATOM     21  H   ASP d   1     -29.979  11.985  -8.244  0.00  0.00     0.088 H 
BRANCH  20  22
ATOM     22  N   ASP d   1     -31.196  10.644  -7.283  0.00  0.00    -0.345 N 
ATOM     23  C   SER d   1     -30.743  10.990  -6.086  0.00  0.00     0.251 C 
ATOM     24  O   SER d   1     -29.924  11.888  -5.910  0.00  0.00    -0.271 OA
ATOM     25  H   ASP d   1     -31.831   9.849  -7.354  0.00  0.00     0.163 HD
BRANCH  23  26
ATOM     26  CA  SER d   1     -31.233  10.136  -4.927  0.00  0.00     0.195 C 
ATOM     27  H   SER d   1     -32.317  10.034  -4.980  0.00  0.00     0.102 H 
BRANCH  26  28
ATOM     28  N   SER d   1     -30.644   8.800  -5.018  0.00  0.00    -0.064 N 
ATOM     29  H   SER d   1     -30.889   8.382  -5.916  0.00  0.00     0.275 HD
ATOM     30  H   SER d   1     -29.630   8.871  -4.940  0.00  0.00     0.275 HD
ATOM     31  H   SER d   1     -31.005   8.219  -4.261  0.00  0.00     0.275 HD
ENDBRANCH  26  28
BRANCH  26  32
ATOM     32  CB  SER d   1     -30.894  10.813  -3.589  0.00  0.00     0.051 C 
ATOM     33  H   SER d   1     -30.838  10.036  -2.827  0.00  0.00     0.077 H 
ATOM     34  H   SER d   1     -31.669  11.552  -3.384  0.00  0.00     0.077 H 
BRANCH  32  35
ATOM     35  OG  SER d   1     -29.642  11.490  -3.613  0.00  0.00    -0.398 OA
ATOM     36  H   SER d   1     -29.660  12.171  -4.290  0.00  0.00     0.209 HD
ENDBRANCH  32  35
ENDBRANCH  26  32
ENDBRANCH  23  26
ENDBRANCH  20  22
BRANCH  20  37
ATOM     37  CB  ASP d   1     -30.369  10.359  -9.569  0.00  0.00     0.043 C 
ATOM     38  H   ASP d   1     -29.624   9.701  -9.122  0.00  0.00     0.052 H 
ATOM     39  H   ASP d   1     -29.974  10.934 -10.407  0.00  0.00     0.052 H 
BRANCH  37  40
ATOM     40  CG  ASP d   1     -31.497   9.498 -10.088  0.00  0.00     0.175 C 
ATOM     41  OD1 ASP d   1     -32.586   9.524  -9.469  0.00  0.00    -0.648 OA
ATOM     42  OD2 ASP d   1     -31.292   8.817 -11.127  0.00  0.00    -0.648 OA
ENDBRANCH  37  40
ENDBRANCH  20  37
ENDBRANCH  17  20
ENDBRANCH  13  16
ENDBRANCH  10  13
ENDBRANCH   7   9
BRANCH   7  43
ATOM     43  CB  PTR d   1     -35.756   9.934 -11.246  0.00  0.00    -0.014 C 
ATOM     44  H   PTR d   1     -36.623   9.375 -11.597  0.00  0.00     0.043 H 
ATOM     45  H   PTR d   1     -34.944   9.293 -10.903  0.00  0.00     0.043 H 
BRANCH  43  46
ATOM     46  CG  PTR d   1     -35.237  10.752 -12.405  0.00  0.00    -0.056 A 
ATOM     47  CD1 PTR d   1     -33.885  10.805 -12.693  0.00  0.00    -0.074 A 
ATOM     48  CE1 PTR d   1     -33.403  11.534 -13.760  0.00  0.00    -0.050 A 
ATOM     49  H   PTR d   1     -33.184  10.258 -12.062  0.00  0.00     0.084 H 
ATOM     50  CZ  PTR d   1     -34.271  12.256 -14.553  0.00  0.00     0.082 A 
ATOM     51  H   PTR d   1     -32.335  11.540 -13.977  0.00  0.00     0.087 H 
ATOM     52  CE2 PTR d   1     -35.622  12.220 -14.269  0.00  0.00    -0.050 A 
ATOM     53  CD2 PTR d   1     -36.096  11.485 -13.201  0.00  0.00    -0.074 A 
ATOM     54  H   PTR d   1     -36.320  12.777 -14.894  0.00  0.00     0.087 H 
ATOM     55  H   PTR d   1     -37.164  11.483 -12.982  0.00  0.00     0.084 H 
BRANCH  50  56
ATOM     56  OH  PTR d   1     -33.876  12.970 -15.513  0.00  0.00    -0.240 OA
BRANCH  56  57
ATOM     57  P   PTR d   1     -32.372  13.093 -16.132  0.00  0.00     0.427 P 
ATOM     58  O1P PTR d   1     -31.381  13.665 -15.185  0.00  0.00    -0.617 OA
ATOM     59  O2P PTR d   1     -32.489  13.953 -17.392  0.00  0.00    -0.617 OA
ATOM     60  O3P PTR d   1     -31.879  11.706 -16.591  0.00  0.00    -0.617 OA
ENDBRANCH  56  57
ENDBRANCH  50  56
ENDBRANCH  43  46
ENDBRANCH   7  43
ENDBRANCH   4   7
ENDBRANCH   1   3
BRANCH   1  61
ATOM     61  C   THR d   1     -39.788   7.967  -8.646  0.00  0.00     0.245 C 
ATOM     62  O   THR d   1     -39.964   7.868  -9.857  0.00  0.00    -0.271 OA
ATOM     63  N   PRO d   1     -40.277   7.087  -7.775  0.00  0.00    -0.337 N 
ATOM     64  CA  PRO d   1     -41.109   5.971  -8.222  0.00  0.00     0.091 C 
ATOM     65  CD  PRO d   1     -39.893   6.963  -6.359  0.00  0.00    -0.001 C 
ATOM     66  CB  PRO d   1     -41.412   5.211  -6.920  0.00  0.00    -0.036 C 
ATOM     67  H   PRO d   1     -40.618   5.355  -8.976  0.00  0.00     0.087 H 
ATOM     68  CG  PRO d   1     -40.253   5.527  -6.036  0.00  0.00    -0.048 C 
ATOM     69  H   PRO d   1     -41.524   4.139  -7.085  0.00  0.00     0.036 H 
ATOM     70  H   PRO d   1     -42.362   5.513  -6.478  0.00  0.00     0.036 H 
ATOM     71  H   PRO d   1     -39.416   4.852  -6.211  0.00  0.00     0.035 H 
ATOM     72  H   PRO d   1     -40.502   5.400  -4.982  0.00  0.00     0.035 H 
ATOM     73  H   PRO d   1     -40.403   7.682  -5.718  0.00  0.00     0.064 H 
ATOM     74  H   PRO d   1     -38.840   7.185  -6.185  0.00  0.00     0.064 H 
BRANCH  64  75
ATOM     75  C   PRO d   1     -42.391   6.461  -8.872  0.00  0.00     0.241 C 
ATOM     76  O   PRO d   1     -42.966   7.463  -8.462  0.00  0.00    -0.271 OA
ATOM     77  N   GLU d   1     -42.831   5.734  -9.888  0.00  0.00    -0.346 N 
ATOM     78  H   GLU d   1     -42.327   4.884 -10.141  0.00  0.00     0.163 HD
BRANCH  77  79
ATOM     79  CA  GLU d   1     -44.006   6.107 -10.652  0.00  0.00     0.090 C 
ATOM     80  H   GLU d   1     -43.802   7.078 -11.103  0.00  0.00     0.087 H 
BRANCH  79  81
ATOM     81  C   GLU d   1     -45.238   6.226  -9.777  0.00  0.00     0.243 C 
ATOM     82  O   GLU d   1     -45.404   5.461  -8.836  0.00  0.00    -0.271 OA
ATOM     83  N   PRO d   1     -46.123   7.171 -10.107  0.00  0.00    -0.337 N 
ATOM     84  CA  PRO d   1     -47.396   7.266  -9.389  0.00  0.00     0.091 C 
ATOM     85  CD  PRO d   1     -45.974   8.213 -11.140  0.00  0.00    -0.001 C 
ATOM     86  CB  PRO d   1     -48.048   8.527  -9.977  0.00  0.00    -0.036 C 
ATOM     87  H   PRO d   1     -47.264   7.322  -8.308  0.00  0.00     0.087 H 
ATOM     88  CG  PRO d   1     -47.355   8.761 -11.278  0.00  0.00    -0.048 C 
ATOM     89  H   PRO d   1     -47.943   9.381  -9.308  0.00  0.00     0.036 H 
ATOM     90  H   PRO d   1     -49.122   8.396 -10.113  0.00  0.00     0.036 H 
ATOM     91  H   PRO d   1     -47.327   9.825 -11.514  0.00  0.00     0.035 H 
ATOM     92  H   PRO d   1     -47.886   8.268 -12.092  0.00  0.00     0.035 H 
ATOM     93  H   PRO d   1     -45.583   7.820 -12.079  0.00  0.00     0.064 H 
ATOM     94  H   PRO d   1     -45.246   8.976 -10.864  0.00  0.00     0.064 H 
BRANCH  84  95
ATOM     95  C   PRO d   1     -48.267   6.029  -9.616  0.00  0.00     0.241 C 
ATOM     96  O   PRO d   1     -48.264   5.456 -10.713  0.00  0.00    -0.271 OA
ATOM     97  N   ALA d   1     -48.996   5.624  -8.578  0.00  0.00    -0.345 N 
ATOM     98  H   ALA d   1     -48.959   6.154  -7.707  0.00  0.00     0.163 HD
BRANCH  97  99
ATOM     99  CA  ALA d   1     -49.846   4.443  -8.655  0.00  0.00     0.093 C 
ATOM    100  H   ALA d   1     -49.995   4.207  -9.709  0.00  0.00     0.089 H 
BRANCH  99 101
ATOM    101  C   ALA d   1     -51.225   4.698  -8.047  0.00  0.00     0.196 C 
ATOM    102  O   ALA d   1     -51.395   4.674  -6.799  0.00  0.00    -0.646 OA
ATOM    103  O   ALA d   1     -52.204   4.935  -8.804  0.00  0.00    -0.646 OA
ENDBRANCH  99 101
BRANCH  99 104
ATOM    104  CB  ALA d   1     -49.168   3.260  -7.978  0.00  0.00    -0.048 C 
ATOM    105  H   ALA d   1     -48.221   3.051  -8.476  0.00  0.00     0.030 H 
ATOM    106  H   ALA d   1     -48.984   3.499  -6.931  0.00  0.00     0.030 H 
ATOM    107  H   ALA d   1     -49.815   2.385  -8.044  0.00  0.00     0.030 H 
ENDBRANCH  99 104
ENDBRANCH  97  99
ENDBRANCH  84  95
ENDBRANCH  79  81
BRANCH  79 108
ATOM    108  CB  GLU d   1     -44.280   5.056 -11.717  0.00  0.00    -0.029 C 
ATOM    109  H   GLU d   1     -45.148   5.398 -12.281  0.00  0.00     0.037 H 
ATOM    110  H   GLU d   1     -44.413   4.108 -11.196  0.00  0.00     0.037 H 
BRANCH 108 111
ATOM    111  CG  GLU d   1     -43.169   4.853 -12.711  0.00  0.00     0.018 C 
ATOM    112  H   GLU d   1     -42.358   4.315 -12.220  0.00  0.00     0.049 H 
ATOM    113  H   GLU d   1     -42.840   5.829 -13.067  0.00  0.00     0.049 H 
BRANCH 111 114
ATOM    114  CD  GLU d   1     -43.635   4.039 -13.901  0.00  0.00     0.172 C 
ATOM    115  OE1 GLU d   1     -44.391   4.601 -14.730  0.00  0.00    -0.648 OA
ATOM    116  OE2 GLU d   1     -43.264   2.840 -13.992  0.00  0.00    -0.648 OA
ENDBRANCH 111 114
ENDBRANCH 108 111
ENDBRANCH  79 108
ENDBRANCH  77  79
ENDBRANCH  64  75
ENDBRANCH   1  61
BRANCH   1 117
ATOM    117  CB  THR d   1     -39.813  10.069  -7.217  0.00  0.00     0.060 C 
ATOM    118  H   THR d   1     -40.498   9.474  -6.613  0.00  0.00     0.086 H 
BRANCH 117 119
ATOM    119  OG1 THR d   1     -40.599  10.931  -8.059  0.00  0.00    -0.393 OA
ATOM    120  H   THR d   1     -40.016  11.448  -8.619  0.00  0.00     0.210 HD
ENDBRANCH 117 119
BRANCH 117 121
ATOM    121  CG2 THR d   1     -38.930  10.892  -6.293  0.00  0.00    -0.050 C 
ATOM    122  H   THR d   1     -38.384  10.226  -5.625  0.00  0.00     0.031 H 
ATOM    123  H   THR d   1     -38.223  11.470  -6.888  0.00  0.00     0.031 H 
ATOM    124  H   THR d   1     -39.551  11.568  -5.706  0.00  0.00     0.031 H 
ENDBRANCH 117 121
ENDBRANCH   1 117
TORSDOF 31
