REMARK  8 active torsions:
REMARK  status: ('A' for Active; 'I' for Inactive)
REMARK    1  A    between atoms: N_1  and  CA_2 
REMARK    2  A    between atoms: CA_2  and  CB_3 
REMARK    3  A    between atoms: CA_2  and  C_12 
REMARK    4  A    between atoms: CB_3  and  CG_4 
REMARK    5  A    between atoms: CG_4  and  CD_5 
REMARK    6  A    between atoms: CD_5  and  NE_6 
REMARK       I    between atoms: NE_6  and  CZ_7 
REMARK       I    between atoms: CZ_7  and  NH1_8 
REMARK    7  A    between atoms: NH1_8  and  CQ1_9 
REMARK    8  A    between atoms: NH2_10  and  CQ2_11 
ROOT
ATOM      1  CD  2MR d   1      14.691   2.856   0.480  0.00  0.00     0.009 C 
ATOM      2  H   2MR d   1      14.575   3.817  -0.020  0.00  0.00     0.064 H 
ATOM      3  H   2MR d   1      14.684   2.991   1.562  0.00  0.00     0.064 H 
ENDROOT
BRANCH   1   4
ATOM      4  CG  2MR d   1      16.008   2.239   0.067  0.00  0.00    -0.047 C 
ATOM      5  H   2MR d   1      16.806   2.954   0.269  0.00  0.00     0.035 H 
ATOM      6  H   2MR d   1      16.154   1.318   0.631  0.00  0.00     0.035 H 
BRANCH   4   7
ATOM      7  CB  2MR d   1      16.016   1.905  -1.424  0.00  0.00    -0.028 C 
ATOM      8  H   2MR d   1      16.783   1.142  -1.556  0.00  0.00     0.036 H 
ATOM      9  H   2MR d   1      14.993   1.622  -1.673  0.00  0.00     0.036 H 
BRANCH   7  10
ATOM     10  CA  2MR d   1      16.383   3.040  -2.383  0.00  0.00     0.182 C 
ATOM     11  H   2MR d   1      15.686   3.860  -2.208  0.00  0.00     0.101 H 
BRANCH  10  12
ATOM     12  N   2MR d   1      16.298   2.572  -3.760  0.00  0.00    -0.065 N 
ATOM     13  H   2MR d   1      15.350   2.248  -3.950  0.00  0.00     0.275 HD
ATOM     14  H   2MR d   1      16.530   3.338  -4.393  0.00  0.00     0.275 HD
ATOM     15  H   2MR d   1      16.955   1.804  -3.898  0.00  0.00     0.275 HD
ENDBRANCH  10  12
BRANCH  10  16
ATOM     16  C   2MR d   1      17.790   3.507  -2.146  0.00  0.00     0.204 C 
ATOM     17  O   2MR d   1      17.985   4.689  -1.816  0.00  0.00    -0.646 OA
ATOM     18  OXT 2MR d   1      18.720   2.708  -2.375  0.00  0.00    -0.646 OA
ENDBRANCH  10  16
ENDBRANCH   7  10
ENDBRANCH   4   7
ENDBRANCH   1   4
BRANCH   1  19
ATOM     19  NE  2MR d   1      13.572   1.973   0.096  0.00  0.00    -0.227 N 
ATOM     20  CZ  2MR d   1      12.300   2.139   0.421  0.00  0.00     0.668 C 
ATOM     21  NH1 2MR d   1      11.962   3.221   1.188  0.00  0.00    -0.231 N 
ATOM     22  NH2 2MR d   1      11.422   1.252  -0.076  0.00  0.00    -0.231 N 
ATOM     23  H   2MR d   1      12.750   3.817   1.442  0.00  0.00     0.177 HD
ATOM     24  H   2MR d   1      11.835   0.528  -0.664  0.00  0.00     0.177 HD
ATOM     25  H   2MR d   1      13.801   1.158  -0.473  0.00  0.00     0.177 HD
BRANCH  21  26
ATOM     26  CQ1 2MR d   1      10.667   3.677   1.710  0.00  0.00    -0.005 C 
ATOM     27  H   2MR d   1       9.989   3.871   0.878  0.00  0.00     0.057 H 
ATOM     28  H   2MR d   1      10.244   2.905   2.353  0.00  0.00     0.057 H 
ATOM     29  H   2MR d   1      10.810   4.592   2.285  0.00  0.00     0.057 H 
ENDBRANCH  21  26
BRANCH  22  30
ATOM     30  CQ2 2MR d   1       9.987   1.152   0.084  0.00  0.00    -0.005 C 
ATOM     31  H   2MR d   1       9.748   1.028   1.140  0.00  0.00     0.057 H 
ATOM     32  H   2MR d   1       9.517   2.060  -0.292  0.00  0.00     0.057 H 
ATOM     33  H   2MR d   1       9.619   0.292  -0.476  0.00  0.00     0.057 H 
ENDBRANCH  22  30
ENDBRANCH   1  19
TORSDOF 8
