REMARK  8 active torsions:
REMARK  status: ('A' for Active; 'I' for Inactive)
REMARK    1  A    between atoms: N_1  and  CA_2 
REMARK    2  A    between atoms: CA_2  and  CB_3 
REMARK    3  A    between atoms: CA_2  and  C_12 
REMARK    4  A    between atoms: CB_3  and  CG_4 
REMARK    5  A    between atoms: CG_4  and  CD_5 
REMARK    6  A    between atoms: CD_5  and  NE_6 
REMARK       I    between atoms: NE_6  and  CZ_7 
REMARK       I    between atoms: CZ_7  and  NH1_8 
REMARK    7  A    between atoms: NH1_8  and  CQ1_9 
REMARK    8  A    between atoms: NH2_10  and  CQ2_11 
ROOT
ATOM      1  CD  2MR d   1     -14.272  -2.965   2.960  0.00  0.00     0.009 C 
ATOM      2  H   2MR d   1     -13.955  -3.940   3.329  0.00  0.00     0.064 H 
ATOM      3  H   2MR d   1     -14.284  -2.227   3.762  0.00  0.00     0.064 H 
ENDROOT
BRANCH   1   4
ATOM      4  CG  2MR d   1     -15.657  -3.091   2.403  0.00  0.00    -0.047 C 
ATOM      5  H   2MR d   1     -16.329  -3.369   3.215  0.00  0.00     0.035 H 
ATOM      6  H   2MR d   1     -15.935  -2.136   1.957  0.00  0.00     0.035 H 
BRANCH   4   7
ATOM      7  CB  2MR d   1     -15.736  -4.148   1.342  0.00  0.00    -0.028 C 
ATOM      8  H   2MR d   1     -15.081  -3.839   0.527  0.00  0.00     0.036 H 
ATOM      9  H   2MR d   1     -15.451  -5.093   1.804  0.00  0.00     0.036 H 
BRANCH   7  10
ATOM     10  CA  2MR d   1     -17.134  -4.333   0.755  0.00  0.00     0.182 C 
ATOM     11  H   2MR d   1     -17.810  -4.597   1.569  0.00  0.00     0.101 H 
BRANCH  10  12
ATOM     12  N   2MR d   1     -17.123  -5.387  -0.244  0.00  0.00    -0.065 N 
ATOM     13  H   2MR d   1     -16.811  -6.258   0.186  0.00  0.00     0.275 HD
ATOM     14  H   2MR d   1     -18.064  -5.509  -0.618  0.00  0.00     0.275 HD
ATOM     15  H   2MR d   1     -16.486  -5.132  -0.999  0.00  0.00     0.275 HD
ENDBRANCH  10  12
BRANCH  10  16
ATOM     16  C   2MR d   1     -17.595  -3.065   0.098  0.00  0.00     0.204 C 
ATOM     17  O   2MR d   1     -18.622  -2.500   0.520  0.00  0.00    -0.646 OA
ATOM     18  OXT 2MR d   1     -16.946  -2.634  -0.869  0.00  0.00    -0.646 OA
ENDBRANCH  10  16
ENDBRANCH   7  10
ENDBRANCH   4   7
ENDBRANCH   1   4
BRANCH   1  19
ATOM     19  NE  2MR d   1     -13.335  -2.527   1.939  0.00  0.00    -0.227 N 
ATOM     20  CZ  2MR d   1     -12.090  -2.202   2.159  0.00  0.00     0.668 C 
ATOM     21  NH1 2MR d   1     -11.615  -2.276   3.444  0.00  0.00    -0.231 N 
ATOM     22  NH2 2MR d   1     -11.346  -1.838   1.088  0.00  0.00    -0.231 N 
ATOM     23  H   2MR d   1     -12.303  -2.591   4.128  0.00  0.00     0.177 HD
ATOM     24  H   2MR d   1     -11.848  -1.858   0.200  0.00  0.00     0.177 HD
ATOM     25  H   2MR d   1     -13.675  -2.469   0.979  0.00  0.00     0.177 HD
BRANCH  21  26
ATOM     26  CQ1 2MR d   1     -10.291  -1.982   4.009  0.00  0.00    -0.005 C 
ATOM     27  H   2MR d   1      -9.546  -2.626   3.541  0.00  0.00     0.057 H 
ATOM     28  H   2MR d   1     -10.041  -0.938   3.821  0.00  0.00     0.057 H 
ATOM     29  H   2MR d   1     -10.307  -2.165   5.083  0.00  0.00     0.057 H 
ENDBRANCH  21  26
BRANCH  22  30
ATOM     30  CQ2 2MR d   1      -9.953  -1.423   0.984  0.00  0.00    -0.005 C 
ATOM     31  H   2MR d   1      -9.796  -0.527   1.585  0.00  0.00     0.057 H 
ATOM     32  H   2MR d   1      -9.309  -2.224   1.347  0.00  0.00     0.057 H 
ATOM     33  H   2MR d   1      -9.716  -1.209  -0.058  0.00  0.00     0.057 H 
ENDBRANCH  22  30
ENDBRANCH   1  19
TORSDOF 8
