REMARK  8 active torsions:
REMARK  status: ('A' for Active; 'I' for Inactive)
REMARK    1  A    between atoms: NH1_11  and  C1_1 
REMARK    2  A    between atoms: NH1_11  and  C2_2 
REMARK    3  A    between atoms: CA_4  and  N_3 
REMARK    4  A    between atoms: CB_5  and  CA_4 
REMARK    5  A    between atoms: CA_4  and  C_12 
REMARK    6  A    between atoms: CG_6  and  CB_5 
REMARK    7  A    between atoms: CD_7  and  CG_6 
REMARK    8  A    between atoms: NE_8  and  CD_7 
REMARK       I    between atoms: CZ_9  and  NE_8 
REMARK       I    between atoms: CZ_9  and  NH2_10 
ROOT
ATOM      1  CD  DA2 d   1      13.978  -3.864   1.732  0.00  0.00     0.009 C 
ATOM      2  H   DA2 d   1      14.564  -3.368   0.958  0.00  0.00     0.064 H 
ATOM      3  H   DA2 d   1      14.218  -3.457   2.714  0.00  0.00     0.064 H 
ENDROOT
BRANCH   1   4
ATOM      4  CG  DA2 d   1      14.301  -5.342   1.721  0.00  0.00    -0.047 C 
ATOM      5  H   DA2 d   1      15.365  -5.465   1.921  0.00  0.00     0.035 H 
ATOM      6  H   DA2 d   1      13.694  -5.835   2.480  0.00  0.00     0.035 H 
BRANCH   4   7
ATOM      7  CB  DA2 d   1      13.987  -5.969   0.368  0.00  0.00    -0.028 C 
ATOM      8  H   DA2 d   1      12.914  -5.863   0.210  0.00  0.00     0.036 H 
ATOM      9  H   DA2 d   1      14.607  -5.460  -0.370  0.00  0.00     0.036 H 
BRANCH   7  10
ATOM     10  CA  DA2 d   1      14.310  -7.470   0.267  0.00  0.00     0.182 C 
ATOM     11  H   DA2 d   1      15.393  -7.575   0.324  0.00  0.00     0.101 H 
BRANCH  10  12
ATOM     12  N   DA2 d   1      13.811  -8.009  -0.983  0.00  0.00    -0.065 N 
ATOM     13  H   DA2 d   1      14.238  -7.508  -1.762  0.00  0.00     0.275 HD
ATOM     14  H   DA2 d   1      14.048  -8.999  -1.044  0.00  0.00     0.275 HD
ATOM     15  H   DA2 d   1      12.798  -7.898  -1.020  0.00  0.00     0.275 HD
ENDBRANCH  10  12
BRANCH  10  16
ATOM     16  C   DA2 d   1      13.660  -8.232   1.385  0.00  0.00     0.204 C 
ATOM     17  OA1 DA2 d   1      14.362  -8.857   2.184  0.00  0.00    -0.646 OA
ATOM     18  OA2 DA2 d   1      12.430  -8.279   1.422  0.00  0.00    -0.646 OA
ENDBRANCH  10  16
ENDBRANCH   7  10
ENDBRANCH   4   7
ENDBRANCH   1   4
BRANCH   1  19
ATOM     19  NE  DA2 d   1      12.568  -3.649   1.465  0.00  0.00    -0.227 N 
ATOM     20  CZ  DA2 d   1      11.838  -2.625   1.847  0.00  0.00     0.668 C 
ATOM     21  NH2 DA2 d   1      12.335  -1.640   2.544  0.00  0.00    -0.235 N 
ATOM     22  NH1 DA2 d   1      10.586  -2.610   1.506  0.00  0.00    -0.227 N 
ATOM     23  H   DA2 d   1      13.320  -1.649   2.809  0.00  0.00     0.174 HD
ATOM     24  H   DA2 d   1      11.739  -0.861   2.823  0.00  0.00     0.174 HD
ATOM     25  H   DA2 d   1      12.092  -4.370   0.923  0.00  0.00     0.177 HD
BRANCH  22  26
ATOM     26  C1  DA2 d   1       9.729  -1.521   1.890  0.00  0.00    -0.003 C 
ATOM     27  H   DA2 d   1       9.698  -1.451   2.977  0.00  0.00     0.057 H 
ATOM     28  H   DA2 d   1      10.118  -0.591   1.475  0.00  0.00     0.057 H 
ATOM     29  H   DA2 d   1       8.724  -1.699   1.508  0.00  0.00     0.057 H 
ENDBRANCH  22  26
BRANCH  22  30
ATOM     30  C2  DA2 d   1      10.035  -3.692   0.717  0.00  0.00    -0.003 C 
ATOM     31  H   DA2 d   1      10.566  -3.754  -0.233  0.00  0.00     0.057 H 
ATOM     32  H   DA2 d   1      10.149  -4.630   1.260  0.00  0.00     0.057 H 
ATOM     33  H   DA2 d   1       8.977  -3.503   0.532  0.00  0.00     0.057 H 
ENDBRANCH  22  30
ENDBRANCH   1  19
TORSDOF 8
