REMARK  8 active torsions:
REMARK  status: ('A' for Active; 'I' for Inactive)
REMARK    1  A    between atoms: NH1_11  and  C1_1 
REMARK    2  A    between atoms: NH1_11  and  C2_2 
REMARK    3  A    between atoms: CA_4  and  N_3 
REMARK    4  A    between atoms: CB_5  and  CA_4 
REMARK    5  A    between atoms: CA_4  and  C_12 
REMARK    6  A    between atoms: CG_6  and  CB_5 
REMARK    7  A    between atoms: CD_7  and  CG_6 
REMARK    8  A    between atoms: NE_8  and  CD_7 
REMARK       I    between atoms: CZ_9  and  NE_8 
REMARK       I    between atoms: CZ_9  and  NH2_10 
ROOT
ATOM      1  CD  DA2 d   1     -14.099  -4.255  -0.084  0.00  0.00     0.009 C 
ATOM      2  H   DA2 d   1     -14.739  -3.480   0.337  0.00  0.00     0.064 H 
ATOM      3  H   DA2 d   1     -14.222  -4.309  -1.166  0.00  0.00     0.064 H 
ENDROOT
BRANCH   1   4
ATOM      4  CG  DA2 d   1     -14.482  -5.588   0.520  0.00  0.00    -0.047 C 
ATOM      5  H   DA2 d   1     -15.456  -5.874   0.122  0.00  0.00     0.035 H 
ATOM      6  H   DA2 d   1     -13.707  -6.311   0.267  0.00  0.00     0.035 H 
BRANCH   4   7
ATOM      7  CB  DA2 d   1     -14.590  -5.520   2.031  0.00  0.00    -0.028 C 
ATOM      8  H   DA2 d   1     -14.647  -6.543   2.404  0.00  0.00     0.036 H 
ATOM      9  H   DA2 d   1     -13.721  -4.976   2.400  0.00  0.00     0.036 H 
BRANCH   7  10
ATOM     10  CA  DA2 d   1     -15.838  -4.781   2.513  0.00  0.00     0.182 C 
ATOM     11  H   DA2 d   1     -15.798  -3.763   2.125  0.00  0.00     0.101 H 
BRANCH  10  12
ATOM     12  N   DA2 d   1     -15.892  -4.761   3.960  0.00  0.00    -0.065 N 
ATOM     13  H   DA2 d   1     -15.070  -4.278   4.323  0.00  0.00     0.275 HD
ATOM     14  H   DA2 d   1     -16.735  -4.272   4.261  0.00  0.00     0.275 HD
ATOM     15  H   DA2 d   1     -15.909  -5.718   4.312  0.00  0.00     0.275 HD
ENDBRANCH  10  12
BRANCH  10  16
ATOM     16  C   DA2 d   1     -17.059  -5.496   2.031  0.00  0.00     0.204 C 
ATOM     17  OA1 DA2 d   1     -17.860  -4.905   1.291  0.00  0.00    -0.646 OA
ATOM     18  OA2 DA2 d   1     -17.247  -6.642   2.426  0.00  0.00    -0.646 OA
ENDBRANCH  10  16
ENDBRANCH   7  10
ENDBRANCH   4   7
ENDBRANCH   1   4
BRANCH   1  19
ATOM     19  NE  DA2 d   1     -12.712  -3.936   0.217  0.00  0.00    -0.227 N 
ATOM     20  CZ  DA2 d   1     -11.945  -3.095  -0.450  0.00  0.00     0.668 C 
ATOM     21  NH2 DA2 d   1     -12.392  -2.441  -1.488  0.00  0.00    -0.235 N 
ATOM     22  NH1 DA2 d   1     -10.725  -2.917  -0.063  0.00  0.00    -0.227 N 
ATOM     23  H   DA2 d   1     -13.354  -2.575  -1.800  0.00  0.00     0.174 HD
ATOM     24  H   DA2 d   1     -11.779  -1.796  -1.987  0.00  0.00     0.174 HD
ATOM     25  H   DA2 d   1     -12.293  -4.407   1.019  0.00  0.00     0.177 HD
BRANCH  22  26
ATOM     26  C1  DA2 d   1      -9.861  -2.002  -0.775  0.00  0.00    -0.003 C 
ATOM     27  H   DA2 d   1      -9.762  -2.329  -1.810  0.00  0.00     0.057 H 
ATOM     28  H   DA2 d   1     -10.293  -1.001  -0.748  0.00  0.00     0.057 H 
ATOM     29  H   DA2 d   1      -8.879  -1.988  -0.301  0.00  0.00     0.057 H 
ENDBRANCH  22  26
BRANCH  22  30
ATOM     30  C2  DA2 d   1     -10.198  -3.653   1.079  0.00  0.00    -0.003 C 
ATOM     31  H   DA2 d   1     -10.788  -3.418   1.965  0.00  0.00     0.057 H 
ATOM     32  H   DA2 d   1     -10.253  -4.723   0.877  0.00  0.00     0.057 H 
ATOM     33  H   DA2 d   1      -9.160  -3.366   1.246  0.00  0.00     0.057 H 
ENDBRANCH  22  30
ENDBRANCH   1  19
TORSDOF 8
