REMARK  9 active torsions:
REMARK  status: ('A' for Active; 'I' for Inactive)
REMARK    1  A    between atoms: C2_2  and  N7_7 
REMARK    2  A    between atoms: C4_4  and  C8_8 
REMARK    3  A    between atoms: N7_7  and  C16_16 
REMARK    4  A    between atoms: N9_9  and  C27_27 
REMARK    5  A    between atoms: C11_11  and  C13_13 
REMARK       I    between atoms: C13_13  and  N14_14 
REMARK    6  A    between atoms: C17_17  and  O22_22 
REMARK    7  A    between atoms: C20_20  and  N28_28 
REMARK    8  A    between atoms: O22_22  and  C23_23 
REMARK    9  A    between atoms: N31_31  and  C34_34 
ROOT
ATOM      1  C16 939 d   1      12.048  46.021   7.618  0.00  0.00     0.085 A 
ATOM      2  C17 939 d   1      13.242  46.410   7.148  0.00  0.00     0.105 A 
ATOM      3  C18 939 d   1      13.589  47.883   7.124  0.00  0.00    -0.046 A 
ATOM      4  C19 939 d   1      12.711  48.803   7.567  0.00  0.00    -0.055 A 
ATOM      5  C20 939 d   1      11.381  48.394   8.092  0.00  0.00     0.032 A 
ATOM      6  C21 939 d   1      11.065  47.050   8.114  0.00  0.00    -0.028 A 
ATOM      7  H8  939 d   1      14.554  48.201   6.746  0.00  0.00     0.087 H 
ATOM      8  H9  939 d   1      12.977  49.854   7.541  0.00  0.00     0.087 H 
ATOM      9  H10 939 d   1      10.100  46.732   8.492  0.00  0.00     0.090 H 
ENDROOT
BRANCH   1  10
ATOM     10  N7  939 d   1      11.796  44.608   7.596  0.00  0.00    -0.185 N 
ATOM     11  H3  939 d   1      12.192  44.083   6.803  0.00  0.00     0.184 HD
BRANCH  10  12
ATOM     12  C2  939 d   1      11.068  43.863   8.538  0.00  0.00     0.727 A 
ATOM     13  N1  939 d   1      10.851  42.606   8.299  0.00  0.00    -0.075 NA
ATOM     14  C6  939 d   1      10.118  41.819   9.209  0.00  0.00     0.023 A 
ATOM     15  C5  939 d   1       9.638  42.382  10.330  0.00  0.00    -0.035 A 
ATOM     16  H2  939 d   1       9.943  40.769   9.006  0.00  0.00     0.115 H 
ATOM     17  C4  939 d   1       9.897  43.809  10.583  0.00  0.00     0.104 A 
ATOM     18  H1  939 d   1       9.067  41.793  11.039  0.00  0.00     0.089 H 
ATOM     19  N3  939 d   1      10.573  44.470   9.717  0.00  0.00    -0.061 NA
BRANCH  17  20
ATOM     20  C8  939 d   1       9.373  44.499  11.795  0.00  0.00     0.064 A 
ATOM     21  N9  939 d   1       9.775  45.771  12.300  0.00  0.00    -0.358 N 
ATOM     22  C10 939 d   1       9.027  46.070  13.431  0.00  0.00    -0.005 A 
ATOM     23  C11 939 d   1       8.204  45.039  13.612  0.00  0.00     0.049 A 
ATOM     24  H4  939 d   1       9.099  46.966  14.046  0.00  0.00     0.113 H 
ATOM     25  C12 939 d   1       8.411  44.023  12.579  0.00  0.00    -0.038 A 
ATOM     26  H5  939 d   1       7.886  43.075  12.475  0.00  0.00     0.088 H 
BRANCH  21  27
ATOM     27  C27 939 d   1      10.781  46.649  11.757  0.00  0.00    -0.014 C 
ATOM     28  H11 939 d   1      11.228  46.187  10.864  0.00  0.00     0.057 H 
ATOM     29  H12 939 d   1      11.563  46.822  12.511  0.00  0.00     0.057 H 
ATOM     30  H13 939 d   1      10.320  47.609  11.481  0.00  0.00     0.057 H 
ENDBRANCH  21  27
BRANCH  23  31
ATOM     31  C13 939 d   1       7.216  44.943  14.692  0.00  0.00     0.250 C 
ATOM     32  N14 939 d   1       6.643  46.091  15.199  0.00  0.00    -0.366 N 
ATOM     33  H6  939 d   1       5.969  46.030  15.935  0.00  0.00     0.159 HD
ATOM     34  H7  939 d   1       6.902  46.984  14.830  0.00  0.00     0.159 HD
ATOM     35  O15 939 d   1       6.863  43.847  15.131  0.00  0.00    -0.268 OA
ENDBRANCH  23  31
ENDBRANCH  17  20
ENDBRANCH  10  12
ENDBRANCH   1  10
BRANCH   2  36
ATOM     36  O22 939 d   1      14.115  45.356   6.681  0.00  0.00    -0.253 OA
BRANCH  36  37
ATOM     37  C23 939 d   1      14.776  45.558   5.394  0.00  0.00     0.530 C 
ATOM     38  F24 939 d   1      15.788  46.467   5.519  0.00  0.00    -0.144 F 
ATOM     39  F25 939 d   1      13.889  45.995   4.419  0.00  0.00    -0.144 F 
ATOM     40  F26 939 d   1      15.310  44.368   4.980  0.00  0.00    -0.144 F 
ENDBRANCH  36  37
ENDBRANCH   2  36
BRANCH   5  41
ATOM     41  N28 939 d   1      10.460  49.415   8.548  0.00  0.00    -0.378 N 
ATOM     42  C29 939 d   1       9.008  49.241   8.305  0.00  0.00     0.018 C 
ATOM     43  C30 939 d   1       8.116  50.089   9.243  0.00  0.00     0.098 C 
ATOM     44  H14 939 d   1       8.756  48.180   8.451  0.00  0.00     0.066 H 
ATOM     45  H15 939 d   1       8.792  49.530   7.266  0.00  0.00     0.066 H 
ATOM     46  N31 939 d   1       8.648  51.483   9.413  0.00  0.00    -0.072 N 
ATOM     47  H16 939 d   1       8.073  49.602  10.229  0.00  0.00     0.078 H 
ATOM     48  H17 939 d   1       7.104  50.144   8.817  0.00  0.00     0.078 H 
ATOM     49  C32 939 d   1       9.973  51.414  10.052  0.00  0.00     0.098 C 
ATOM     50  H18 939 d   1       8.722  51.932   8.514  0.00  0.00     0.279 HD
ATOM     51  C33 939 d   1      11.001  50.637   9.178  0.00  0.00     0.018 C 
ATOM     52  H19 939 d   1       9.874  50.904  11.022  0.00  0.00     0.078 H 
ATOM     53  H20 939 d   1      10.344  52.437  10.212  0.00  0.00     0.078 H 
ATOM     54  H21 939 d   1      11.354  51.309   8.381  0.00  0.00     0.066 H 
ATOM     55  H22 939 d   1      11.849  50.349   9.817  0.00  0.00     0.066 H 
BRANCH  46  56
ATOM     56  C34 939 d   1       7.746  52.258  10.288  0.00  0.00     0.066 C 
ATOM     57  H23 939 d   1       6.750  52.320   9.825  0.00  0.00     0.068 H 
ATOM     58  H24 939 d   1       8.150  53.272  10.425  0.00  0.00     0.068 H 
ATOM     59  H25 939 d   1       7.666  51.760  11.265  0.00  0.00     0.068 H 
ENDBRANCH  46  56
ENDBRANCH   5  41
TORSDOF 9
