REMARK  8 active torsions:
REMARK  status: ('A' for Active; 'I' for Inactive)
REMARK    1  A    between atoms: C2_2  and  N7_5 
REMARK    2  A    between atoms: N7_5  and  C8_9 
REMARK    3  A    between atoms: C4_6  and  C26_8 
REMARK    4  A    between atoms: C9_11  and  O14_15 
REMARK    5  A    between atoms: C12_14  and  N15_16 
REMARK    6  A    between atoms: O14_15  and  C22_23 
REMARK    7  A    between atoms: N18_19  and  C21_22 
REMARK    8  A    between atoms: N27_27  and  C36_36 
ROOT
ATOM      1  C8  664 d   1      11.862  46.171   7.388  0.00  0.00     0.085 A 
ATOM      2  C10 664 d   1      13.455  48.054   7.052  0.00  0.00    -0.046 A 
ATOM      3  C9  664 d   1      13.103  46.587   6.984  0.00  0.00     0.105 A 
ATOM      4  C11 664 d   1      12.555  48.947   7.503  0.00  0.00    -0.055 A 
ATOM      5  C13 664 d   1      10.881  47.172   7.884  0.00  0.00    -0.028 A 
ATOM      6  C12 664 d   1      11.198  48.497   7.941  0.00  0.00     0.032 A 
ATOM      7  H   664 d   1      14.442  48.391   6.735  0.00  0.00     0.087 H 
ATOM      8  H   664 d   1      12.817  50.004   7.549  0.00  0.00     0.087 H 
ATOM      9  H   664 d   1       9.894  46.842   8.207  0.00  0.00     0.090 H 
ENDROOT
BRANCH   1  10
ATOM     10  N7  664 d   1      11.538  44.773   7.318  0.00  0.00    -0.185 N 
ATOM     11  H   664 d   1      11.804  44.275   6.468  0.00  0.00     0.184 HD
BRANCH  10  12
ATOM     12  C2  664 d   1      10.877  44.022   8.333  0.00  0.00     0.727 A 
ATOM     13  N1  664 d   1      10.677  42.640   8.117  0.00  0.00    -0.075 NA
ATOM     14  C6  664 d   1      10.082  41.921   9.004  0.00  0.00     0.023 A 
ATOM     15  C5  664 d   1       9.600  42.541  10.255  0.00  0.00    -0.035 A 
ATOM     16  H   664 d   1       9.934  40.855   8.832  0.00  0.00     0.115 H 
ATOM     17  C4  664 d   1       9.800  43.863  10.447  0.00  0.00     0.104 A 
ATOM     18  H   664 d   1       9.091  41.942  11.010  0.00  0.00     0.089 H 
ATOM     19  N3  664 d   1      10.463  44.585   9.426  0.00  0.00    -0.061 NA
BRANCH  17  20
ATOM     20  C26 664 d   1       9.326  44.563  11.697  0.00  0.00     0.065 A 
ATOM     21  N27 664 d   1       9.752  45.859  12.177  0.00  0.00    -0.352 N 
ATOM     22  C30 664 d   1       9.050  46.127  13.350  0.00  0.00     0.029 A 
ATOM     23  C29 664 d   1       8.246  45.096  13.604  0.00  0.00     0.057 A 
ATOM     24  C31 664 d   1       9.145  47.368  14.219  0.00  0.00    -0.011 C 
ATOM     25  C28 664 d   1       8.402  44.070  12.558  0.00  0.00    -0.037 A 
ATOM     26  C34 664 d   1       7.358  45.078  14.774  0.00  0.00     0.253 C 
ATOM     27  H   664 d   1       7.883  43.114  12.491  0.00  0.00     0.088 H 
ATOM     28  N33 664 d   1       7.453  46.073  15.686  0.00  0.00    -0.356 N 
ATOM     29  O35 664 d   1       6.532  44.189  14.929  0.00  0.00    -0.268 OA
ATOM     30  C32 664 d   1       8.032  47.396  15.342  0.00  0.00     0.000 C 
ATOM     31  H   664 d   1       7.118  45.910  16.635  0.00  0.00     0.162 HD
ATOM     32  H   664 d   1       7.215  48.007  14.959  0.00  0.00     0.064 H 
ATOM     33  H   664 d   1       8.507  47.776  16.246  0.00  0.00     0.064 H 
ATOM     34  H   664 d   1       9.006  48.241  13.581  0.00  0.00     0.044 H 
ATOM     35  H   664 d   1      10.120  47.367  14.707  0.00  0.00     0.044 H 
BRANCH  21  36
ATOM     36  C36 664 d   1      10.723  46.759  11.576  0.00  0.00    -0.014 C 
ATOM     37  H   664 d   1      11.690  46.260  11.514  0.00  0.00     0.057 H 
ATOM     38  H   664 d   1      10.390  47.035  10.575  0.00  0.00     0.057 H 
ATOM     39  H   664 d   1      10.814  47.655  12.190  0.00  0.00     0.057 H 
ENDBRANCH  21  36
ENDBRANCH  17  20
ENDBRANCH  10  12
ENDBRANCH   1  10
BRANCH   3  40
ATOM     40  O14 664 d   1      14.021  45.594   6.501  0.00  0.00    -0.253 OA
BRANCH  40  41
ATOM     41  C22 664 d   1      14.390  45.657   5.082  0.00  0.00     0.530 C 
ATOM     42  F23 664 d   1      15.311  46.673   4.856  0.00  0.00    -0.144 F 
ATOM     43  F24 664 d   1      13.259  45.858   4.288  0.00  0.00    -0.144 F 
ATOM     44  F25 664 d   1      14.971  44.451   4.726  0.00  0.00    -0.144 F 
ENDBRANCH  40  41
ENDBRANCH   3  40
BRANCH   6  45
ATOM     45  N15 664 d   1      10.250  49.452   8.405  0.00  0.00    -0.377 N 
ATOM     46  C16 664 d   1       8.795  49.177   8.220  0.00  0.00     0.020 C 
ATOM     47  C17 664 d   1       7.909  49.967   9.200  0.00  0.00     0.127 C 
ATOM     48  H   664 d   1       8.630  48.115   8.403  0.00  0.00     0.066 H 
ATOM     49  H   664 d   1       8.524  49.479   7.208  0.00  0.00     0.066 H 
ATOM     50  N18 664 d   1       8.409  51.352   9.302  0.00  0.00     0.087 N 
ATOM     51  H   664 d   1       7.940  49.495  10.182  0.00  0.00     0.082 H 
ATOM     52  H   664 d   1       6.881  49.976   8.837  0.00  0.00     0.082 H 
ATOM     53  C19 664 d   1       9.714  51.324   9.962  0.00  0.00     0.127 C 
ATOM     54  C20 664 d   1      10.747  50.696   9.026  0.00  0.00     0.020 C 
ATOM     55  H   664 d   1       9.646  50.733  10.876  0.00  0.00     0.082 H 
ATOM     56  H   664 d   1      10.018  52.342  10.208  0.00  0.00     0.082 H 
ATOM     57  H   664 d   1      10.964  51.410   8.231  0.00  0.00     0.066 H 
ATOM     58  H   664 d   1      11.633  50.453   9.612  0.00  0.00     0.066 H 
BRANCH  50  59
ATOM     59  C21 664 d   1       7.490  52.148  10.111  0.00  0.00     0.095 C 
ATOM     60  H   664 d   1       6.506  52.152   9.643  0.00  0.00     0.071 H 
ATOM     61  H   664 d   1       7.418  51.715  11.108  0.00  0.00     0.071 H 
ATOM     62  H   664 d   1       7.863  53.169  10.184  0.00  0.00     0.071 H 
ENDBRANCH  50  59
ENDBRANCH   6  45
TORSDOF 8
