REMARK  13 active torsions:
REMARK  status: ('A' for Active; 'I' for Inactive)
REMARK    1  A    between atoms: C01_1  and  C02_2 
REMARK    2  A    between atoms: C02_2  and  O03_3 
REMARK    3  A    between atoms: C02_2  and  C29_29 
REMARK    4  A    between atoms: O03_3  and  C04_4 
REMARK    5  A    between atoms: C06_6  and  C07_7 
REMARK    6  A    between atoms: C09_9  and  C10_10 
REMARK    7  A    between atoms: C12_12  and  C13_13 
REMARK    8  A    between atoms: C13_13  and  N14_14 
REMARK    9  A    between atoms: N14_14  and  C15_15 
REMARK   10  A    between atoms: N14_14  and  C16_16 
REMARK   11  A    between atoms: C21_21  and  N22_22 
REMARK   12  A    between atoms: C25_25  and  C26_26 
REMARK       I    between atoms: C26_26  and  N27_27 
REMARK   13  A    between atoms: C34_34  and  C35_35 
ROOT
ATOM      1  C04 JUP d   1       3.598  -9.170  14.216  0.00  0.00     0.086 A 
ATOM      2  C05 JUP d   1       2.898  -8.890  13.013  0.00  0.00    -0.039 A 
ATOM      3  C06 JUP d   1       3.550  -8.144  11.982  0.00  0.00    -0.019 A 
ATOM      4  C23 JUP d   1       4.864  -7.681  12.169  0.00  0.00    -0.071 A 
ATOM      5  C24 JUP d   1       5.542  -7.943  13.375  0.00  0.00    -0.064 A 
ATOM      6  C25 JUP d   1       4.914  -8.691  14.389  0.00  0.00     0.065 A 
ATOM      7  H5  JUP d   1       1.880  -9.238  12.878  0.00  0.00     0.089 H 
ATOM      8  H21 JUP d   1       5.357  -7.121  11.383  0.00  0.00     0.084 H 
ATOM      9  H22 JUP d   1       6.548  -7.568  13.523  0.00  0.00     0.085 H 
ENDROOT
BRANCH   3  10
ATOM     10  C07 JUP d   1       2.864  -7.873  10.777  0.00  0.00     0.021 A 
ATOM     11  C08 JUP d   1       2.265  -8.938  10.087  0.00  0.00    -0.056 A 
ATOM     12  C09 JUP d   1       1.569  -8.645   8.894  0.00  0.00    -0.001 A 
ATOM     13  H6  JUP d   1       2.334  -9.954  10.458  0.00  0.00     0.086 H 
ATOM     14  C19 JUP d   1       1.510  -7.286   8.446  0.00  0.00     0.016 A 
ATOM     15  N20 JUP d   1       2.090  -6.292   9.131  0.00  0.00    -0.242 NA
ATOM     16  H18 JUP d   1       0.982  -7.056   7.528  0.00  0.00     0.116 H 
ATOM     17  C21 JUP d   1       2.765  -6.540  10.286  0.00  0.00     0.132 A 
BRANCH  12  18
ATOM     18  C10 JUP d   1       0.968  -9.648   8.150  0.00  0.00     0.017 A 
ATOM     19  C11 JUP d   1       0.432  -9.610   6.868  0.00  0.00    -0.057 A 
ATOM     20  C12 JUP d   1      -0.101 -10.766   6.391  0.00  0.00    -0.025 A 
ATOM     21  H7  JUP d   1       0.439  -8.697   6.274  0.00  0.00     0.086 H 
ATOM     22  C17 JUP d   1      -0.060 -11.890   7.233  0.00  0.00    -0.036 A 
ATOM     23  S18 JUP d   1       0.749 -11.270   8.611  0.00  0.00    -0.101 SA
ATOM     24  H17 JUP d   1      -0.443 -12.894   7.056  0.00  0.00     0.095 H 
BRANCH  20  25
ATOM     25  C13 JUP d   1      -0.706 -10.909   4.966  0.00  0.00     0.107 C 
ATOM     26  H8  JUP d   1      -0.653 -11.970   4.679  0.00  0.00     0.083 H 
ATOM     27  H9  JUP d   1      -0.094 -10.311   4.275  0.00  0.00     0.083 H 
BRANCH  25  28
ATOM     28  N14 JUP d   1      -2.126 -10.463   4.830  0.00  0.00    -0.075 N 
ATOM     29  H10 JUP d   1      -2.480 -10.127   5.712  0.00  0.00     0.279 HD
BRANCH  28  30
ATOM     30  C15 JUP d   1      -2.177  -9.420   3.833  0.00  0.00     0.066 C 
ATOM     31  H11 JUP d   1      -3.215  -9.075   3.716  0.00  0.00     0.068 H 
ATOM     32  H12 JUP d   1      -1.810  -9.812   2.873  0.00  0.00     0.068 H 
ATOM     33  H13 JUP d   1      -1.545  -8.578   4.151  0.00  0.00     0.068 H 
ENDBRANCH  28  30
BRANCH  28  34
ATOM     34  C16 JUP d   1      -2.919 -11.610   4.357  0.00  0.00     0.066 C 
ATOM     35  H14 JUP d   1      -2.888 -12.412   5.109  0.00  0.00     0.068 H 
ATOM     36  H15 JUP d   1      -2.500 -11.979   3.409  0.00  0.00     0.068 H 
ATOM     37  H16 JUP d   1      -3.961 -11.295   4.200  0.00  0.00     0.068 H 
ENDBRANCH  28  34
ENDBRANCH  25  28
ENDBRANCH  20  25
ENDBRANCH  12  18
BRANCH  17  38
ATOM     38  N22 JUP d   1       3.389  -5.435  10.996  0.00  0.00    -0.383 N 
ATOM     39  H19 JUP d   1       3.309  -4.476  10.629  0.00  0.00     0.157 HD
ATOM     40  H20 JUP d   1       3.911  -5.611  11.866  0.00  0.00     0.157 HD
ENDBRANCH  17  38
ENDBRANCH   3  10
BRANCH   1  41
ATOM     41  O03 JUP d   1       2.976  -9.942  15.264  0.00  0.00    -0.341 OA
BRANCH  41  42
ATOM     42  C02 JUP d   1       1.889 -10.792  14.979  0.00  0.00     0.068 C 
ATOM     43  H4  JUP d   1       1.147 -10.143  14.492  0.00  0.00     0.091 H 
BRANCH  42  44
ATOM     44  C01 JUP d   1       1.224 -11.285  16.251  0.00  0.00    -0.048 C 
ATOM     45  H1  JUP d   1       0.382 -11.944  15.993  0.00  0.00     0.031 H 
ATOM     46  H2  JUP d   1       0.853 -10.425  16.828  0.00  0.00     0.031 H 
ATOM     47  H3  JUP d   1       1.955 -11.843  16.854  0.00  0.00     0.031 H 
ENDBRANCH  42  44
BRANCH  42  48
ATOM     48  C29 JUP d   1       2.138 -11.904  13.975  0.00  0.00    -0.014 A 
ATOM     49  C30 JUP d   1       3.350 -12.622  14.018  0.00  0.00    -0.074 A 
ATOM     50  C31 JUP d   1       3.615 -13.656  13.094  0.00  0.00    -0.082 A 
ATOM     51  H25 JUP d   1       4.090 -12.377  14.772  0.00  0.00     0.084 H 
ATOM     52  C32 JUP d   1       2.638 -13.978  12.133  0.00  0.00    -0.082 A 
ATOM     53  H26 JUP d   1       4.556 -14.194  13.124  0.00  0.00     0.083 H 
ATOM     54  C33 JUP d   1       1.385 -13.265  12.110  0.00  0.00    -0.068 A 
ATOM     55  H27 JUP d   1       2.828 -14.763  11.410  0.00  0.00     0.083 H 
ATOM     56  C34 JUP d   1       1.137 -12.241  13.024  0.00  0.00     0.056 A 
ATOM     57  H28 JUP d   1       0.630 -13.527  11.377  0.00  0.00     0.084 H 
BRANCH  56  58
ATOM     58  C35 JUP d   1      -0.185 -11.483  12.927  0.00  0.00     0.418 C 
ATOM     59  F36 JUP d   1      -0.875 -11.433  14.088  0.00  0.00    -0.166 F 
ATOM     60  F37 JUP d   1       0.031 -10.192  12.551  0.00  0.00    -0.166 F 
ATOM     61  F38 JUP d   1      -0.908 -12.114  12.024  0.00  0.00    -0.166 F 
ENDBRANCH  56  58
ENDBRANCH  42  48
ENDBRANCH  41  42
ENDBRANCH   1  41
BRANCH   6  62
ATOM     62  C26 JUP d   1       5.636  -8.964  15.641  0.00  0.00     0.252 C 
ATOM     63  N27 JUP d   1       5.029  -9.818  16.644  0.00  0.00    -0.366 N 
ATOM     64  H23 JUP d   1       5.513 -10.008  17.498  0.00  0.00     0.159 HD
ATOM     65  H24 JUP d   1       4.126 -10.216  16.482  0.00  0.00     0.159 HD
ATOM     66  O28 JUP d   1       6.715  -8.476  15.810  0.00  0.00    -0.268 OA
ENDBRANCH   6  62
TORSDOF 13
