REMARK  4 active torsions:
REMARK  status: ('A' for Active; 'I' for Inactive)
REMARK    1  A    between atoms: CAS_2  and  CAR_5 
REMARK    2  A    between atoms: CAP_10  and  CAQ_11 
REMARK    3  A    between atoms: CAO_15  and  CAN_16 
REMARK       I    between atoms: CAN_16  and  NAL_18 
REMARK    4  A    between atoms: NAL_18  and  OAB_19 
ROOT
ATOM      1  CAR IKY d   1      11.739   0.170  -2.057  0.00  0.00     0.062 A 
ATOM      2  CAI IKY d   1      12.851   0.489  -2.853  0.00  0.00    -0.067 A 
ATOM      3  CAG IKY d   1      12.813   1.682  -3.561  0.00  0.00    -0.082 A 
ATOM      4  CAF IKY d   1      11.767   2.592  -3.463  0.00  0.00    -0.082 A 
ATOM      5  CAH IKY d   1      10.653   2.309  -2.697  0.00  0.00    -0.068 A 
ATOM      6  CAP IKY d   1      10.661   1.090  -1.969  0.00  0.00     0.032 A 
ATOM      7  H1  IKY d   1      13.708  -0.172  -2.912  0.00  0.00     0.084 H 
ATOM      8  H2  IKY d   1      13.639   1.915  -4.223  0.00  0.00     0.083 H 
ATOM      9  H3  IKY d   1      11.826   3.535  -3.994  0.00  0.00     0.083 H 
ATOM     10  H4  IKY d   1       9.809   2.988  -2.654  0.00  0.00     0.085 H 
ENDROOT
BRANCH   6  11
ATOM     11  CAQ IKY d   1       9.527   0.947  -1.037  0.00  0.00     0.181 A 
ATOM     12  NAK IKY d   1       9.508   0.562   0.195  0.00  0.00    -0.216 NA
ATOM     13  CAO IKY d   1       8.355   0.658   0.702  0.00  0.00     0.151 A 
ATOM     14  CAJ IKY d   1       7.506   1.212  -0.210  0.00  0.00     0.054 A 
ATOM     15  OAM IKY d   1       8.334   1.387  -1.378  0.00  0.00    -0.301 OA
ATOM     16  H5  IKY d   1       6.454   1.463  -0.086  0.00  0.00     0.127 H 
BRANCH  13  17
ATOM     17  CAN IKY d   1       7.979   0.306   2.101  0.00  0.00     0.295 C 
ATOM     18  OAA IKY d   1       6.795   0.111   2.409  0.00  0.00    -0.264 OA
ATOM     19  NAL IKY d   1       8.921   0.173   3.101  0.00  0.00    -0.232 N 
ATOM     20  H6  IKY d   1       9.894   0.291   2.904  0.00  0.00     0.197 HD
BRANCH  19  21
ATOM     21  OAB IKY d   1       8.509  -0.115   4.333  0.00  0.00    -0.287 OA
ATOM     22  H7  IKY d   1       7.927   0.570   4.639  0.00  0.00     0.244 HD
ENDBRANCH  19  21
ENDBRANCH  13  17
ENDBRANCH   6  11
BRANCH   1  23
ATOM     23  CAS IKY d   1      11.675  -1.151  -1.413  0.00  0.00     0.418 C 
ATOM     24  FAC IKY d   1      10.504  -1.696  -1.538  0.00  0.00    -0.166 F 
ATOM     25  FAD IKY d   1      12.482  -1.955  -2.027  0.00  0.00    -0.166 F 
ATOM     26  FAE IKY d   1      11.953  -1.132  -0.117  0.00  0.00    -0.166 F 
ENDBRANCH   1  23
TORSDOF 4
