REMARK  3 active torsions:
REMARK  status: ('A' for Active; 'I' for Inactive)
REMARK    1  A    between atoms: C4_5  and  C1_1 
REMARK    2  A    between atoms: N2_13  and  O1_2 
REMARK    3  A    between atoms: C3_4  and  C5_6 
REMARK       I    between atoms: C4_5  and  N2_13 
ROOT
ATOM      1  C1  5C1 d   1      -1.984  -0.447   8.134  0.00  0.00     0.241 A 
ATOM      2  C2  5C1 d   1      -3.856  -1.213   7.388  0.00  0.00     0.039 A 
ATOM      3  C3  5C1 d   1      -4.108  -0.799   8.651  0.00  0.00     0.107 A 
ATOM      4  N1  5C1 d   1      -2.646  -0.990   7.167  0.00  0.00    -0.229 NA
ATOM      5  O2  5C1 d   1      -2.826  -0.297   9.106  0.00  0.00    -0.285 OA
ATOM      6  H2  5C1 d   1      -4.571  -1.656   6.696  0.00  0.00     0.119 H 
ENDROOT
BRANCH   3   7
ATOM      7  C5  5C1 d   1      -5.371  -0.828   9.448  0.00  0.00     0.021 C 
ATOM      8  C6  5C1 d   1      -5.691   0.197  10.356  0.00  0.00     0.047 C 
ATOM      9  C7  5C1 d   1      -6.786   0.123  11.202  0.00  0.00    -0.061 C 
ATOM     10 Cl1  5C1 d   1      -4.740   1.606  10.463  0.00  0.00    -0.083 Cl
ATOM     11  C8  5C1 d   1      -7.470  -1.062  11.205  0.00  0.00    -0.081 C 
ATOM     12  H3  5C1 d   1      -7.084   0.957  11.827  0.00  0.00     0.086 H 
ATOM     13  C9  5C1 d   1      -7.190  -2.113  10.347  0.00  0.00    -0.082 C 
ATOM     14  H4  5C1 d   1      -8.276  -1.185  11.919  0.00  0.00     0.083 H 
ATOM     15  C10 5C1 d   1      -6.100  -2.013   9.526  0.00  0.00    -0.069 C 
ATOM     16  H5  5C1 d   1      -7.820  -2.995  10.326  0.00  0.00     0.083 H 
ATOM     17  H6  5C1 d   1      -5.800  -2.866   8.929  0.00  0.00     0.085 H 
ENDBRANCH   3   7
BRANCH   1  18
ATOM     18  C4  5C1 d   1      -0.547  -0.141   8.265  0.00  0.00     0.318 C 
ATOM     19  N2  5C1 d   1      -0.021   0.101   9.560  0.00  0.00    -0.230 N 
ATOM     20  H7  5C1 d   1      -0.618   0.119  10.362  0.00  0.00     0.197 HD
ATOM     21  O3  5C1 d   1       0.203  -0.214   7.292  0.00  0.00    -0.261 OA
BRANCH  19  22
ATOM     22  O1  5C1 d   1       1.269   0.300   9.677  0.00  0.00    -0.287 OA
ATOM     23  H1  5C1 d   1       1.484   0.448  10.590  0.00  0.00     0.244 HD
ENDBRANCH  19  22
ENDBRANCH   1  18
TORSDOF 3
