REMARK  7 active torsions:
REMARK  status: ('A' for Active; 'I' for Inactive)
REMARK    1  A    between atoms: C3_3  and  O2_18 
REMARK    2  A    between atoms: C6_6  and  C7_7 
REMARK    3  A    between atoms: C8_8  and  C9_9 
REMARK    4  A    between atoms: C9_9  and  O1_17 
REMARK    5  A    between atoms: O2_18  and  C16_19 
REMARK    6  A    between atoms: C19_22  and  C22_25 
REMARK       I    between atoms: C22_25  and  N2_27 
REMARK    7  A    between atoms: N2_27  and  C23_28 
ROOT
ATOM      1  C1  3W5 d   1      23.911  14.205  12.781  0.00  0.00    -0.062 A 
ATOM      2  C2  3W5 d   1      24.288  13.659  13.985  0.00  0.00    -0.049 A 
ATOM      3  C3  3W5 d   1      23.366  12.900  14.689  0.00  0.00     0.076 A 
ATOM      4  C4  3W5 d   1      22.084  12.688  14.245  0.00  0.00    -0.049 A 
ATOM      5  C5  3W5 d   1      21.700  13.236  13.035  0.00  0.00    -0.062 A 
ATOM      6  C6  3W5 d   1      22.633  13.979  12.335  0.00  0.00     0.018 A 
ATOM      7  H1  3W5 d   1      24.606  14.799  12.198  0.00  0.00     0.085 H 
ATOM      8  H2  3W5 d   1      25.286  13.819  14.376  0.00  0.00     0.087 H 
ATOM      9  H3  3W5 d   1      21.386  12.102  14.832  0.00  0.00     0.087 H 
ATOM     10  H4  3W5 d   1      20.699  13.088  12.647  0.00  0.00     0.085 H 
ENDROOT
BRANCH   3  11
ATOM     11  O2  3W5 d   1      23.646  12.308  15.878  0.00  0.00    -0.311 OA
BRANCH  11  12
ATOM     12  C16 3W5 d   1      24.255  12.987  16.900  0.00  0.00     0.076 A 
ATOM     13  C21 3W5 d   1      24.335  14.360  17.004  0.00  0.00    -0.049 A 
ATOM     14  C20 3W5 d   1      24.958  14.915  18.111  0.00  0.00    -0.065 A 
ATOM     15  H18 3W5 d   1      23.917  14.995  16.232  0.00  0.00     0.087 H 
ATOM     16  C19 3W5 d   1      25.485  14.100  19.083  0.00  0.00     0.032 A 
ATOM     17  H19 3W5 d   1      25.029  15.992  18.210  0.00  0.00     0.085 H 
ATOM     18  C18 3W5 d   1      25.422  12.739  18.979  0.00  0.00    -0.065 A 
ATOM     19  C17 3W5 d   1      24.789  12.178  17.880  0.00  0.00    -0.049 A 
ATOM     20  H20 3W5 d   1      25.860  12.108  19.744  0.00  0.00     0.085 H 
ATOM     21  H21 3W5 d   1      24.714  11.100  17.791  0.00  0.00     0.087 H 
BRANCH  16  22
ATOM     22  C22 3W5 d   1      26.200  14.653  20.240  0.00  0.00     0.252 C 
ATOM     23  O3  3W5 d   1      26.229  14.041  21.300  0.00  0.00    -0.268 OA
ATOM     24  N2  3W5 d   1      26.885  15.821  19.893  0.00  0.00    -0.351 N 
ATOM     25  H22 3W5 d   1      27.077  15.934  18.918  0.00  0.00     0.163 HD
BRANCH  24  26
ATOM     26  C23 3W5 d   1      27.357  16.895  20.752  0.00  0.00     0.025 C 
ATOM     27  C24 3W5 d   1      26.442  17.262  21.893  0.00  0.00    -0.044 C 
ATOM     28  C25 3W5 d   1      26.978  18.406  22.755  0.00  0.00    -0.051 C 
ATOM     29  H24 3W5 d   1      26.308  16.377  22.532  0.00  0.00     0.036 H 
ATOM     30  H25 3W5 d   1      25.470  17.564  21.477  0.00  0.00     0.036 H 
ATOM     31  C26 3W5 d   1      28.014  17.853  23.707  0.00  0.00     0.029 C 
ATOM     32  H26 3W5 d   1      26.153  18.856  23.327  0.00  0.00     0.034 H 
ATOM     33  H27 3W5 d   1      27.438  19.170  22.111  0.00  0.00     0.034 H 
ATOM     34  S1  3W5 d   1      29.326  17.590  22.572  0.00  0.00     0.146 S 
ATOM     35  H28 3W5 d   1      27.682  16.915  24.177  0.00  0.00     0.056 H 
ATOM     36  H29 3W5 d   1      28.285  18.579  24.488  0.00  0.00     0.056 H 
ATOM     37  O5  3W5 d   1      30.450  16.814  23.092  0.00  0.00    -0.228 OA
ATOM     38  O4  3W5 d   1      29.398  18.940  22.028  0.00  0.00    -0.228 OA
ATOM     39  C27 3W5 d   1      28.734  16.541  21.238  0.00  0.00     0.047 C 
ATOM     40  H30 3W5 d   1      29.433  16.628  20.393  0.00  0.00     0.059 H 
ATOM     41  H31 3W5 d   1      28.718  15.501  21.596  0.00  0.00     0.059 H 
ATOM     42  H23 3W5 d   1      27.444  17.794  20.124  0.00  0.00     0.073 H 
ENDBRANCH  24  26
ENDBRANCH  16  22
ENDBRANCH  11  12
ENDBRANCH   3  11
BRANCH   6  43
ATOM     43  C7  3W5 d   1      22.185  14.481  11.112  0.00  0.00    -0.064 C 
ATOM     44  C8  3W5 d   1      21.840  14.878  10.037  0.00  0.00    -0.061 C 
BRANCH  44  45
ATOM     45  C9  3W5 d   1      21.392  15.299   8.737  0.00  0.00     0.149 C 
ATOM     46  C10 3W5 d   1      19.885  15.089   8.754  0.00  0.00     0.122 C 
ATOM     47  N1  3W5 d   1      19.519  14.248   7.569  0.00  0.00    -0.067 N 
ATOM     48  H5  3W5 d   1      19.372  16.060   8.694  0.00  0.00     0.082 H 
ATOM     49  H6  3W5 d   1      19.590  14.575   9.681  0.00  0.00     0.082 H 
ATOM     50  C11 3W5 d   1      19.879  14.955   6.287  0.00  0.00     0.084 C 
ATOM     51  C15 3W5 d   1      20.088  12.856   7.696  0.00  0.00     0.084 C 
ATOM     52  H7  3W5 d   1      18.516  14.148   7.571  0.00  0.00     0.280 HD
ATOM     53  C12 3W5 d   1      21.400  15.078   6.276  0.00  0.00    -0.035 C 
ATOM     54  H8  3W5 d   1      19.416  15.953   6.260  0.00  0.00     0.076 H 
ATOM     55  H9  3W5 d   1      19.538  14.369   5.421  0.00  0.00     0.076 H 
ATOM     56  C13 3W5 d   1      22.022  14.512   7.566  0.00  0.00    -0.009 C 
ATOM     57  H10 3W5 d   1      21.672  16.140   6.184  0.00  0.00     0.036 H 
ATOM     58  H11 3W5 d   1      21.797  14.522   5.414  0.00  0.00     0.036 H 
ATOM     59  C14 3W5 d   1      21.632  13.012   7.658  0.00  0.00    -0.035 C 
ATOM     60  H12 3W5 d   1      23.116  14.626   7.564  0.00  0.00     0.046 H 
ATOM     61  H13 3W5 d   1      22.062  12.581   8.574  0.00  0.00     0.036 H 
ATOM     62  H14 3W5 d   1      22.029  12.480   6.781  0.00  0.00     0.036 H 
ATOM     63  H15 3W5 d   1      19.748  12.228   6.860  0.00  0.00     0.076 H 
ATOM     64  H16 3W5 d   1      19.774  12.402   8.647  0.00  0.00     0.076 H 
BRANCH  45  65
ATOM     65  O1  3W5 d   1      21.795  16.664   8.678  0.00  0.00    -0.375 OA
ATOM     66  H17 3W5 d   1      22.744  16.713   8.671  0.00  0.00     0.211 HD
ENDBRANCH  45  65
ENDBRANCH  44  45
ENDBRANCH   6  43
TORSDOF 7
