REMARK  6 active torsions:
REMARK  status: ('A' for Active; 'I' for Inactive)
REMARK    1  A    between atoms: CBB_2  and  OAT_5 
REMARK    2  A    between atoms: OAT_5  and  CAU_6 
REMARK    3  A    between atoms: CAW_11  and  NBA_12 
REMARK    4  A    between atoms: CAV_20  and  NAS_21 
REMARK    5  A    between atoms: NAS_21  and  CAN_22 
REMARK    6  A    between atoms: CAN_22  and  CAZ_23 
ROOT
ATOM      1  NBA E46 d   1     -40.872  -2.888  -1.437  0.00  0.00    -0.218 N 
ATOM      2  NAP E46 d   1     -40.218  -3.401  -2.550  0.00  0.00     0.012 NA
ATOM      3  NAO E46 d   1     -38.942  -3.692  -2.031  0.00  0.00    -0.156 NA
ATOM      4  CAX E46 d   1     -38.910  -3.366  -0.715  0.00  0.00     0.122 A 
ATOM      5  CAH E46 d   1     -37.896  -3.463   0.213  0.00  0.00    -0.046 A 
ATOM      6  CAG E46 d   1     -38.123  -3.050   1.512  0.00  0.00    -0.036 A 
ATOM      7  CAY E46 d   1     -40.140  -2.849  -0.324  0.00  0.00     0.180 A 
ATOM      8  NAQ E46 d   1     -40.349  -2.447   0.957  0.00  0.00    -0.210 NA
ATOM      9  CAV E46 d   1     -39.354  -2.540   1.883  0.00  0.00     0.126 A 
ATOM     10  H   E46 d   1     -36.923  -3.862  -0.075  0.00  0.00     0.087 H 
ATOM     11  H   E46 d   1     -37.325  -3.127   2.251  0.00  0.00     0.089 H 
ENDROOT
BRANCH   9  12
ATOM     12  NAS E46 d   1     -39.488  -2.143   3.176  0.00  0.00    -0.374 N 
ATOM     13  H   E46 d   1     -38.665  -2.185   3.777  0.00  0.00     0.161 HD
BRANCH  12  14
ATOM     14  CAN E46 d   1     -40.728  -1.664   3.753  0.00  0.00    -0.003 C 
ATOM     15  H   E46 d   1     -41.246  -1.033   3.031  0.00  0.00     0.064 H 
ATOM     16  H   E46 d   1     -40.512  -1.083   4.650  0.00  0.00     0.064 H 
BRANCH  14  17
ATOM     17  CAZ E46 d   1     -41.608  -2.853   4.115  0.00  0.00    -0.036 C 
ATOM     18  CAL E46 d   1     -42.528  -2.454   5.274  0.00  0.00    -0.038 C 
ATOM     19  CAJ E46 d   1     -43.373  -3.644   5.723  0.00  0.00     0.082 C 
ATOM     20  H   E46 d   1     -43.191  -1.656   4.940  0.00  0.00     0.036 H 
ATOM     21  H   E46 d   1     -41.916  -2.119   6.112  0.00  0.00     0.036 H 
ATOM     22  NAR E46 d   1     -42.996  -4.847   4.988  0.00  0.00    -0.075 N 
ATOM     23  H   E46 d   1     -44.423  -3.425   5.529  0.00  0.00     0.075 H 
ATOM     24  H   E46 d   1     -43.208  -3.813   6.787  0.00  0.00     0.075 H 
ATOM     25  CAK E46 d   1     -41.599  -5.241   4.927  0.00  0.00     0.082 C 
ATOM     26  H   E46 d   1     -43.458  -5.609   5.485  0.00  0.00     0.277 HD
ATOM     27  H   E46 d   1     -43.251  -4.649   4.020  0.00  0.00     0.277 HD
ATOM     28  CAM E46 d   1     -40.737  -4.056   4.492  0.00  0.00    -0.038 C 
ATOM     29  H   E46 d   1     -41.278  -5.573   5.914  0.00  0.00     0.075 H 
ATOM     30  H   E46 d   1     -41.487  -6.049   4.204  0.00  0.00     0.075 H 
ATOM     31  H   E46 d   1     -40.088  -3.772   5.321  0.00  0.00     0.036 H 
ATOM     32  H   E46 d   1     -40.151  -4.351   3.621  0.00  0.00     0.036 H 
ATOM     33  H   E46 d   1     -42.219  -3.140   3.259  0.00  0.00     0.042 H 
ENDBRANCH  14  17
ENDBRANCH  12  14
ENDBRANCH   9  12
BRANCH   1  34
ATOM     34  CAW E46 d   1     -42.140  -2.495  -1.521  0.00  0.00     0.059 A 
ATOM     35  CAI E46 d   1     -42.830  -1.978  -0.439  0.00  0.00    -0.023 A 
ATOM     36  CAU E46 d   1     -44.144  -1.564  -0.506  0.00  0.00     0.080 A 
ATOM     37  H   E46 d   1     -42.309  -1.894   0.515  0.00  0.00     0.091 H 
ATOM     38  CAE E46 d   1     -44.840  -1.637  -1.697  0.00  0.00    -0.050 A 
ATOM     39  CAD E46 d   1     -44.185  -2.148  -2.804  0.00  0.00    -0.078 A 
ATOM     40  H   E46 d   1     -45.875  -1.302  -1.763  0.00  0.00     0.087 H 
ATOM     41  CAF E46 d   1     -42.861  -2.562  -2.709  0.00  0.00    -0.055 A 
ATOM     42  H   E46 d   1     -44.710  -2.226  -3.756  0.00  0.00     0.083 H 
ATOM     43  H   E46 d   1     -42.369  -2.954  -3.599  0.00  0.00     0.087 H 
BRANCH  36  44
ATOM     44  OAT E46 d   1     -44.699  -1.048   0.629  0.00  0.00    -0.255 OA
BRANCH  44  45
ATOM     45  CBB E46 d   1     -45.977  -1.395   1.107  0.00  0.00     0.530 C 
ATOM     46  FAA E46 d   1     -45.769  -2.133   2.185  0.00  0.00    -0.144 F 
ATOM     47  FAB E46 d   1     -46.631  -0.302   1.453  0.00  0.00    -0.144 F 
ATOM     48  FAC E46 d   1     -46.650  -2.017   0.156  0.00  0.00    -0.144 F 
ENDBRANCH  44  45
ENDBRANCH  36  44
ENDBRANCH   1  34
TORSDOF 6
