REMARK WARNING: 32 MAX_TORS EXCEEDED!!!
REMARK  33 active torsions:
REMARK  status: ('A' for Active; 'I' for Inactive)
REMARK    1  A    between atoms: N_1  and  CA_2 
REMARK    2  A    between atoms: CA_2  and  C_3 
REMARK    3  A    between atoms: CA_2  and  CB_5 
REMARK       I    between atoms: C_3  and  N_6 
REMARK    4  A    between atoms: N_6  and  CA_7 
REMARK    5  A    between atoms: CA_7  and  CB_8 
REMARK    6  A    between atoms: CA_7  and  C_17 
REMARK    7  A    between atoms: CB_8  and  CG_9 
REMARK    8  A    between atoms: CG_9  and  CD_10 
REMARK    9  A    between atoms: CD_10  and  NE_11 
REMARK       I    between atoms: NE_11  and  CZ_12 
REMARK       I    between atoms: CZ_12  and  NH1_13 
REMARK   10  A    between atoms: NH1_13  and  CQ1_14 
REMARK   11  A    between atoms: NH2_15  and  CQ2_16 
REMARK       I    between atoms: C_17  and  N_19 
REMARK   12  A    between atoms: N_19  and  CA_20 
REMARK   13  A    between atoms: CA_20  and  C_21 
REMARK   14  A    between atoms: CA_20  and  CB_23 
REMARK       I    between atoms: C_21  and  N_26 
REMARK   15  A    between atoms: CB_23  and  OG1_24 
REMARK   16  A    between atoms: CB_23  and  CG2_25 
REMARK   17  A    between atoms: N_26  and  CA_27 
REMARK   18  A    between atoms: CA_27  and  C_28 
REMARK   19  A    between atoms: CA_27  and  CB_30 
REMARK       I    between atoms: C_28  and  N_35 
REMARK   20  A    between atoms: CB_30  and  CG_31 
REMARK   21  A    between atoms: CG_31  and  CD_32 
REMARK   22  A    between atoms: CD_32  and  CE_33 
REMARK   23  A    between atoms: CE_33  and  NZ_34 
REMARK   24  A    between atoms: N_35  and  CA_36 
REMARK   25  A    between atoms: CA_36  and  C_37 
REMARK   26  A    between atoms: CA_36  and  CB_39 
REMARK       I    between atoms: C_37  and  N_44 
REMARK   27  A    between atoms: CB_39  and  CG_40 
REMARK   28  A    between atoms: CG_40  and  CD_41 
REMARK       I    between atoms: CD_41  and  NE2_43 
REMARK   29  A    between atoms: N_44  and  CA_45 
REMARK   30  A    between atoms: CA_45  and  C_46 
REMARK   31  A    between atoms: CA_45  and  CB_48 
REMARK       I    between atoms: C_46  and  N_51 
REMARK   32  A    between atoms: CB_48  and  OG1_49 
REMARK   33  A    between atoms: CB_48  and  CG2_50 
ROOT
ATOM      1  C   THR d   1      -2.349  19.679  27.902  0.00  0.00     0.243 C 
ATOM      2  O   THR d   1      -1.818  20.683  28.368  0.00  0.00    -0.271 OA
ATOM      3  N   LYS d   1      -2.845  18.716  28.670  0.00  0.00    -0.346 N 
ATOM      4  H32 LYS d   1      -3.303  17.936  28.243  0.00  0.00     0.163 HD
ENDROOT
BRANCH   1   5
ATOM      5  CA  THR d   1      -2.479  19.488  26.395  0.00  0.00     0.113 C 
ATOM      6  H26 THR d   1      -1.468  19.576  25.970  0.00  0.00     0.091 H 
BRANCH   5   7
ATOM      7  N   THR d   1      -3.003  18.187  25.971  0.00  0.00    -0.344 N 
ATOM      8  C   2MR d   1      -2.279  17.071  26.046  0.00  0.00     0.241 C 
ATOM      9  O   2MR d   1      -1.131  17.042  26.498  0.00  0.00    -0.271 OA
ATOM     10  H25 THR d   1      -3.935  18.135  25.613  0.00  0.00     0.163 HD
BRANCH   8  11
ATOM     11  CA  2MR d   1      -2.954  15.775  25.533  0.00  0.00     0.089 C 
ATOM     12  H9  2MR d   1      -2.630  14.925  26.151  0.00  0.00     0.087 H 
BRANCH  11  13
ATOM     13  N   2MR d   1      -4.400  15.891  25.582  0.00  0.00    -0.346 N 
ATOM     14  C   ALA d   1      -5.076  16.184  26.692  0.00  0.00     0.248 C 
ATOM     15  O   ALA d   1      -4.540  16.348  27.784  0.00  0.00    -0.271 OA
ATOM     16  H8  2MR d   1      -4.916  15.743  24.738  0.00  0.00     0.163 HD
BRANCH  14  17
ATOM     17  CA  ALA d   1      -6.585  16.292  26.525  0.00  0.00     0.172 C 
ATOM     18  H4  ALA d   1      -6.987  15.301  26.269  0.00  0.00     0.098 H 
BRANCH  17  19
ATOM     19  N   ALA d   1      -7.208  16.750  27.792  0.00  0.00    -0.067 N 
ATOM     20  H1  ALA d   1      -8.206  16.818  27.670  0.00  0.00     0.275 HD
ATOM     21  H2  ALA d   1      -6.838  17.654  28.041  0.00  0.00     0.275 HD
ATOM     22  H3  ALA d   1      -7.003  16.089  28.525  0.00  0.00     0.275 HD
ENDBRANCH  17  19
BRANCH  17  23
ATOM     23  CB  ALA d   1      -6.916  17.274  25.388  0.00  0.00    -0.042 C 
ATOM     24  H5  ALA d   1      -6.450  16.925  24.455  0.00  0.00     0.030 H 
ATOM     25  H6  ALA d   1      -6.528  18.272  25.641  0.00  0.00     0.030 H 
ATOM     26  H7  ALA d   1      -8.007  17.327  25.255  0.00  0.00     0.030 H 
ENDBRANCH  17  23
ENDBRANCH  14  17
ENDBRANCH  11  13
BRANCH  11  27
ATOM     27  CB  2MR d   1      -2.552  15.548  24.082  0.00  0.00    -0.036 C 
ATOM     28  H10 2MR d   1      -2.979  16.363  23.479  0.00  0.00     0.036 H 
ATOM     29  H11 2MR d   1      -2.979  14.588  23.756  0.00  0.00     0.036 H 
BRANCH  27  30
ATOM     30  CG  2MR d   1      -1.063  15.508  23.828  0.00  0.00    -0.048 C 
ATOM     31  H12 2MR d   1      -0.637  14.616  24.311  0.00  0.00     0.035 H 
ATOM     32  H13 2MR d   1      -0.599  16.411  24.250  0.00  0.00     0.035 H 
BRANCH  30  33
ATOM     33  CD  2MR d   1      -0.778  15.451  22.316  0.00  0.00     0.009 C 
ATOM     34  H14 2MR d   1       0.312  15.469  22.170  0.00  0.00     0.064 H 
ATOM     35  H15 2MR d   1      -1.225  16.340  21.848  0.00  0.00     0.064 H 
BRANCH  33  36
ATOM     36  NE  2MR d   1      -1.311  14.263  21.645  0.00  0.00    -0.227 N 
ATOM     37  CZ  2MR d   1      -0.515  13.196  21.434  0.00  0.00     0.668 C 
ATOM     38  NH1 2MR d   1       0.749  13.240  21.850  0.00  0.00    -0.231 N 
ATOM     39  NH2 2MR d   1      -0.987  12.153  20.774  0.00  0.00    -0.231 N 
ATOM     40  H17 2MR d   1       1.101  14.077  22.336  0.00  0.00     0.177 HD
ATOM     41  H21 2MR d   1      -0.365  11.354  20.585  0.00  0.00     0.177 HD
ATOM     42  H16 2MR d   1      -2.293  14.243  21.335  0.00  0.00     0.177 HD
BRANCH  38  43
ATOM     43  CQ1 2MR d   1       1.643  12.096  21.617  0.00  0.00    -0.005 C 
ATOM     44  H18 2MR d   1       2.638  12.319  22.029  0.00  0.00     0.057 H 
ATOM     45  H19 2MR d   1       1.727  11.910  20.536  0.00  0.00     0.057 H 
ATOM     46  H20 2MR d   1       1.233  11.203  22.112  0.00  0.00     0.057 H 
ENDBRANCH  38  43
BRANCH  39  47
ATOM     47  CQ2 2MR d   1      -2.344  12.107  20.315  0.00  0.00    -0.005 C 
ATOM     48  H22 2MR d   1      -2.523  11.155  19.794  0.00  0.00     0.057 H 
ATOM     49  H23 2MR d   1      -2.526  12.943  19.624  0.00  0.00     0.057 H 
ATOM     50  H24 2MR d   1      -3.025  12.187  21.175  0.00  0.00     0.057 H 
ENDBRANCH  39  47
ENDBRANCH  33  36
ENDBRANCH  30  33
ENDBRANCH  27  30
ENDBRANCH  11  27
ENDBRANCH   8  11
ENDBRANCH   5   7
BRANCH   5  51
ATOM     51  CB  THR d   1      -3.336  20.626  25.823  0.00  0.00     0.060 C 
ATOM     52  H27 THR d   1      -2.949  21.590  26.184  0.00  0.00     0.086 H 
BRANCH  51  53
ATOM     53  OG1 THR d   1      -4.694  20.466  26.252  0.00  0.00    -0.393 OA
ATOM     54  H28 THR d   1      -4.730  20.489  27.201  0.00  0.00     0.210 HD
ENDBRANCH  51  53
BRANCH  51  55
ATOM     55  CG2 THR d   1      -3.284  20.597  24.298  0.00  0.00    -0.050 C 
ATOM     56  H29 THR d   1      -3.900  21.414  23.895  0.00  0.00     0.031 H 
ATOM     57  H30 THR d   1      -3.671  19.633  23.936  0.00  0.00     0.031 H 
ATOM     58  H31 THR d   1      -2.244  20.723  23.964  0.00  0.00     0.031 H 
ENDBRANCH  51  55
ENDBRANCH   5  51
ENDBRANCH   1   5
BRANCH   3  59
ATOM     59  CA  LYS d   1      -2.735  18.772  30.121  0.00  0.00     0.089 C 
ATOM     60  H33 LYS d   1      -2.209  19.694  30.410  0.00  0.00     0.087 H 
BRANCH  59  61
ATOM     61  C   LYS d   1      -1.939  17.565  30.588  0.00  0.00     0.241 C 
ATOM     62  O   LYS d   1      -1.926  16.518  29.922  0.00  0.00    -0.271 OA
ATOM     63  N   GLN d   1      -1.278  17.711  31.729  0.00  0.00    -0.346 N 
ATOM     64  H45 GLN d   1      -1.344  18.578  32.222  0.00  0.00     0.163 HD
BRANCH  63  65
ATOM     65  CA  GLN d   1      -0.463  16.646  32.279  0.00  0.00     0.090 C 
ATOM     66  H46 GLN d   1       0.061  16.145  31.452  0.00  0.00     0.087 H 
BRANCH  65  67
ATOM     67  C   GLN d   1      -1.309  15.616  33.005  0.00  0.00     0.241 C 
ATOM     68  O   GLN d   1      -2.093  15.956  33.884  0.00  0.00    -0.271 OA
ATOM     69  N   THR d   1      -1.145  14.356  32.626  0.00  0.00    -0.344 N 
ATOM     70  H53 THR d   1      -0.495  14.155  31.893  0.00  0.00     0.163 HD
BRANCH  69  71
ATOM     71  CA  THR d   1      -1.874  13.255  33.235  0.00  0.00     0.113 C 
ATOM     72  H54 THR d   1      -2.518  13.670  34.025  0.00  0.00     0.091 H 
BRANCH  71  73
ATOM     73  C   THR d   1      -0.930  12.233  33.861  0.00  0.00     0.240 C 
ATOM     74  O   THR d   1       0.292  12.474  33.843  0.00  0.00    -0.271 OA
ATOM     75  N   ALA d   1      -1.429  11.210  34.364  0.00  0.00    -0.368 N 
ATOM     76  H60 ALA d   1      -0.839  10.520  34.783  0.00  0.00     0.159 HD
ATOM     77  H61 ALA d   1      -2.420  11.078  34.349  0.00  0.00     0.159 HD
ENDBRANCH  71  73
BRANCH  71  78
ATOM     78  CB  THR d   1      -2.765  12.518  32.207  0.00  0.00     0.060 C 
ATOM     79  H55 THR d   1      -2.662  11.433  32.355  0.00  0.00     0.086 H 
BRANCH  78  80
ATOM     80  OG1 THR d   1      -2.337  12.854  30.878  0.00  0.00    -0.393 OA
ATOM     81  H56 THR d   1      -1.432  12.590  30.762  0.00  0.00     0.210 HD
ENDBRANCH  78  80
BRANCH  78  82
ATOM     82  CG2 THR d   1      -4.223  12.905  32.401  0.00  0.00    -0.050 C 
ATOM     83  H57 THR d   1      -4.844  12.374  31.665  0.00  0.00     0.031 H 
ATOM     84  H58 THR d   1      -4.336  13.990  32.262  0.00  0.00     0.031 H 
ATOM     85  H59 THR d   1      -4.543  12.630  33.417  0.00  0.00     0.031 H 
ENDBRANCH  78  82
ENDBRANCH  71  78
ENDBRANCH  69  71
ENDBRANCH  65  67
BRANCH  65  86
ATOM     86  CB  GLN d   1       0.571  17.232  33.232  0.00  0.00    -0.030 C 
ATOM     87  H47 GLN d   1       0.035  17.730  34.053  0.00  0.00     0.037 H 
ATOM     88  H48 GLN d   1       1.165  17.974  32.678  0.00  0.00     0.037 H 
BRANCH  86  89
ATOM     89  CG  GLN d   1       1.524  16.223  33.836  0.00  0.00     0.011 C 
ATOM     90  H49 GLN d   1       2.170  15.827  33.039  0.00  0.00     0.047 H 
ATOM     91  H50 GLN d   1       0.937  15.402  34.274  0.00  0.00     0.047 H 
BRANCH  89  92
ATOM     92  CD  GLN d   1       2.404  16.829  34.923  0.00  0.00     0.215 C 
ATOM     93  OE1 GLN d   1       2.644  18.046  34.952  0.00  0.00    -0.274 OA
ATOM     94  NE2 GLN d   1       2.903  15.980  35.817  0.00  0.00    -0.370 N 
ATOM     95  H51 GLN d   1       3.488  16.317  36.555  0.00  0.00     0.159 HD
ATOM     96  H52 GLN d   1       2.693  15.004  35.752  0.00  0.00     0.159 HD
ENDBRANCH  89  92
ENDBRANCH  86  89
ENDBRANCH  65  86
ENDBRANCH  63  65
ENDBRANCH  59  61
BRANCH  59  97
ATOM     97  CB  LYS d   1      -4.118  18.760  30.779  0.00  0.00    -0.038 C 
ATOM     98  H34 LYS d   1      -3.980  18.659  31.866  0.00  0.00     0.036 H 
ATOM     99  H35 LYS d   1      -4.672  17.890  30.397  0.00  0.00     0.036 H 
BRANCH  97 100
ATOM    100  CG  LYS d   1      -4.948  19.998  30.522  0.00  0.00    -0.061 C 
ATOM    101  H36 LYS d   1      -5.111  20.110  29.440  0.00  0.00     0.033 H 
ATOM    102  H37 LYS d   1      -4.415  20.881  30.906  0.00  0.00     0.033 H 
BRANCH 100 103
ATOM    103  CD  LYS d   1      -6.297  19.874  31.227  0.00  0.00    -0.043 C 
ATOM    104  H38 LYS d   1      -6.123  19.622  32.283  0.00  0.00     0.035 H 
ATOM    105  H39 LYS d   1      -6.875  19.070  30.748  0.00  0.00     0.035 H 
BRANCH 103 106
ATOM    106  CE  LYS d   1      -7.098  21.163  31.156  0.00  0.00     0.080 C 
ATOM    107  H40 LYS d   1      -7.201  21.459  30.102  0.00  0.00     0.075 H 
ATOM    108  H41 LYS d   1      -6.558  21.948  31.706  0.00  0.00     0.075 H 
BRANCH 106 109
ATOM    109  NZ  LYS d   1      -8.453  21.010  31.746  0.00  0.00    -0.079 N 
ATOM    110  H42 LYS d   1      -8.949  21.885  31.679  0.00  0.00     0.274 HD
ATOM    111  H43 LYS d   1      -8.370  20.744  32.715  0.00  0.00     0.274 HD
ATOM    112  H44 LYS d   1      -8.959  20.297  31.245  0.00  0.00     0.274 HD
ENDBRANCH 106 109
ENDBRANCH 103 106
ENDBRANCH 100 103
ENDBRANCH  97 100
ENDBRANCH  59  97
ENDBRANCH   3  59
TORSDOF 33
