REMARK  11 active torsions:
REMARK  status: ('A' for Active; 'I' for Inactive)
REMARK    1  A    between atoms: C1_1  and  C1'_13 
REMARK    2  A    between atoms: C2_2  and  O2_3 
REMARK    3  A    between atoms: O2_3  and  P2_4 
REMARK    4  A    between atoms: C4_6  and  O4_7 
REMARK    5  A    between atoms: O4_7  and  P4_8 
REMARK    6  A    between atoms: C6_10  and  O6_11 
REMARK    7  A    between atoms: O6_11  and  P6_12 
REMARK    8  A    between atoms: C3'_18  and  O3'_19 
REMARK    9  A    between atoms: O3'_19  and  P3'_20 
REMARK   10  A    between atoms: C5'_28  and  O5'_29 
REMARK   11  A    between atoms: O5'_29  and  P5'_30 
ROOT
ATOM      1  C1  B5F d   1       1.229  52.345 -49.057  0.00  0.00     0.043 A 
ATOM      2  C2  B5F d   1       1.483  53.740 -49.045  0.00  0.00     0.099 A 
ATOM      3  C3  B5F d   1       1.967  54.337 -47.869  0.00  0.00    -0.016 A 
ATOM      4  C4  B5F d   1       2.240  53.579 -46.731  0.00  0.00     0.088 A 
ATOM      5  C5  B5F d   1       2.039  52.197 -46.768  0.00  0.00    -0.016 A 
ATOM      6  C6  B5F d   1       1.568  51.569 -47.928  0.00  0.00     0.099 A 
ATOM      7  H   B5F d   1       2.132  55.414 -47.846  0.00  0.00     0.092 H 
ATOM      8  H   B5F d   1       2.252  51.599 -45.882  0.00  0.00     0.092 H 
ENDROOT
BRANCH   1   9
ATOM      9  C1' B5F d   1       0.769  51.711 -50.229  0.00  0.00    -0.015 A 
ATOM     10  C2' B5F d   1       1.590  50.777 -50.889  0.00  0.00    -0.039 A 
ATOM     11  C3' B5F d   1       1.156  50.125 -52.049  0.00  0.00     0.086 A 
ATOM     12  H   B5F d   1       2.580  50.558 -50.490  0.00  0.00     0.089 H 
ATOM     13  C4' B5F d   1      -0.073  50.489 -52.614  0.00  0.00    -0.017 A 
ATOM     14  C5' B5F d   1      -0.919  51.410 -51.969  0.00  0.00     0.086 A 
ATOM     15  H   B5F d   1      -0.378  50.053 -53.565  0.00  0.00     0.092 H 
ATOM     16  C6' B5F d   1      -0.477  52.026 -50.791  0.00  0.00    -0.039 A 
ATOM     17  H   B5F d   1      -1.113  52.764 -50.302  0.00  0.00     0.089 H 
BRANCH  11  18
ATOM     18  O3' B5F d   1       1.976  49.240 -52.699  0.00  0.00    -0.240 OA
BRANCH  18  19
ATOM     19  P3' B5F d   1       1.931  47.709 -52.140  0.00  0.00     0.427 P 
ATOM     20  O31 B5F d   1       2.680  46.814 -53.246  0.00  0.00    -0.617 OA
ATOM     21  O32 B5F d   1       2.905  47.670 -50.861  0.00  0.00    -0.617 OA
ATOM     22  O33 B5F d   1       0.571  47.200 -51.864  0.00  0.00    -0.617 OA
ENDBRANCH  18  19
ENDBRANCH  11  18
BRANCH  14  23
ATOM     23  O5' B5F d   1      -2.128  51.836 -52.469  0.00  0.00    -0.240 OA
BRANCH  23  24
ATOM     24  P5' B5F d   1      -3.038  50.834 -53.377  0.00  0.00     0.427 P 
ATOM     25  O51 B5F d   1      -2.255  50.595 -54.765  0.00  0.00    -0.617 OA
ATOM     26  O52 B5F d   1      -3.102  49.411 -52.617  0.00  0.00    -0.617 OA
ATOM     27  O53 B5F d   1      -4.377  51.409 -53.640  0.00  0.00    -0.617 OA
ENDBRANCH  23  24
ENDBRANCH  14  23
ENDBRANCH   1   9
BRANCH   2  28
ATOM     28  O2  B5F d   1       1.161  54.496 -50.155  0.00  0.00    -0.239 OA
BRANCH  28  29
ATOM     29  P2  B5F d   1       1.725  56.030 -50.316  0.00  0.00     0.427 P 
ATOM     30  O21 B5F d   1       1.356  56.407 -51.825  0.00  0.00    -0.617 OA
ATOM     31  O22 B5F d   1       0.804  56.988 -49.401  0.00  0.00    -0.617 OA
ATOM     32  O23 B5F d   1       3.179  56.199 -50.074  0.00  0.00    -0.617 OA
ENDBRANCH  28  29
ENDBRANCH   2  28
BRANCH   6  33
ATOM     33  O6  B5F d   1       1.268  50.232 -47.909  0.00  0.00    -0.239 OA
BRANCH  33  34
ATOM     34  P6  B5F d   1       2.430  49.170 -47.509  0.00  0.00     0.427 P 
ATOM     35  O61 B5F d   1       3.861  49.789 -47.918  0.00  0.00    -0.617 OA
ATOM     36  O62 B5F d   1       2.368  49.065 -45.908  0.00  0.00    -0.617 OA
ATOM     37  O63 B5F d   1       2.204  47.846 -48.122  0.00  0.00    -0.617 OA
ENDBRANCH  33  34
ENDBRANCH   6  33
BRANCH   4  38
ATOM     38  O4  B5F d   1       2.793  54.188 -45.637  0.00  0.00    -0.240 OA
BRANCH  38  39
ATOM     39  P4  B5F d   1       1.807  54.290 -44.358  0.00  0.00     0.427 P 
ATOM     40  O41 B5F d   1       1.793  52.822 -43.687  0.00  0.00    -0.617 OA
ATOM     41  O42 B5F d   1       2.566  55.238 -43.305  0.00  0.00    -0.617 OA
ATOM     42  O43 B5F d   1       0.456  54.787 -44.694  0.00  0.00    -0.617 OA
ENDBRANCH  38  39
ENDBRANCH   4  38
TORSDOF 11
