REMARK  3 active torsions:
REMARK  status: ('A' for Active; 'I' for Inactive)
REMARK    1  A    between atoms: C2_2  and  C1_3 
REMARK    2  A    between atoms: C2_2  and  C3_4 
REMARK    3  A    between atoms: C5_11  and  C6_13 
ROOT
ATOM      1  C3  P9I d   1      19.346   9.418  -9.382  0.00  0.00     0.085 A 
ATOM      2  N2  P9I d   1      20.020   9.841 -10.554  0.00  0.00    -0.318 N 
ATOM      3  C15 P9I d   1      21.338   9.679 -10.962  0.00  0.00    -0.014 A 
ATOM      4  C14 P9I d   1      21.732  10.207 -12.181  0.00  0.00    -0.068 A 
ATOM      5  C13 P9I d   1      20.806  10.879 -12.971  0.00  0.00    -0.080 A 
ATOM      6  C12 P9I d   1      19.505  11.043 -12.584  0.00  0.00    -0.056 A 
ATOM      7  C11 P9I d   1      19.086  10.522 -11.344  0.00  0.00     0.051 A 
ATOM      8  C5  P9I d   1      17.861  10.549 -10.686  0.00  0.00     0.022 A 
ATOM      9  C4  P9I d   1      18.031   9.849  -9.488  0.00  0.00    -0.039 A 
ATOM     10  H4  P9I d   1      22.050   9.146 -10.334  0.00  0.00     0.112 H 
ATOM     11  H5  P9I d   1      22.761  10.096 -12.518  0.00  0.00     0.085 H 
ATOM     12  H6  P9I d   1      21.127  11.287 -13.928  0.00  0.00     0.083 H 
ATOM     13  H7  P9I d   1      18.801  11.570 -13.226  0.00  0.00     0.087 H 
ATOM     14  H8  P9I d   1      17.250   9.669  -8.750  0.00  0.00     0.088 H 
ENDROOT
BRANCH   8  15
ATOM     15  C6  P9I d   1      16.569  11.138 -11.180  0.00  0.00     0.069 A 
ATOM     16  N1  P9I d   1      15.440  10.600 -10.682  0.00  0.00    -0.260 NA
ATOM     17  C10 P9I d   1      14.265  11.092 -11.122  0.00  0.00     0.003 A 
ATOM     18  C9  P9I d   1      14.166  12.099 -12.065  0.00  0.00    -0.066 A 
ATOM     19  H9  P9I d   1      13.350  10.677 -10.716  0.00  0.00     0.114 H 
ATOM     20  C8  P9I d   1      15.329  12.635 -12.578  0.00  0.00    -0.079 A 
ATOM     21  H10 P9I d   1      13.197  12.459 -12.393  0.00  0.00     0.085 H 
ATOM     22  C7  P9I d   1      16.553  12.148 -12.133  0.00  0.00    -0.054 A 
ATOM     23  H11 P9I d   1      15.289  13.426 -13.319  0.00  0.00     0.083 H 
ATOM     24  H12 P9I d   1      17.480  12.550 -12.524  0.00  0.00     0.087 H 
ENDBRANCH   8  15
BRANCH   1  25
ATOM     25  C2  P9I d   1      20.039   8.683  -8.330  0.00  0.00     0.172 C 
ATOM     26  O   P9I d   1      21.196   8.298  -8.433  0.00  0.00    -0.291 OA
BRANCH  25  27
ATOM     27  C1  P9I d   1      19.265   8.423  -7.069  0.00  0.00    -0.015 C 
ATOM     28  H1  P9I d   1      18.253   8.842  -7.167  0.00  0.00     0.038 H 
ATOM     29  H2  P9I d   1      19.777   8.898  -6.220  0.00  0.00     0.038 H 
ATOM     30  H3  P9I d   1      19.198   7.339  -6.897  0.00  0.00     0.038 H 
ENDBRANCH  25  27
ENDBRANCH   1  25
TORSDOF 3
