REMARK  7 active torsions:
REMARK  status: ('A' for Active; 'I' for Inactive)
REMARK    1  A    between atoms: S_2  and  N2_4 
REMARK    2  A    between atoms: S_2  and  C11_10 
REMARK    3  A    between atoms: N2_4  and  C13_5 
REMARK    4  A    between atoms: C9_11  and  C10_12 
REMARK    5  A    between atoms: C6_16  and  C5_17 
REMARK    6  A    between atoms: C2_18  and  C1_19 
REMARK    7  A    between atoms: C3_20  and  C4_21 
ROOT
ATOM      1  C11 P9M d   1      18.895  11.769 -11.755  0.00  0.00     0.086 A 
ATOM      2  C9  P9M d   1      17.502  11.752 -11.585  0.00  0.00    -0.039 A 
ATOM      3  C8  P9M d   1      16.997  10.886 -10.604  0.00  0.00    -0.075 A 
ATOM      4  C7  P9M d   1      17.824  10.072  -9.824  0.00  0.00    -0.071 A 
ATOM      5  C12 P9M d   1      19.717  10.969 -10.976  0.00  0.00    -0.049 A 
ATOM      6  C6  P9M d   1      19.205  10.112 -10.012  0.00  0.00    -0.020 A 
ATOM      7  H14 P9M d   1      15.925  10.846 -10.445  0.00  0.00     0.084 H 
ATOM      8  H15 P9M d   1      17.394   9.414  -9.078  0.00  0.00     0.084 H 
ATOM      9  H16 P9M d   1      20.790  11.014 -11.124  0.00  0.00     0.087 H 
ENDROOT
BRANCH   1  10
ATOM     10  S   P9M d   1      19.690  12.806 -12.966  0.00  0.00     0.259 S 
ATOM     11  O3  P9M d   1      21.102  12.674 -12.770  0.00  0.00    -0.201 OA
ATOM     12  O2  P9M d   1      19.118  12.478 -14.245  0.00  0.00    -0.201 OA
BRANCH  10  13
ATOM     13  N2  P9M d   1      19.326  14.329 -12.678  0.00  0.00    -0.311 N 
ATOM     14  H1  P9M d   1      18.862  14.895 -13.359  0.00  0.00     0.172 HD
BRANCH  13  15
ATOM     15  C13 P9M d   1      19.706  14.862 -11.362  0.00  0.00     0.020 C 
ATOM     16  C17 P9M d   1      20.426  16.185 -11.554  0.00  0.00    -0.045 C 
ATOM     17  C16 P9M d   1      20.263  16.879 -10.228  0.00  0.00    -0.063 C 
ATOM     18  H3  P9M d   1      19.962  16.770 -12.362  0.00  0.00     0.036 H 
ATOM     19  H4  P9M d   1      21.490  16.023 -11.783  0.00  0.00     0.036 H 
ATOM     20  C15 P9M d   1      18.904  16.430  -9.727  0.00  0.00    -0.063 C 
ATOM     21  H5  P9M d   1      20.289  17.971 -10.355  0.00  0.00     0.033 H 
ATOM     22  H6  P9M d   1      21.055  16.573  -9.529  0.00  0.00     0.033 H 
ATOM     23  C14 P9M d   1      18.453  15.274 -10.600  0.00  0.00    -0.045 C 
ATOM     24  H7  P9M d   1      18.184  17.259  -9.801  0.00  0.00     0.033 H 
ATOM     25  H8  P9M d   1      18.980  16.102  -8.680  0.00  0.00     0.033 H 
ATOM     26  H9  P9M d   1      18.082  14.442  -9.983  0.00  0.00     0.036 H 
ATOM     27  H10 P9M d   1      17.663  15.596 -11.295  0.00  0.00     0.036 H 
ATOM     28  H2  P9M d   1      20.312  14.134 -10.803  0.00  0.00     0.073 H 
ENDBRANCH  13  15
ENDBRANCH  10  13
ENDBRANCH   1  10
BRANCH   2  29
ATOM     29  C10 P9M d   1      16.530  12.595 -12.389  0.00  0.00    -0.050 C 
ATOM     30  H11 P9M d   1      15.502  12.389 -12.055  0.00  0.00     0.033 H 
ATOM     31  H12 P9M d   1      16.625  12.347 -13.456  0.00  0.00     0.033 H 
ATOM     32  H13 P9M d   1      16.758  13.661 -12.239  0.00  0.00     0.033 H 
ENDBRANCH   2  29
BRANCH   6  33
ATOM     33  C5  P9M d   1      20.128   9.271  -9.200  0.00  0.00     0.032 A 
ATOM     34  C2  P9M d   1      20.048   8.930  -7.834  0.00  0.00     0.071 A 
ATOM     35  N1  P9M d   1      21.061   8.184  -7.476  0.00  0.00    -0.133 NA
ATOM     36  O1  P9M d   1      21.862   8.019  -8.639  0.00  0.00    -0.217 OA
ATOM     37  C3  P9M d   1      21.264   8.681  -9.649  0.00  0.00     0.088 A 
BRANCH  34  38
ATOM     38  C1  P9M d   1      19.007   9.285  -6.815  0.00  0.00    -0.033 C 
ATOM     39  H17 P9M d   1      19.276   8.841  -5.846  0.00  0.00     0.035 H 
ATOM     40  H18 P9M d   1      18.030   8.896  -7.138  0.00  0.00     0.035 H 
ATOM     41  H19 P9M d   1      18.951  10.379  -6.714  0.00  0.00     0.035 H 
ENDBRANCH  34  38
BRANCH  37  42
ATOM     42  C4  P9M d   1      21.978   8.620 -10.972  0.00  0.00    -0.028 C 
ATOM     43  H20 P9M d   1      22.888   8.010 -10.870  0.00  0.00     0.036 H 
ATOM     44  H21 P9M d   1      22.252   9.637 -11.288  0.00  0.00     0.036 H 
ATOM     45  H22 P9M d   1      21.316   8.168 -11.725  0.00  0.00     0.036 H 
ENDBRANCH  37  42
ENDBRANCH   6  33
TORSDOF 7
