REMARK  7 active torsions:
REMARK  status: ('A' for Active; 'I' for Inactive)
REMARK    1  A    between atoms: S_2  and  N2_4 
REMARK    2  A    between atoms: S_2  and  C11_8 
REMARK    3  A    between atoms: N2_4  and  C13_5 
REMARK    4  A    between atoms: C9_9  and  C10_10 
REMARK    5  A    between atoms: C6_14  and  C5_15 
REMARK    6  A    between atoms: C2_16  and  C1_17 
REMARK    7  A    between atoms: C3_18  and  C4_19 
ROOT
ATOM      1  C11 A9N d   1      18.706  11.894 -11.204  0.00  0.00     0.086 A 
ATOM      2  C9  A9N d   1      17.324  11.662 -11.266  0.00  0.00    -0.039 A 
ATOM      3  C8  A9N d   1      16.838  10.598 -10.529  0.00  0.00    -0.075 A 
ATOM      4  C7  A9N d   1      17.660   9.795  -9.761  0.00  0.00    -0.071 A 
ATOM      5  C12 A9N d   1      19.534  11.099 -10.443  0.00  0.00    -0.049 A 
ATOM      6  C6  A9N d   1      19.015  10.046  -9.716  0.00  0.00    -0.020 A 
ATOM      7  H8  A9N d   1      15.775  10.386 -10.554  0.00  0.00     0.084 H 
ATOM      8  H9  A9N d   1      17.241   8.970  -9.196  0.00  0.00     0.084 H 
ATOM      9  H10 A9N d   1      20.599  11.301 -10.415  0.00  0.00     0.087 H 
ENDROOT
BRANCH   6  10
ATOM     10  C5  A9N d   1      19.924   9.217  -8.904  0.00  0.00     0.032 A 
ATOM     11  C2  A9N d   1      19.812   8.936  -7.526  0.00  0.00     0.071 A 
ATOM     12  N1  A9N d   1      20.870   8.194  -7.187  0.00  0.00    -0.133 NA
ATOM     13  O1  A9N d   1      21.667   7.981  -8.307  0.00  0.00    -0.217 OA
ATOM     14  C3  A9N d   1      21.074   8.620  -9.346  0.00  0.00     0.088 A 
BRANCH  11  15
ATOM     15  C1  A9N d   1      18.861   9.301  -6.664  0.00  0.00    -0.033 C 
ATOM     16  H11 A9N d   1      19.098   8.902  -5.667  0.00  0.00     0.035 H 
ATOM     17  H12 A9N d   1      17.891   8.903  -6.997  0.00  0.00     0.035 H 
ATOM     18  H13 A9N d   1      18.810  10.399  -6.618  0.00  0.00     0.035 H 
ENDBRANCH  11  15
BRANCH  14  19
ATOM     19  C4  A9N d   1      21.745   8.541 -10.650  0.00  0.00    -0.028 C 
ATOM     20  H14 A9N d   1      22.666   7.947 -10.553  0.00  0.00     0.036 H 
ATOM     21  H15 A9N d   1      21.997   9.555 -10.995  0.00  0.00     0.036 H 
ATOM     22  H16 A9N d   1      21.075   8.062 -11.379  0.00  0.00     0.036 H 
ENDBRANCH  14  19
ENDBRANCH   6  10
BRANCH   1  23
ATOM     23  S   A9N d   1      19.432  13.230 -12.115  0.00  0.00     0.260 S 
ATOM     24  O3  A9N d   1      20.772  13.346 -11.616  0.00  0.00    -0.200 OA
ATOM     25  O2  A9N d   1      19.207  12.975 -13.502  0.00  0.00    -0.200 OA
BRANCH  23  26
ATOM     26  N2  A9N d   1      18.669  14.596 -11.738  0.00  0.00    -0.304 N 
ATOM     27  H1  A9N d   1      18.193  15.105 -12.455  0.00  0.00     0.173 HD
BRANCH  26  28
ATOM     28  C13 A9N d   1      18.658  15.107 -10.371  0.00  0.00     0.052 A 
ATOM     29  C15 A9N d   1      19.720  16.025  -9.886  0.00  0.00    -0.079 A 
ATOM     30  C14 A9N d   1      18.552  16.559 -10.092  0.00  0.00    -0.079 A 
ATOM     31  H3  A9N d   1      20.755  16.158  -9.575  0.00  0.00     0.080 H 
ATOM     32  H4  A9N d   1      17.929  17.452 -10.073  0.00  0.00     0.080 H 
ATOM     33  H2  A9N d   1      18.197  14.363  -9.705  0.00  0.00     0.086 H 
ENDBRANCH  26  28
ENDBRANCH  23  26
ENDBRANCH   1  23
BRANCH   2  34
ATOM     34  C10 A9N d   1      16.377  12.482 -12.069  0.00  0.00    -0.050 C 
ATOM     35  H5  A9N d   1      15.357  12.091 -11.944  0.00  0.00     0.033 H 
ATOM     36  H6  A9N d   1      16.660  12.435 -13.131  0.00  0.00     0.033 H 
ATOM     37  H7  A9N d   1      16.414  13.526 -11.726  0.00  0.00     0.033 H 
ENDBRANCH   2  34
TORSDOF 7
