REMARK  4 active torsions:
REMARK  status: ('A' for Active; 'I' for Inactive)
REMARK       I    between atoms: C1_1  and  N1_2 
REMARK    1  A    between atoms: C2_4  and  C1_1 
REMARK    2  A    between atoms: O1_3  and  C12_17 
REMARK    3  A    between atoms: C15_20  and  O1_3 
REMARK    4  A    between atoms: C9_13  and  C5_9 
ROOT
ATOM      1  C9  RU5 d   1      -8.914  49.212   9.294  0.00  0.00     0.010 A 
ATOM      2  C10 RU5 d   1      -9.514  49.492  10.669  0.00  0.00    -0.067 A 
ATOM      3  C11 RU5 d   1      -8.736  49.883  11.656  0.00  0.00    -0.049 A 
ATOM      4  C12 RU5 d   1      -7.240  50.069  11.420  0.00  0.00     0.076 A 
ATOM      5  C13 RU5 d   1      -6.726  49.832  10.235  0.00  0.00    -0.049 A 
ATOM      6  C14 RU5 d   1      -7.626  49.377   9.093  0.00  0.00    -0.067 A 
ATOM      7  H   RU5 d   1     -10.584  49.368  10.833  0.00  0.00     0.085 H 
ATOM      8  H   RU5 d   1      -9.160  50.074  12.642  0.00  0.00     0.087 H 
ATOM      9  H   RU5 d   1      -5.657  49.961  10.069  0.00  0.00     0.087 H 
ATOM     10  H   RU5 d   1      -7.201  49.188   8.107  0.00  0.00     0.085 H 
ENDROOT
BRANCH   1  11
ATOM     11  C5  RU5 d   1      -9.797  48.767   8.133  0.00  0.00     0.139 A 
ATOM     12  N3  RU5 d   1      -9.340  48.121   6.948  0.00  0.00    -0.228 NA
ATOM     13  C4  RU5 d   1     -10.439  47.874   6.122  0.00  0.00     0.086 A 
ATOM     14  C3  RU5 d   1     -10.562  47.219   4.749  0.00  0.00    -0.038 A 
ATOM     15  C6  RU5 d   1     -11.503  48.327   6.731  0.00  0.00     0.062 A 
ATOM     16  C2  RU5 d   1     -11.738  47.109   4.177  0.00  0.00     0.034 A 
ATOM     17  H   RU5 d   1      -9.673  46.843   4.243  0.00  0.00     0.088 H 
ATOM     18  C8  RU5 d   1     -12.980  47.635   4.885  0.00  0.00    -0.065 A 
ATOM     19  C7  RU5 d   1     -12.872  48.200   6.067  0.00  0.00    -0.054 A 
ATOM     20  H   RU5 d   1     -13.958  47.543   4.412  0.00  0.00     0.085 H 
ATOM     21  H   RU5 d   1     -13.760  48.578   6.573  0.00  0.00     0.087 H 
ATOM     22  N4  RU5 d   1     -11.071  48.907   8.041  0.00  0.00    -0.338 N 
ATOM     23  H   RU5 d   1     -11.680  49.337   8.737  0.00  0.00     0.167 HD
BRANCH  16  24
ATOM     24  C1  RU5 d   1     -11.851  46.455   2.805  0.00  0.00     0.249 C 
ATOM     25  N1  RU5 d   1     -10.814  45.548   2.354  0.00  0.00    -0.366 N 
ATOM     26  H   RU5 d   1     -10.883  45.111   1.435  0.00  0.00     0.159 HD
ATOM     27  H   RU5 d   1     -10.015  45.347   2.956  0.00  0.00     0.159 HD
ATOM     28  OAB RU5 d   1     -12.777  46.687   2.106  0.00  0.00    -0.268 OA
ENDBRANCH  16  24
ENDBRANCH   1  11
BRANCH   4  29
ATOM     29  O1  RU5 d   1      -6.401  50.471  12.462  0.00  0.00    -0.311 OA
BRANCH  29  30
ATOM     30  C15 RU5 d   1      -7.100  51.266  13.373  0.00  0.00     0.076 A 
ATOM     31  C16 RU5 d   1      -7.789  50.626  14.574  0.00  0.00    -0.049 A 
ATOM     32  C17 RU5 d   1      -8.443  51.376  15.434  0.00  0.00    -0.059 A 
ATOM     33  H   RU5 d   1      -7.739  49.547  14.720  0.00  0.00     0.087 H 
ATOM     34  C18 RU5 d   1      -8.508  52.886  15.230  0.00  0.00     0.034 A 
ATOM     35  H   RU5 d   1      -8.938  50.919  16.291  0.00  0.00     0.086 H 
ATOM     36 CLA  RU5 d   1      -9.392  53.907  16.394  0.00  0.00    -0.084 Cl
ATOM     37  C19 RU5 d   1      -7.913  53.439  14.196  0.00  0.00    -0.059 A 
ATOM     38  C20 RU5 d   1      -7.155  52.568  13.199  0.00  0.00    -0.049 A 
ATOM     39  H   RU5 d   1      -7.961  54.518  14.051  0.00  0.00     0.086 H 
ATOM     40  H   RU5 d   1      -6.659  53.025  12.343  0.00  0.00     0.087 H 
ENDBRANCH  29  30
ENDBRANCH   4  29
TORSDOF 4
