REMARK  5 active torsions:
REMARK  status: ('A' for Active; 'I' for Inactive)
REMARK       I    between atoms: C1_1  and  N1_2 
REMARK    1  A    between atoms: C2_4  and  C1_1 
REMARK    2  A    between atoms: C12_16  and  O1_3 
REMARK    3  A    between atoms: O1_3  and  C15_19 
REMARK    4  A    between atoms: C9_13  and  C5_9 
REMARK    5  A    between atoms: C19_23  and  OAC_26 
ROOT
ATOM      1  C9  RU9 d   1      38.314 -32.101   6.196  0.00  0.00     0.010 A 
ATOM      2  C10 RU9 d   1      38.169 -32.781   4.839  0.00  0.00    -0.067 A 
ATOM      3  C11 RU9 d   1      38.881 -32.367   3.817  0.00  0.00    -0.049 A 
ATOM      4  C12 RU9 d   1      39.860 -31.207   3.982  0.00  0.00     0.076 A 
ATOM      5  C13 RU9 d   1      39.989 -30.619   5.156  0.00  0.00    -0.049 A 
ATOM      6  C14 RU9 d   1      39.160 -31.101   6.348  0.00  0.00    -0.067 A 
ATOM      7  H   RU9 d   1      37.474 -33.611   4.718  0.00  0.00     0.085 H 
ATOM      8  H   RU9 d   1      38.773 -32.853   2.847  0.00  0.00     0.087 H 
ATOM      9  H   RU9 d   1      40.686 -29.790   5.277  0.00  0.00     0.087 H 
ATOM     10  H   RU9 d   1      39.268 -30.619   7.320  0.00  0.00     0.085 H 
ENDROOT
BRANCH   1  11
ATOM     11  C5  RU9 d   1      37.475 -32.622   7.360  0.00  0.00     0.139 A 
ATOM     12  N3  RU9 d   1      37.097 -31.920   8.546  0.00  0.00    -0.228 NA
ATOM     13  C4  RU9 d   1      36.319 -32.773   9.342  0.00  0.00     0.086 A 
ATOM     14  C3  RU9 d   1      35.643 -32.600  10.703  0.00  0.00    -0.038 A 
ATOM     15  C6  RU9 d   1      36.208 -33.914   8.706  0.00  0.00     0.062 A 
ATOM     16  C2  RU9 d   1      34.955 -33.593  11.229  0.00  0.00     0.034 A 
ATOM     17  H   RU9 d   1      35.730 -31.654  11.238  0.00  0.00     0.088 H 
ATOM     18  C8  RU9 d   1      34.830 -34.916  10.487  0.00  0.00    -0.065 A 
ATOM     19  C7  RU9 d   1      35.410 -35.065   9.319  0.00  0.00    -0.054 A 
ATOM     20  H   RU9 d   1      34.261 -35.737  10.924  0.00  0.00     0.085 H 
ATOM     21  H   RU9 d   1      35.322 -36.011   8.785  0.00  0.00     0.087 H 
ATOM     22  N4  RU9 d   1      36.961 -33.798   7.419  0.00  0.00    -0.338 N 
ATOM     23  H   RU9 d   1      37.051 -34.526   6.711  0.00  0.00     0.167 HD
BRANCH  16  24
ATOM     24  C1  RU9 d   1      34.294 -33.443  12.597  0.00  0.00     0.249 C 
ATOM     25  N1  RU9 d   1      34.815 -32.480  13.550  0.00  0.00    -0.366 N 
ATOM     26  H   RU9 d   1      34.450 -32.456  14.502  0.00  0.00     0.159 HD
ATOM     27  H   RU9 d   1      35.546 -31.827  13.268  0.00  0.00     0.159 HD
ATOM     28  OAB RU9 d   1      33.443 -34.203  12.925  0.00  0.00    -0.268 OA
ENDBRANCH  16  24
ENDBRANCH   1  11
BRANCH   4  29
ATOM     29  O1  RU9 d   1      40.602 -30.775   2.874  0.00  0.00    -0.311 OA
BRANCH  29  30
ATOM     30  C15 RU9 d   1      41.219 -31.871   2.255  0.00  0.00     0.078 A 
ATOM     31  C16 RU9 d   1      42.589 -32.350   2.733  0.00  0.00    -0.050 A 
ATOM     32  C17 RU9 d   1      43.169 -33.381   2.156  0.00  0.00    -0.078 A 
ATOM     33  H   RU9 d   1      43.088 -31.836   3.555  0.00  0.00     0.087 H 
ATOM     34  C18 RU9 d   1      42.471 -34.101   1.004  0.00  0.00    -0.051 A 
ATOM     35  H   RU9 d   1      44.146 -33.721   2.500  0.00  0.00     0.083 H 
ATOM     36  C19 RU9 d   1      41.291 -33.689   0.591  0.00  0.00     0.068 A 
ATOM     37  H   RU9 d   1      42.949 -34.955   0.524  0.00  0.00     0.087 H 
ATOM     38  C20 RU9 d   1      40.619 -32.492   1.260  0.00  0.00    -0.018 A 
ATOM     39  H   RU9 d   1      39.643 -32.151   0.914  0.00  0.00     0.092 H 
BRANCH  36  40
ATOM     40  OAC RU9 d   1      40.650 -34.355  -0.459  0.00  0.00    -0.361 OA
ATOM     41  H   RU9 d   1      41.204 -35.078  -0.764  0.00  0.00     0.217 HD
ENDBRANCH  36  40
ENDBRANCH  29  30
ENDBRANCH   4  29
TORSDOF 5
