REMARK  5 active torsions:
REMARK  status: ('A' for Active; 'I' for Inactive)
REMARK       I    between atoms: C1_1  and  N1_2 
REMARK    1  A    between atoms: C2_4  and  C1_1 
REMARK    2  A    between atoms: O1_3  and  C12_16 
REMARK    3  A    between atoms: CAS_25  and  O1_3 
REMARK    4  A    between atoms: C9_13  and  C5_9 
REMARK    5  A    between atoms: C18_21  and  CAS_25 
ROOT
ATOM      1  C9  A9T d   1       8.561 -49.147   9.069  0.00  0.00     0.010 A 
ATOM      2  C10 A9T d   1       9.135 -49.649  10.235  0.00  0.00    -0.067 A 
ATOM      3  C11 A9T d   1       8.324 -50.060  11.289  0.00  0.00    -0.050 A 
ATOM      4  C12 A9T d   1       6.937 -49.987  11.184  0.00  0.00     0.068 A 
ATOM      5  C13 A9T d   1       6.362 -49.538   9.999  0.00  0.00    -0.050 A 
ATOM      6  C14 A9T d   1       7.173 -49.104   8.953  0.00  0.00    -0.067 A 
ATOM      7  H   A9T d   1      10.219 -49.720  10.322  0.00  0.00     0.085 H 
ATOM      8  H   A9T d   1       8.778 -50.442  12.204  0.00  0.00     0.087 H 
ATOM      9  H   A9T d   1       5.278 -49.526   9.889  0.00  0.00     0.087 H 
ATOM     10  H   A9T d   1       6.718 -48.728   8.037  0.00  0.00     0.085 H 
ENDROOT
BRANCH   4  11
ATOM     11  O1  A9T d   1       6.175 -50.440  12.223  0.00  0.00    -0.351 OA
BRANCH  11  12
ATOM     12  CAS A9T d   1       4.774 -50.028  12.276  0.00  0.00     0.029 C 
ATOM     13  H   A9T d   1       4.176 -50.301  11.406  0.00  0.00     0.075 H 
ATOM     14  H   A9T d   1       4.605 -48.951  12.255  0.00  0.00     0.075 H 
BRANCH  12  15
ATOM     15  C18 A9T d   1       4.382 -50.727  13.585  0.00  0.00    -0.030 C 
ATOM     16  C19 A9T d   1       4.665 -52.213  13.555  0.00  0.00    -0.037 C 
ATOM     17  C20 A9T d   1       4.261 -52.870  14.874  0.00  0.00     0.082 C 
ATOM     18  H   A9T d   1       4.089 -52.664  12.747  0.00  0.00     0.036 H 
ATOM     19  H   A9T d   1       5.733 -52.364  13.400  0.00  0.00     0.036 H 
ATOM     20  NBG A9T d   1       5.039 -52.252  15.976  0.00  0.00    -0.075 N 
ATOM     21  H   A9T d   1       4.467 -53.940  14.832  0.00  0.00     0.075 H 
ATOM     22  H   A9T d   1       3.195 -52.723  15.048  0.00  0.00     0.075 H 
ATOM     23  C16 A9T d   1       4.580 -50.844  16.089  0.00  0.00     0.082 C 
ATOM     24  H   A9T d   1       6.039 -52.293  15.781  0.00  0.00     0.277 HD
ATOM     25  H   A9T d   1       4.889 -52.754  16.851  0.00  0.00     0.277 HD
ATOM     26  C17 A9T d   1       5.006 -50.091  14.825  0.00  0.00    -0.037 C 
ATOM     27  H   A9T d   1       3.495 -50.813  16.192  0.00  0.00     0.075 H 
ATOM     28  H   A9T d   1       5.025 -50.377  16.968  0.00  0.00     0.075 H 
ATOM     29  H   A9T d   1       4.669 -49.057  14.899  0.00  0.00     0.036 H 
ATOM     30  H   A9T d   1       6.091 -50.135  14.736  0.00  0.00     0.036 H 
ATOM     31  H   A9T d   1       3.304 -50.587  13.662  0.00  0.00     0.043 H 
ENDBRANCH  12  15
ENDBRANCH  11  12
ENDBRANCH   4  11
BRANCH   1  32
ATOM     32  C5  A9T d   1       9.365 -48.725   8.005  0.00  0.00     0.139 A 
ATOM     33  N3  A9T d   1       8.925 -48.166   6.874  0.00  0.00    -0.338 N 
ATOM     34  C4  A9T d   1       9.971 -47.902   6.095  0.00  0.00     0.063 A 
ATOM     35  H   A9T d   1       7.950 -47.974   6.646  0.00  0.00     0.167 HD
ATOM     36  C3  A9T d   1      10.092 -47.317   4.837  0.00  0.00    -0.040 A 
ATOM     37  C6  A9T d   1      11.101 -48.351   6.760  0.00  0.00     0.086 A 
ATOM     38  C2  A9T d   1      11.345 -47.185   4.241  0.00  0.00     0.034 A 
ATOM     39  H   A9T d   1       9.203 -46.961   4.316  0.00  0.00     0.088 H 
ATOM     40  C8  A9T d   1      12.479 -47.635   4.912  0.00  0.00    -0.065 A 
ATOM     41  C7  A9T d   1      12.356 -48.221   6.168  0.00  0.00    -0.052 A 
ATOM     42  H   A9T d   1      13.462 -47.528   4.454  0.00  0.00     0.085 H 
ATOM     43  H   A9T d   1      13.243 -48.579   6.690  0.00  0.00     0.087 H 
ATOM     44  N4  A9T d   1      10.693 -48.855   7.923  0.00  0.00    -0.228 NA
BRANCH  38  45
ATOM     45  C1  A9T d   1      11.469 -46.540   2.853  0.00  0.00     0.249 C 
ATOM     46  N1  A9T d   1      10.320 -46.160   2.306  0.00  0.00    -0.366 N 
ATOM     47  H   A9T d   1      10.315 -45.710   1.391  0.00  0.00     0.159 HD
ATOM     48  H   A9T d   1       9.442 -46.318   2.801  0.00  0.00     0.159 HD
ATOM     49  OAB A9T d   1      12.563 -46.381   2.314  0.00  0.00    -0.268 OA
ENDBRANCH  38  45
ENDBRANCH   1  32
TORSDOF 5
