REMARK  5 active torsions:
REMARK  status: ('A' for Active; 'I' for Inactive)
REMARK       I    between atoms: C1_1  and  N1_2 
REMARK    1  A    between atoms: C2_4  and  C1_1 
REMARK    2  A    between atoms: O1_3  and  C12_16 
REMARK    3  A    between atoms: CAS_25  and  O1_3 
REMARK    4  A    between atoms: C9_13  and  C5_9 
REMARK    5  A    between atoms: C18_21  and  CAS_25 
ROOT
ATOM      1  C9  A9U d   1      38.503 -32.011   6.273  0.00  0.00     0.010 A 
ATOM      2  C10 A9U d   1      38.597 -32.799   4.967  0.00  0.00    -0.067 A 
ATOM      3  C11 A9U d   1      39.332 -32.344   3.972  0.00  0.00    -0.050 A 
ATOM      4  C12 A9U d   1      40.094 -31.029   4.125  0.00  0.00     0.068 A 
ATOM      5  C13 A9U d   1      40.018 -30.353   5.254  0.00  0.00    -0.050 A 
ATOM      6  C14 A9U d   1      39.166 -30.880   6.409  0.00  0.00    -0.067 A 
ATOM      7  H   A9U d   1      38.055 -33.739   4.858  0.00  0.00     0.085 H 
ATOM      8  H   A9U d   1      39.396 -32.906   3.040  0.00  0.00     0.087 H 
ATOM      9  H   A9U d   1      40.564 -29.416   5.364  0.00  0.00     0.087 H 
ATOM     10  H   A9U d   1      39.107 -30.321   7.343  0.00  0.00     0.085 H 
ENDROOT
BRANCH   4  11
ATOM     11  O1  A9U d   1      40.897 -30.563   3.078  0.00  0.00    -0.351 OA
BRANCH  11  12
ATOM     12  CAS A9U d   1      40.548 -29.409   2.368  0.00  0.00     0.029 C 
ATOM     13  H   A9U d   1      40.395 -28.584   3.064  0.00  0.00     0.075 H 
ATOM     14  H   A9U d   1      39.626 -29.586   1.813  0.00  0.00     0.075 H 
BRANCH  12  15
ATOM     15  C18 A9U d   1      41.602 -29.080   1.456  0.00  0.00    -0.030 C 
ATOM     16  C19 A9U d   1      42.739 -29.904   1.697  0.00  0.00    -0.037 C 
ATOM     17  C20 A9U d   1      43.831 -29.710   0.642  0.00  0.00     0.082 C 
ATOM     18  H   A9U d   1      43.154 -29.632   2.667  0.00  0.00     0.036 H 
ATOM     19  H   A9U d   1      42.416 -30.945   1.662  0.00  0.00     0.036 H 
ATOM     20  NBH A9U d   1      43.302 -29.911  -0.621  0.00  0.00    -0.075 N 
ATOM     21  H   A9U d   1      44.633 -30.428   0.816  0.00  0.00     0.075 H 
ATOM     22  H   A9U d   1      44.224 -28.696   0.712  0.00  0.00     0.075 H 
ATOM     23  C16 A9U d   1      42.290 -29.009  -0.885  0.00  0.00     0.082 C 
ATOM     24  H   A9U d   1      42.919 -30.855  -0.668  0.00  0.00     0.277 HD
ATOM     25  H   A9U d   1      44.043 -29.781  -1.310  0.00  0.00     0.277 HD
ATOM     26  C17 A9U d   1      41.153 -29.207   0.114  0.00  0.00    -0.037 C 
ATOM     27  H   A9U d   1      42.677 -27.994  -0.796  0.00  0.00     0.075 H 
ATOM     28  H   A9U d   1      41.916 -29.171  -1.896  0.00  0.00     0.075 H 
ATOM     29  H   A9U d   1      40.399 -28.442  -0.069  0.00  0.00     0.036 H 
ATOM     30  H   A9U d   1      40.751 -30.211  -0.019  0.00  0.00     0.036 H 
ATOM     31  H   A9U d   1      41.896 -28.043   1.616  0.00  0.00     0.043 H 
ENDBRANCH  12  15
ENDBRANCH  11  12
ENDBRANCH   4  11
BRANCH   1  32
ATOM     32  C5  A9U d   1      37.664 -32.558   7.426  0.00  0.00     0.139 A 
ATOM     33  N3  A9U d   1      37.265 -31.855   8.610  0.00  0.00    -0.338 N 
ATOM     34  C4  A9U d   1      36.533 -32.738   9.418  0.00  0.00     0.063 A 
ATOM     35  H   A9U d   1      37.477 -30.881   8.827  0.00  0.00     0.167 HD
ATOM     36  C3  A9U d   1      35.841 -32.569  10.773  0.00  0.00    -0.040 A 
ATOM     37  C6  A9U d   1      36.491 -33.896   8.807  0.00  0.00     0.086 A 
ATOM     38  C2  A9U d   1      35.211 -33.587  11.320  0.00  0.00     0.034 A 
ATOM     39  H   A9U d   1      35.870 -31.607  11.284  0.00  0.00     0.088 H 
ATOM     40  C8  A9U d   1      35.166 -34.933  10.610  0.00  0.00    -0.065 A 
ATOM     41  C7  A9U d   1      35.760 -35.077   9.444  0.00  0.00    -0.052 A 
ATOM     42  H   A9U d   1      34.644 -35.774  11.065  0.00  0.00     0.085 H 
ATOM     43  H   A9U d   1      35.730 -36.039   8.933  0.00  0.00     0.087 H 
ATOM     44  N4  A9U d   1      37.239 -33.765   7.524  0.00  0.00    -0.228 NA
BRANCH  38  45
ATOM     45  C1  A9U d   1      34.516 -33.425  12.670  0.00  0.00     0.249 C 
ATOM     46  N1  A9U d   1      34.987 -32.432  13.613  0.00  0.00    -0.366 N 
ATOM     47  H   A9U d   1      34.520 -32.322  14.513  0.00  0.00     0.159 HD
ATOM     48  H   A9U d   1      35.785 -31.843  13.377  0.00  0.00     0.159 HD
ATOM     49  OAB A9U d   1      33.588 -34.109  12.946  0.00  0.00    -0.268 OA
ENDBRANCH  38  45
ENDBRANCH   1  32
TORSDOF 5
