REMARK  7 active torsions:
REMARK  status: ('A' for Active; 'I' for Inactive)
REMARK    1  A    between atoms: N10_6  and  C11_7 
REMARK    2  A    between atoms: C13_9  and  N14_10 
REMARK       I    between atoms: N14_10  and  C15_11 
REMARK    3  A    between atoms: C15_11  and  C17_13 
REMARK    4  A    between atoms: C21_17  and  N23_19 
REMARK    5  A    between atoms: C31_27  and  C32_29 
REMARK    6  A    between atoms: N31_35  and  C35_32 
REMARK    7  A    between atoms: N39_36  and  C43_40 
ROOT
ATOM      1  C11 AA0 d   1      -4.323   1.418  18.509  0.00  0.00     0.051 A 
ATOM      2  C12 AA0 d   1      -3.266   2.026  17.842  0.00  0.00    -0.030 A 
ATOM      3  C13 AA0 d   1      -3.499   2.546  16.563  0.00  0.00     0.037 A 
ATOM      4  C29 AA0 d   1      -4.761   2.472  16.007  0.00  0.00    -0.057 A 
ATOM      5  C30 AA0 d   1      -5.822   1.880  16.659  0.00  0.00    -0.073 A 
ATOM      6  C31 AA0 d   1      -5.588   1.350  17.924  0.00  0.00    -0.035 A 
ATOM      7  H3  AA0 d   1      -2.286   2.096  18.300  0.00  0.00     0.090 H 
ATOM      8  H16 AA0 d   1      -4.923   2.895  15.022  0.00  0.00     0.086 H 
ATOM      9  H17 AA0 d   1      -6.804   1.829  16.202  0.00  0.00     0.084 H 
ENDROOT
BRANCH   1  10
ATOM     10  N10 AA0 d   1      -4.136   0.901  19.827  0.00  0.00    -0.272 N 
ATOM     11  C9  AA0 d   1      -4.135   1.798  20.886  0.00  0.00     0.266 A 
ATOM     12  C33 AA0 d   1      -4.108   1.195  22.236  0.00  0.00     0.063 A 
ATOM     13  O39 AA0 d   1      -4.144   3.016  20.782  0.00  0.00    -0.267 OA
ATOM     14  C5  AA0 d   1      -4.086  -0.184  22.332  0.00  0.00     0.074 A 
ATOM     15  C34 AA0 d   1      -4.100   2.020  23.350  0.00  0.00    -0.040 A 
ATOM     16  C4  AA0 d   1      -4.052  -0.747  23.601  0.00  0.00    -0.052 A 
ATOM     17  N6  AA0 d   1      -4.088  -1.035  21.197  0.00  0.00    -0.243 NA
ATOM     18  C3  AA0 d   1      -4.047   0.081  24.715  0.00  0.00    -0.055 A 
ATOM     19  H2  AA0 d   1      -4.030  -1.824  23.721  0.00  0.00     0.087 H 
ATOM     20  C35 AA0 d   1      -4.069   1.457  24.621  0.00  0.00     0.031 A 
ATOM     21  H1  AA0 d   1      -4.025  -0.372  25.699  0.00  0.00     0.087 H 
ATOM     22  C20 AA0 d   1      -4.114  -0.460  20.029  0.00  0.00     0.074 A 
ATOM     23  H18 AA0 d   1      -4.119  -1.102  19.149  0.00  0.00     0.144 H 
ATOM     24  H22 AA0 d   1      -4.118   3.097  23.231  0.00  0.00     0.088 H 
BRANCH  20  25
ATOM     25  N31 AA0 d   1      -4.076   2.230  25.803  0.00  0.00    -0.378 N 
ATOM     26  C41 AA0 d   1      -3.446   1.601  26.971  0.00  0.00     0.018 C 
ATOM     27  C40 AA0 d   1      -2.069   2.154  27.267  0.00  0.00     0.098 C 
ATOM     28  H23 AA0 d   1      -4.088   1.769  27.849  0.00  0.00     0.066 H 
ATOM     29  H24 AA0 d   1      -3.357   0.521  26.783  0.00  0.00     0.066 H 
ATOM     30  N39 AA0 d   1      -2.073   3.641  27.131  0.00  0.00    -0.072 N 
ATOM     31  H25 AA0 d   1      -1.345   1.726  26.558  0.00  0.00     0.078 H 
ATOM     32  H26 AA0 d   1      -1.781   1.883  28.294  0.00  0.00     0.078 H 
ATOM     33  C38 AA0 d   1      -2.543   4.108  25.797  0.00  0.00     0.098 C 
ATOM     34  H27 AA0 d   1      -2.696   4.013  27.830  0.00  0.00     0.279 HD
ATOM     35  C37 AA0 d   1      -3.983   3.667  25.613  0.00  0.00     0.018 C 
ATOM     36  H28 AA0 d   1      -1.916   3.668  25.008  0.00  0.00     0.078 H 
ATOM     37  H29 AA0 d   1      -2.481   5.205  25.745  0.00  0.00     0.078 H 
ATOM     38  H30 AA0 d   1      -4.620   4.177  26.351  0.00  0.00     0.066 H 
ATOM     39  H31 AA0 d   1      -4.319   3.925  24.598  0.00  0.00     0.066 H 
BRANCH  30  40
ATOM     40  C43 AA0 d   1      -0.720   4.176  27.370  0.00  0.00     0.066 C 
ATOM     41  H32 AA0 d   1      -0.361   3.838  28.353  0.00  0.00     0.068 H 
ATOM     42  H33 AA0 d   1      -0.751   5.275  27.349  0.00  0.00     0.068 H 
ATOM     43  H34 AA0 d   1      -0.039   3.814  26.586  0.00  0.00     0.068 H 
ENDBRANCH  30  40
ENDBRANCH  20  25
ENDBRANCH   1  10
BRANCH   6  44
ATOM     44  C32 AA0 d   1      -6.740   0.707  18.628  0.00  0.00    -0.049 C 
ATOM     45  H19 AA0 d   1      -6.409   0.336  19.609  0.00  0.00     0.033 H 
ATOM     46  H20 AA0 d   1      -7.115  -0.134  18.026  0.00  0.00     0.033 H 
ATOM     47  H21 AA0 d   1      -7.543   1.445  18.767  0.00  0.00     0.033 H 
ENDBRANCH   6  44
BRANCH   3  48
ATOM     48  N14 AA0 d   1      -2.508   3.207  15.791  0.00  0.00    -0.323 N 
ATOM     49  C15 AA0 d   1      -1.151   2.903  15.811  0.00  0.00     0.256 C 
ATOM     50  O16 AA0 d   1      -0.636   2.064  16.555  0.00  0.00    -0.267 OA
ATOM     51  H4  AA0 d   1      -2.808   3.946  15.188  0.00  0.00     0.169 HD
BRANCH  49  52
ATOM     52  C17 AA0 d   1      -0.290   3.617  14.815  0.00  0.00     0.037 A 
ATOM     53  C18 AA0 d   1      -0.611   4.886  14.369  0.00  0.00    -0.051 A 
ATOM     54  C19 AA0 d   1       0.255   5.468  13.462  0.00  0.00     0.005 A 
ATOM     55  H5  AA0 d   1      -1.500   5.401  14.714  0.00  0.00     0.087 H 
ATOM     56  N20 AA0 d   1       1.380   4.882  13.000  0.00  0.00    -0.243 NA
ATOM     57  H6  AA0 d   1       0.015   6.460  13.098  0.00  0.00     0.114 H 
ATOM     58  C21 AA0 d   1       1.694   3.632  13.414  0.00  0.00     0.126 A 
ATOM     59  C22 AA0 d   1       0.861   2.995  14.338  0.00  0.00    -0.024 A 
ATOM     60  H7  AA0 d   1       1.115   2.001  14.689  0.00  0.00     0.090 H 
BRANCH  58  61
ATOM     61  N23 AA0 d   1       2.865   2.992  12.879  0.00  0.00    -0.362 N 
ATOM     62  C28 AA0 d   1       3.352   1.778  13.534  0.00  0.00     0.016 C 
ATOM     63  C27 AA0 d   1       4.410   1.046  12.705  0.00  0.00     0.034 C 
ATOM     64  H8  AA0 d   1       2.501   1.100  13.697  0.00  0.00     0.067 H 
ATOM     65  H9  AA0 d   1       3.793   2.053  14.504  0.00  0.00     0.067 H 
ATOM     66  O26 AA0 d   1       5.503   1.908  12.356  0.00  0.00    -0.388 OA
ATOM     67  H10 AA0 d   1       3.943   0.671  11.782  0.00  0.00     0.076 H 
ATOM     68  H11 AA0 d   1       4.797   0.199  13.290  0.00  0.00     0.076 H 
ATOM     69  C25 AA0 d   1       4.983   3.051  11.634  0.00  0.00     0.034 C 
ATOM     70  C24 AA0 d   1       3.956   3.863  12.435  0.00  0.00     0.016 C 
ATOM     71  H12 AA0 d   1       4.501   2.692  10.713  0.00  0.00     0.076 H 
ATOM     72  H13 AA0 d   1       5.824   3.711  11.375  0.00  0.00     0.076 H 
ATOM     73  H14 AA0 d   1       4.448   4.307  13.313  0.00  0.00     0.067 H 
ATOM     74  H15 AA0 d   1       3.548   4.663  11.799  0.00  0.00     0.067 H 
ENDBRANCH  58  61
ENDBRANCH  49  52
ENDBRANCH   3  48
TORSDOF 7
