REMARK  16 active torsions:
REMARK  status: ('A' for Active; 'I' for Inactive)
REMARK    1  A    between atoms: N_1  and  CA_2 
REMARK    2  A    between atoms: CA_2  and  C_3 
REMARK    3  A    between atoms: CA_2  and  CB_5 
REMARK       I    between atoms: C_3  and  N_13 
REMARK    4  A    between atoms: CB_5  and  CG_6 
REMARK    5  A    between atoms: CZ_11  and  OH_12 
REMARK    6  A    between atoms: N_13  and  CA_14 
REMARK    7  A    between atoms: CA_14  and  C_15 
REMARK    8  A    between atoms: CA_14  and  CB_17 
REMARK       I    between atoms: C_15  and  N_21 
REMARK    9  A    between atoms: CB_17  and  CG1_18 
REMARK   10  A    between atoms: CB_17  and  CG2_19 
REMARK   11  A    between atoms: CG1_18  and  CD1_20 
REMARK   12  A    between atoms: N_21  and  CA_22 
REMARK   13  A    between atoms: CA_22  and  C_23 
REMARK   14  A    between atoms: CA_22  and  CB_25 
REMARK       I    between atoms: C_23  and  N_31 
REMARK   15  A    between atoms: CB_25  and  CG_26 
REMARK   16  A    between atoms: CA_32  and  C_33 
REMARK       I    between atoms: C_33  and  N_38 
ROOT
ATOM      1  CA  ILE d   1     -13.275  23.319  23.246  0.00  0.00     0.092 C 
ATOM      2  H13 ILE d   1     -12.902  22.419  23.756  0.00  0.00     0.088 H 
ENDROOT
BRANCH   1   3
ATOM      3  N   ILE d   1     -12.383  23.534  22.101  0.00  0.00    -0.346 N 
ATOM      4  C   TYR d   1     -11.513  22.619  21.680  0.00  0.00     0.249 C 
ATOM      5  O   TYR d   1     -11.566  21.433  22.012  0.00  0.00    -0.271 OA
ATOM      6  H12 ILE d   1     -12.431  24.407  21.615  0.00  0.00     0.163 HD
BRANCH   4   7
ATOM      7  CA  TYR d   1     -10.439  23.133  20.709  0.00  0.00     0.179 C 
ATOM      8  H4  TYR d   1     -10.750  24.141  20.396  0.00  0.00     0.099 H 
BRANCH   7   9
ATOM      9  N   TYR d   1      -9.095  23.267  21.354  0.00  0.00    -0.066 N 
ATOM     10  H1  TYR d   1      -8.430  23.606  20.677  0.00  0.00     0.275 HD
ATOM     11  H2  TYR d   1      -8.796  22.368  21.698  0.00  0.00     0.275 HD
ATOM     12  H3  TYR d   1      -9.154  23.917  22.122  0.00  0.00     0.275 HD
ENDBRANCH   7   9
BRANCH   7  13
ATOM     13  CB  TYR d   1     -10.345  22.275  19.443  0.00  0.00    -0.006 C 
ATOM     14  H5  TYR d   1     -11.351  21.911  19.189  0.00  0.00     0.043 H 
ATOM     15  H6  TYR d   1      -9.685  21.419  19.646  0.00  0.00     0.043 H 
BRANCH  13  16
ATOM     16  CG  TYR d   1      -9.794  23.040  18.259  0.00  0.00    -0.056 A 
ATOM     17  CD1 TYR d   1      -8.422  23.105  18.020  0.00  0.00    -0.074 A 
ATOM     18  CE1 TYR d   1      -7.915  23.819  16.931  0.00  0.00    -0.051 A 
ATOM     19  H7  TYR d   1      -7.739  22.594  18.689  0.00  0.00     0.084 H 
ATOM     20  CZ  TYR d   1      -8.782  24.479  16.075  0.00  0.00     0.065 A 
ATOM     21  H9  TYR d   1      -6.846  23.857  16.756  0.00  0.00     0.087 H 
ATOM     22  CE2 TYR d   1     -10.146  24.436  16.301  0.00  0.00    -0.051 A 
ATOM     23  CD2 TYR d   1     -10.645  23.719  17.388  0.00  0.00    -0.074 A 
ATOM     24  H10 TYR d   1     -10.824  24.958  15.636  0.00  0.00     0.087 H 
ATOM     25  H8  TYR d   1     -11.715  23.689  17.559  0.00  0.00     0.084 H 
BRANCH  20  26
ATOM     26  OH  TYR d   1      -8.291  25.183  14.995  0.00  0.00    -0.361 OA
ATOM     27  H11 TYR d   1      -8.649  24.821  14.193  0.00  0.00     0.217 HD
ENDBRANCH  20  26
ENDBRANCH  13  16
ENDBRANCH   7  13
ENDBRANCH   4   7
ENDBRANCH   1   3
BRANCH   1  28
ATOM     28  C   ILE d   1     -14.749  23.038  22.898  0.00  0.00     0.241 C 
ATOM     29  O   ILE d   1     -15.217  23.350  21.797  0.00  0.00    -0.271 OA
ATOM     30  N   HIS d   1     -15.452  22.422  23.854  0.00  0.00    -0.346 N 
ATOM     31  H23 HIS d   1     -14.958  22.116  24.668  0.00  0.00     0.163 HD
BRANCH  30  32
ATOM     32  CA  HIS d   1     -16.895  22.163  23.796  0.00  0.00     0.095 C 
ATOM     33  H24 HIS d   1     -17.151  21.706  22.828  0.00  0.00     0.088 H 
BRANCH  32  34
ATOM     34  C   HIS d   1     -17.662  23.488  23.948  0.00  0.00     0.243 C 
ATOM     35  O   HIS d   1     -17.156  24.404  24.591  0.00  0.00    -0.271 OA
ATOM     36  N   PRO d   1     -18.869  23.608  23.343  0.00  0.00    -0.337 N 
ATOM     37  CA  PRO d   1     -19.674  24.830  23.532  0.00  0.00     0.091 C 
ATOM     38  CD  PRO d   1     -19.454  22.736  22.310  0.00  0.00    -0.001 C 
ATOM     39  CB  PRO d   1     -20.958  24.553  22.731  0.00  0.00    -0.036 C 
ATOM     40  H30 PRO d   1     -19.138  25.697  23.119  0.00  0.00     0.087 H 
ATOM     41  CG  PRO d   1     -20.900  23.118  22.332  0.00  0.00    -0.048 C 
ATOM     42  H31 PRO d   1     -20.997  25.195  21.839  0.00  0.00     0.036 H 
ATOM     43  H32 PRO d   1     -21.844  24.739  23.355  0.00  0.00     0.036 H 
ATOM     44  H33 PRO d   1     -21.343  22.984  21.334  0.00  0.00     0.035 H 
ATOM     45  H34 PRO d   1     -21.444  22.500  23.061  0.00  0.00     0.035 H 
ATOM     46  H35 PRO d   1     -19.321  21.674  22.566  0.00  0.00     0.064 H 
ATOM     47  H36 PRO d   1     -19.007  22.934  21.325  0.00  0.00     0.064 H 
BRANCH  37  48
ATOM     48  C   PRO d   1     -20.024  25.122  24.994  0.00  0.00     0.238 C 
ATOM     49  O   PRO d   1     -20.330  26.254  25.360  0.00  0.00    -0.271 OA
ATOM     50  N   PHE d   1     -20.010  24.238  25.845  0.00  0.00    -0.368 N 
ATOM     51  H37 PHE d   1     -20.242  24.453  26.794  0.00  0.00     0.159 HD
ATOM     52  H38 PHE d   1     -19.766  23.302  25.590  0.00  0.00     0.159 HD
ENDBRANCH  37  48
ENDBRANCH  32  34
BRANCH  32  53
ATOM     53  CB  HIS d   1     -17.256  21.192  24.930  0.00  0.00     0.004 C 
ATOM     54  H25 HIS d   1     -17.006  21.673  25.887  0.00  0.00     0.046 H 
ATOM     55  H26 HIS d   1     -16.651  20.281  24.808  0.00  0.00     0.046 H 
BRANCH  53  56
ATOM     56  CG  HIS d   1     -18.698  20.794  24.969  0.00  0.00     0.053 A 
ATOM     57  ND1 HIS d   1     -19.232  19.839  24.129  0.00  0.00    -0.247 NA
ATOM     58  CE1 HIS d   1     -20.518  19.693  24.393  0.00  0.00     0.064 A 
ATOM     59  NE2 HIS d   1     -20.838  20.514  25.378  0.00  0.00    -0.359 N 
ATOM     60  H28 HIS d   1     -21.199  19.012  23.885  0.00  0.00     0.143 H 
ATOM     61  CD2 HIS d   1     -19.716  21.209  25.761  0.00  0.00     0.002 A 
ATOM     62  H29 HIS d   1     -21.776  20.616  25.791  0.00  0.00     0.166 HD
ATOM     63  H27 HIS d   1     -19.656  21.954  26.553  0.00  0.00     0.114 H 
ENDBRANCH  53  56
ENDBRANCH  32  53
ENDBRANCH  30  32
ENDBRANCH   1  28
BRANCH   1  64
ATOM     64  CB  ILE d   1     -13.179  24.501  24.268  0.00  0.00    -0.030 C 
ATOM     65  H14 ILE d   1     -14.159  24.603  24.757  0.00  0.00     0.043 H 
BRANCH  64  66
ATOM     66  CG1 ILE d   1     -12.855  25.836  23.571  0.00  0.00    -0.063 C 
ATOM     67  H15 ILE d   1     -13.223  26.650  24.213  0.00  0.00     0.033 H 
ATOM     68  H16 ILE d   1     -13.392  25.855  22.611  0.00  0.00     0.033 H 
BRANCH  66  69
ATOM     69  CD1 ILE d   1     -11.349  26.099  23.281  0.00  0.00    -0.076 C 
ATOM     70  H20 ILE d   1     -11.236  27.074  22.785  0.00  0.00     0.027 H 
ATOM     71  H21 ILE d   1     -10.958  25.307  22.626  0.00  0.00     0.027 H 
ATOM     72  H22 ILE d   1     -10.788  26.102  24.227  0.00  0.00     0.027 H 
ENDBRANCH  66  69
ENDBRANCH  64  66
BRANCH  64  73
ATOM     73  CG2 ILE d   1     -12.145  24.205  25.339  0.00  0.00    -0.071 C 
ATOM     74  H17 ILE d   1     -12.387  23.250  25.829  0.00  0.00     0.028 H 
ATOM     75  H18 ILE d   1     -12.150  25.012  26.086  0.00  0.00     0.028 H 
ATOM     76  H19 ILE d   1     -11.149  24.138  24.878  0.00  0.00     0.028 H 
ENDBRANCH  64  73
ENDBRANCH   1  64
TORSDOF 16
