REMARK  22 active torsions:
REMARK  status: ('A' for Active; 'I' for Inactive)
REMARK    1  A    between atoms: N_1  and  CA_2 
REMARK    2  A    between atoms: CA_2  and  C_3 
REMARK    3  A    between atoms: CA_2  and  CB_5 
REMARK       I    between atoms: C_3  and  N_12 
REMARK    4  A    between atoms: CB_5  and  CG_6 
REMARK    5  A    between atoms: CG_6  and  CD_7 
REMARK    6  A    between atoms: CD_7  and  NE_8 
REMARK       I    between atoms: NE_8  and  CZ_9 
REMARK       I    between atoms: CZ_9  and  NH1_10 
REMARK    7  A    between atoms: CA_13  and  C_14 
REMARK       I    between atoms: C_14  and  N_19 
REMARK    8  A    between atoms: N_19  and  CA_20 
REMARK    9  A    between atoms: CA_20  and  C_21 
REMARK   10  A    between atoms: CA_20  and  CB_23 
REMARK       I    between atoms: C_21  and  N_28 
REMARK   11  A    between atoms: CB_23  and  CG_24 
REMARK   12  A    between atoms: CG_24  and  CD_25 
REMARK   13  A    between atoms: CD_25  and  CE_26 
REMARK   14  A    between atoms: CE_26  and  NZ_27 
REMARK   15  A    between atoms: N_28  and  CA_29 
REMARK   16  A    between atoms: CA_29  and  C_30 
REMARK   17  A    between atoms: CA_29  and  CB_32 
REMARK       I    between atoms: C_30  and  N_36 
REMARK   18  A    between atoms: CB_32  and  CG1_33 
REMARK   19  A    between atoms: CB_32  and  CG2_34 
REMARK   20  A    between atoms: CG1_33  and  CD1_35 
REMARK   21  A    between atoms: CA_37  and  C_38 
REMARK       I    between atoms: C_38  and  N_43 
REMARK   22  A    between atoms: CA_44  and  C_45 
ROOT
ATOM      1  CA  LYS d   1      25.212   2.117  13.133  0.00  0.00     0.089 C 
ATOM      2  H24 LYS d   1      26.237   2.441  13.366  0.00  0.00     0.087 H 
ENDROOT
BRANCH   1   3
ATOM      3  N   LYS d   1      24.443   3.249  12.643  0.00  0.00    -0.346 N 
ATOM      4  C   PRO d   1      25.007   4.347  12.146  0.00  0.00     0.241 C 
ATOM      5  O   PRO d   1      26.231   4.517  12.058  0.00  0.00    -0.271 OA
ATOM      6  H23 LYS d   1      23.445   3.200  12.681  0.00  0.00     0.163 HD
BRANCH   4   7
ATOM      7  CA  PRO d   1      24.034   5.421  11.668  0.00  0.00     0.091 C 
ATOM      8  N   PRO d   1      24.562   6.785  11.765  0.00  0.00    -0.337 N 
ATOM      9  C   ARG d   1      24.982   7.302  12.949  0.00  0.00     0.251 C 
ATOM     10  CD  PRO d   1      24.441   7.472  10.468  0.00  0.00    -0.001 C 
ATOM     11  O   ARG d   1      24.907   6.675  14.016  0.00  0.00    -0.271 OA
ATOM     12  CG  PRO d   1      24.539   6.338   9.493  0.00  0.00    -0.048 C 
ATOM     13  H21 PRO d   1      25.258   8.194  10.322  0.00  0.00     0.064 H 
ATOM     14  H22 PRO d   1      23.474   7.990  10.380  0.00  0.00     0.064 H 
ATOM     15  CB  PRO d   1      23.770   5.244  10.160  0.00  0.00    -0.036 C 
ATOM     16  H19 PRO d   1      24.085   6.607   8.528  0.00  0.00     0.035 H 
ATOM     17  H20 PRO d   1      25.587   6.043   9.335  0.00  0.00     0.035 H 
ATOM     18  H17 PRO d   1      22.696   5.341   9.943  0.00  0.00     0.036 H 
ATOM     19  H18 PRO d   1      24.126   4.260   9.820  0.00  0.00     0.036 H 
ATOM     20  H16 PRO d   1      23.100   5.336  12.243  0.00  0.00     0.087 H 
BRANCH   9  21
ATOM     21  CA  ARG d   1      25.560   8.730  12.945  0.00  0.00     0.176 C 
ATOM     22  H4  ARG d   1      24.944   9.347  12.274  0.00  0.00     0.099 H 
BRANCH  21  23
ATOM     23  N   ARG d   1      25.522   9.344  14.311  0.00  0.00    -0.067 N 
ATOM     24  H1  ARG d   1      25.907  10.275  14.272  0.00  0.00     0.275 HD
ATOM     25  H2  ARG d   1      26.066   8.782  14.947  0.00  0.00     0.275 HD
ATOM     26  H3  ARG d   1      24.568   9.388  14.633  0.00  0.00     0.275 HD
ENDBRANCH  21  23
BRANCH  21  27
ATOM     27  CB  ARG d   1      26.997   8.722  12.414  0.00  0.00    -0.029 C 
ATOM     28  H5  ARG d   1      27.428   7.727  12.597  0.00  0.00     0.036 H 
ATOM     29  H6  ARG d   1      27.574   9.479  12.965  0.00  0.00     0.036 H 
BRANCH  27  30
ATOM     30  CG  ARG d   1      27.107   9.027  10.919  0.00  0.00    -0.047 C 
ATOM     31  H7  ARG d   1      27.404  10.078  10.791  0.00  0.00     0.035 H 
ATOM     32  H8  ARG d   1      26.126   8.864  10.450  0.00  0.00     0.035 H 
BRANCH  30  33
ATOM     33  CD  ARG d   1      28.138   8.135  10.231  0.00  0.00     0.009 C 
ATOM     34  H9  ARG d   1      28.223   8.435   9.176  0.00  0.00     0.064 H 
ATOM     35  H10 ARG d   1      27.801   7.089  10.289  0.00  0.00     0.064 H 
BRANCH  33  36
ATOM     36  NE  ARG d   1      29.450   8.247  10.864  0.00  0.00    -0.227 N 
ATOM     37  CZ  ARG d   1      30.367   9.158  10.547  0.00  0.00     0.665 C 
ATOM     38  NH1 ARG d   1      30.130  10.049   9.588  0.00  0.00    -0.235 N 
ATOM     39  NH2 ARG d   1      31.525   9.179  11.194  0.00  0.00    -0.235 N 
ATOM     40  H12 ARG d   1      30.845  10.751   9.349  0.00  0.00     0.174 HD
ATOM     41  H13 ARG d   1      29.231  10.037   9.085  0.00  0.00     0.174 HD
ATOM     42  H14 ARG d   1      31.712   8.491  11.937  0.00  0.00     0.174 HD
ATOM     43  H15 ARG d   1      32.237   9.883  10.953  0.00  0.00     0.174 HD
ATOM     44  H11 ARG d   1      29.682   7.573  11.608  0.00  0.00     0.177 HD
ENDBRANCH  33  36
ENDBRANCH  30  33
ENDBRANCH  27  30
ENDBRANCH  21  27
ENDBRANCH   9  21
ENDBRANCH   4   7
ENDBRANCH   1   3
BRANCH   1  45
ATOM     45  C   LYS d   1      25.247   1.048  12.049  0.00  0.00     0.241 C 
ATOM     46  O   LYS d   1      24.198   0.637  11.552  0.00  0.00    -0.271 OA
ATOM     47  N   ILE d   1      26.447   0.592  11.700  0.00  0.00    -0.346 N 
ATOM     48  H36 ILE d   1      27.239   0.841  12.257  0.00  0.00     0.163 HD
BRANCH  47  49
ATOM     49  CA  ILE d   1      26.646  -0.264  10.525  0.00  0.00     0.092 C 
ATOM     50  H37 ILE d   1      25.648  -0.524  10.144  0.00  0.00     0.088 H 
BRANCH  49  51
ATOM     51  C   ILE d   1      27.365  -1.595  10.848  0.00  0.00     0.243 C 
ATOM     52  O   ILE d   1      28.068  -1.686  11.858  0.00  0.00    -0.271 OA
ATOM     53  N   PRO d   1      27.194  -2.632   9.997  0.00  0.00    -0.337 N 
ATOM     54  CA  PRO d   1      27.896  -3.891  10.248  0.00  0.00     0.092 C 
ATOM     55  CD  PRO d   1      26.452  -2.681   8.727  0.00  0.00    -0.001 C 
ATOM     56  CB  PRO d   1      27.310  -4.852   9.194  0.00  0.00    -0.036 C 
ATOM     57  H47 PRO d   1      27.710  -4.252  11.270  0.00  0.00     0.087 H 
ATOM     58  CG  PRO d   1      26.191  -4.132   8.549  0.00  0.00    -0.048 C 
ATOM     59  H48 PRO d   1      26.944  -5.769   9.678  0.00  0.00     0.036 H 
ATOM     60  H49 PRO d   1      28.076  -5.111   8.448  0.00  0.00     0.036 H 
ATOM     61  H50 PRO d   1      25.239  -4.407   9.027  0.00  0.00     0.035 H 
ATOM     62  H51 PRO d   1      26.149  -4.380   7.478  0.00  0.00     0.035 H 
ATOM     63  H52 PRO d   1      27.058  -2.284   7.899  0.00  0.00     0.064 H 
ATOM     64  H53 PRO d   1      25.511  -2.116   8.797  0.00  0.00     0.064 H 
BRANCH  54  65
ATOM     65  C   PRO d   1      29.398  -3.739  10.011  0.00  0.00     0.243 C 
ATOM     66  O   PRO d   1      29.814  -2.778   9.350  0.00  0.00    -0.271 OA
ATOM     67  N   PRO d   1      30.211  -4.670  10.551  0.00  0.00    -0.336 N 
ATOM     68  CA  PRO d   1      31.650  -4.652  10.302  0.00  0.00     0.098 C 
ATOM     69  CD  PRO d   1      29.844  -5.727  11.509  0.00  0.00    -0.001 C 
ATOM     70  CB  PRO d   1      32.164  -5.863  11.087  0.00  0.00    -0.035 C 
ATOM     71  H54 PRO d   1      32.098  -3.718  10.673  0.00  0.00     0.089 H 
ATOM     72  CG  PRO d   1      30.973  -6.683  11.391  0.00  0.00    -0.048 C 
ATOM     73  H55 PRO d   1      32.652  -5.537  12.018  0.00  0.00     0.036 H 
ATOM     74  H56 PRO d   1      32.879  -6.437  10.480  0.00  0.00     0.036 H 
ATOM     75  H57 PRO d   1      31.114  -7.228  12.336  0.00  0.00     0.035 H 
ATOM     76  H58 PRO d   1      30.784  -7.400  10.579  0.00  0.00     0.035 H 
ATOM     77  H59 PRO d   1      28.892  -6.202  11.230  0.00  0.00     0.064 H 
ATOM     78  H60 PRO d   1      29.769  -5.327  12.531  0.00  0.00     0.064 H 
BRANCH  68  79
ATOM     79  C   PRO d   1      31.976  -4.819   8.820  0.00  0.00     0.196 C 
ATOM     80  O   PRO d   1      33.081  -4.505   8.397  0.00  0.00    -0.646 OA
ATOM     81  OXT PRO d   1      31.149  -5.265   8.023  0.00  0.00    -0.646 OA
ENDBRANCH  68  79
ENDBRANCH  54  65
ENDBRANCH  49  51
BRANCH  49  82
ATOM     82  CB  ILE d   1      27.387   0.517   9.399  0.00  0.00    -0.030 C 
ATOM     83  H38 ILE d   1      27.439  -0.130   8.511  0.00  0.00     0.043 H 
BRANCH  82  84
ATOM     84  CG1 ILE d   1      28.817   0.871   9.818  0.00  0.00    -0.063 C 
ATOM     85  H39 ILE d   1      29.320  -0.051  10.145  0.00  0.00     0.033 H 
ATOM     86  H40 ILE d   1      28.767   1.579  10.658  0.00  0.00     0.033 H 
BRANCH  84  87
ATOM     87  CD1 ILE d   1      29.641   1.498   8.716  0.00  0.00    -0.076 C 
ATOM     88  H44 ILE d   1      30.649   1.722   9.094  0.00  0.00     0.027 H 
ATOM     89  H45 ILE d   1      29.160   2.429   8.383  0.00  0.00     0.027 H 
ATOM     90  H46 ILE d   1      29.713   0.799   7.870  0.00  0.00     0.027 H 
ENDBRANCH  84  87
ENDBRANCH  82  84
BRANCH  82  91
ATOM     91  CG2 ILE d   1      26.617   1.788   9.024  0.00  0.00    -0.071 C 
ATOM     92  H41 ILE d   1      25.593   1.521   8.725  0.00  0.00     0.028 H 
ATOM     93  H42 ILE d   1      27.124   2.290   8.187  0.00  0.00     0.028 H 
ATOM     94  H43 ILE d   1      26.582   2.465   9.891  0.00  0.00     0.028 H 
ENDBRANCH  82  91
ENDBRANCH  49  82
ENDBRANCH  47  49
ENDBRANCH   1  45
BRANCH   1  95
ATOM     95  CB  LYS d   1      24.562   1.554  14.392  0.00  0.00    -0.038 C 
ATOM     96  H25 LYS d   1      25.258   0.826  14.835  0.00  0.00     0.036 H 
ATOM     97  H26 LYS d   1      23.636   1.041  14.094  0.00  0.00     0.036 H 
BRANCH  95  98
ATOM     98  CG  LYS d   1      24.206   2.575  15.467  0.00  0.00    -0.061 C 
ATOM     99  H27 LYS d   1      23.246   2.293  15.925  0.00  0.00     0.033 H 
ATOM    100  H28 LYS d   1      24.113   3.567  15.002  0.00  0.00     0.033 H 
BRANCH  98 101
ATOM    101  CD  LYS d   1      25.270   2.634  16.548  0.00  0.00    -0.043 C 
ATOM    102  H29 LYS d   1      25.853   1.701  16.523  0.00  0.00     0.035 H 
ATOM    103  H30 LYS d   1      24.777   2.732  17.526  0.00  0.00     0.035 H 
BRANCH 101 104
ATOM    104  CE  LYS d   1      26.206   3.796  16.358  0.00  0.00     0.080 C 
ATOM    105  H31 LYS d   1      26.388   3.938  15.283  0.00  0.00     0.075 H 
ATOM    106  H32 LYS d   1      27.157   3.577  16.865  0.00  0.00     0.075 H 
BRANCH 104 107
ATOM    107  NZ  LYS d   1      25.634   5.043  16.921  0.00  0.00    -0.079 N 
ATOM    108  H33 LYS d   1      26.281   5.803  16.780  0.00  0.00     0.274 HD
ATOM    109  H34 LYS d   1      25.469   4.921  17.908  0.00  0.00     0.274 HD
ATOM    110  H35 LYS d   1      24.764   5.252  16.458  0.00  0.00     0.274 HD
ENDBRANCH 104 107
ENDBRANCH 101 104
ENDBRANCH  98 101
ENDBRANCH  95  98
ENDBRANCH   1  95
TORSDOF 22
