REMARK  6 active torsions:
REMARK  status: ('A' for Active; 'I' for Inactive)
REMARK    1  A    between atoms: C1_1  and  N2_2 
REMARK    2  A    between atoms: N5_5  and  C8_8 
REMARK    3  A    between atoms: N14_14  and  C15_15 
REMARK    4  A    between atoms: C17_17  and  N18_18 
REMARK       I    between atoms: N18_18  and  C19_19 
REMARK    5  A    between atoms: C19_19  and  C21_21 
REMARK    6  A    between atoms: C28_28  and  C29_29 
ROOT
ATOM      1  C8  QC0 d   1      -2.810   1.654  24.192  0.00  0.00     0.011 A 
ATOM      2  C9  QC0 d   1      -2.752   0.242  24.308  0.00  0.00    -0.060 A 
ATOM      3  C10 QC0 d   1      -2.894  -0.577  23.211  0.00  0.00    -0.052 A 
ATOM      4  C11 QC0 d   1      -3.098   0.022  21.945  0.00  0.00     0.074 A 
ATOM      5  N12 QC0 d   1      -3.200  -0.729  20.805  0.00  0.00    -0.243 NA
ATOM      6  C13 QC0 d   1      -3.415  -0.236  19.604  0.00  0.00     0.074 A 
ATOM      7  N14 QC0 d   1      -3.537   1.124  19.410  0.00  0.00    -0.272 N 
ATOM      8  C30 QC0 d   1      -3.408   2.002  20.463  0.00  0.00     0.266 A 
ATOM      9  C32 QC0 d   1      -3.182   1.445  21.828  0.00  0.00     0.063 A 
ATOM     10  C31 QC0 d   1      -3.037   2.251  22.943  0.00  0.00    -0.045 A 
ATOM     11  O31 QC0 d   1      -3.478   3.207  20.263  0.00  0.00    -0.267 OA
ATOM     12  H13 QC0 d   1      -2.592  -0.203  25.284  0.00  0.00     0.086 H 
ATOM     13  H14 QC0 d   1      -2.851  -1.655  23.314  0.00  0.00     0.087 H 
ATOM     14  H15 QC0 d   1      -3.498  -0.910  18.753  0.00  0.00     0.144 H 
ATOM     15  H26 QC0 d   1      -3.098   3.329  22.853  0.00  0.00     0.087 H 
ENDROOT
BRANCH   7  16
ATOM     16  C15 QC0 d   1      -3.855   1.679  18.154  0.00  0.00     0.051 A 
ATOM     17  C16 QC0 d   1      -2.958   2.233  17.247  0.00  0.00    -0.030 A 
ATOM     18  C17 QC0 d   1      -3.482   2.773  16.052  0.00  0.00     0.037 A 
ATOM     19  H16 QC0 d   1      -1.893   2.250  17.450  0.00  0.00     0.090 H 
ATOM     20  C26 QC0 d   1      -4.852   2.734  15.745  0.00  0.00    -0.057 A 
ATOM     21  C27 QC0 d   1      -5.720   2.135  16.644  0.00  0.00    -0.073 A 
ATOM     22  H21 QC0 d   1      -5.223   3.164  14.822  0.00  0.00     0.086 H 
ATOM     23  C28 QC0 d   1      -5.222   1.630  17.851  0.00  0.00    -0.035 A 
ATOM     24  H22 QC0 d   1      -6.777   2.058  16.414  0.00  0.00     0.084 H 
BRANCH  18  25
ATOM     25  N18 QC0 d   1      -2.652   3.342  15.077  0.00  0.00    -0.323 N 
ATOM     26  C19 QC0 d   1      -1.363   2.984  14.912  0.00  0.00     0.258 C 
ATOM     27  O20 QC0 d   1      -0.753   2.159  15.578  0.00  0.00    -0.267 OA
ATOM     28  H17 QC0 d   1      -3.033   4.045  14.477  0.00  0.00     0.169 HD
BRANCH  26  29
ATOM     29  C21 QC0 d   1      -0.720   3.659  13.799  0.00  0.00     0.056 A 
ATOM     30  C22 QC0 d   1       0.368   3.115  12.960  0.00  0.00    -0.044 A 
ATOM     31  C23 QC0 d   1       0.531   4.110  12.058  0.00  0.00     0.019 A 
ATOM     32  H18 QC0 d   1       0.897   2.167  13.045  0.00  0.00     0.088 H 
ATOM     33  O24 QC0 d   1      -0.327   5.151  12.307  0.00  0.00    -0.334 OA
ATOM     34  H19 QC0 d   1       1.250   4.088  11.240  0.00  0.00     0.123 H 
ATOM     35  C25 QC0 d   1      -1.088   4.894  13.338  0.00  0.00     0.033 A 
ATOM     36  H20 QC0 d   1      -1.864   5.537  13.750  0.00  0.00     0.125 H 
ENDBRANCH  26  29
ENDBRANCH  18  25
BRANCH  23  37
ATOM     37  C29 QC0 d   1      -6.275   1.014  18.778  0.00  0.00    -0.049 C 
ATOM     38  H23 QC0 d   1      -5.788   0.648  19.694  0.00  0.00     0.033 H 
ATOM     39  H24 QC0 d   1      -6.769   0.175  18.265  0.00  0.00     0.033 H 
ATOM     40  H25 QC0 d   1      -7.024   1.776  19.040  0.00  0.00     0.033 H 
ENDBRANCH  23  37
ENDBRANCH   7  16
BRANCH   1  41
ATOM     41  N5  QC0 d   1      -2.696   2.425  25.366  0.00  0.00    -0.280 NA
ATOM     42  C4  QC0 d   1      -1.778   1.782  26.335  0.00  0.00     0.006 C 
ATOM     43  C3  QC0 d   1      -1.815   2.548  27.668  0.00  0.00     0.094 C 
ATOM     44  H7  QC0 d   1      -2.093   0.741  26.502  0.00  0.00     0.058 H 
ATOM     45  H8  QC0 d   1      -0.754   1.796  25.933  0.00  0.00     0.058 H 
ATOM     46  N2  QC0 d   1      -1.504   3.993  27.469  0.00  0.00    -0.073 N 
ATOM     47  H5  QC0 d   1      -2.819   2.454  28.108  0.00  0.00     0.077 H 
ATOM     48  H6  QC0 d   1      -1.073   2.112  28.353  0.00  0.00     0.077 H 
ATOM     49  C7  QC0 d   1      -2.484   4.583  26.521  0.00  0.00     0.094 C 
ATOM     50  H4  QC0 d   1      -0.571   4.088  27.098  0.00  0.00     0.279 HD
ATOM     51  C6  QC0 d   1      -2.377   3.858  25.168  0.00  0.00     0.006 C 
ATOM     52  H11 QC0 d   1      -2.266   5.652  26.384  0.00  0.00     0.077 H 
ATOM     53  H12 QC0 d   1      -3.501   4.465  26.922  0.00  0.00     0.077 H 
ATOM     54  H9  QC0 d   1      -3.089   4.300  24.455  0.00  0.00     0.058 H 
ATOM     55  H10 QC0 d   1      -1.354   3.958  24.775  0.00  0.00     0.058 H 
BRANCH  46  56
ATOM     56  C1  QC0 d   1      -1.605   4.727  28.774  0.00  0.00     0.066 C 
ATOM     57  H1  QC0 d   1      -0.885   4.303  29.490  0.00  0.00     0.068 H 
ATOM     58  H2  QC0 d   1      -2.624   4.624  29.175  0.00  0.00     0.068 H 
ATOM     59  H3  QC0 d   1      -1.379   5.792  28.614  0.00  0.00     0.068 H 
ENDBRANCH  46  56
ENDBRANCH   1  41
TORSDOF 6
