REMARK  6 active torsions:
REMARK  status: ('A' for Active; 'I' for Inactive)
REMARK    1  A    between atoms: N3_17  and  C8_3 
REMARK    2  A    between atoms: C10_5  and  N5_29 
REMARK    3  A    between atoms: C15_9  and  C19_11 
REMARK       I    between atoms: C19_11  and  N32_31 
REMARK    4  A    between atoms: N32_31  and  C20_12 
REMARK    5  A    between atoms: N29_15  and  C13_24 
REMARK    6  A    between atoms: C18_21  and  C23_22 
ROOT
ATOM      1  C9  NQB d   1      -2.913   1.597  22.700  0.00  0.00    -0.040 A 
ATOM      2  C10 NQB d   1      -2.710   0.973  23.954  0.00  0.00     0.031 A 
ATOM      3  C11 NQB d   1      -2.741  -0.437  23.967  0.00  0.00    -0.055 A 
ATOM      4  C12 NQB d   1      -2.934  -1.215  22.817  0.00  0.00    -0.052 A 
ATOM      5  N29 NQB d   1      -3.392   0.529  19.127  0.00  0.00    -0.272 N 
ATOM      6  C30 NQB d   1      -3.274   1.428  20.182  0.00  0.00     0.266 A 
ATOM      7  C25 NQB d   1      -3.098   0.821  21.529  0.00  0.00     0.063 A 
ATOM      8  C26 NQB d   1      -3.111  -0.593  21.590  0.00  0.00     0.074 A 
ATOM      9  N27 NQB d   1      -3.285  -1.415  20.492  0.00  0.00    -0.243 NA
ATOM     10  C28 NQB d   1      -3.400  -0.837  19.348  0.00  0.00     0.074 A 
ATOM     11  O29 NQB d   1      -3.242   2.622  20.066  0.00  0.00    -0.267 OA
ATOM     12  H8  NQB d   1      -2.927   2.679  22.635  0.00  0.00     0.088 H 
ATOM     13  H9  NQB d   1      -2.609  -0.945  24.915  0.00  0.00     0.087 H 
ATOM     14  H10 NQB d   1      -2.945  -2.297  22.886  0.00  0.00     0.087 H 
ATOM     15  H27 NQB d   1      -3.514  -1.480  18.476  0.00  0.00     0.144 H 
ENDROOT
BRANCH   5  16
ATOM     16  C13 NQB d   1      -3.577   1.011  17.807  0.00  0.00     0.050 A 
ATOM     17  C14 NQB d   1      -2.494   1.395  17.006  0.00  0.00    -0.041 A 
ATOM     18  C15 NQB d   1      -2.719   1.948  15.726  0.00  0.00     0.034 A 
ATOM     19  H11 NQB d   1      -1.481   1.267  17.369  0.00  0.00     0.088 H 
ATOM     20  C16 NQB d   1      -4.053   2.067  15.241  0.00  0.00    -0.067 A 
ATOM     21  C17 NQB d   1      -5.112   1.692  16.056  0.00  0.00    -0.074 A 
ATOM     22  H12 NQB d   1      -4.240   2.447  14.243  0.00  0.00     0.085 H 
ATOM     23  C18 NQB d   1      -4.901   1.166  17.350  0.00  0.00    -0.035 A 
ATOM     24  H23 NQB d   1      -6.126   1.806  15.691  0.00  0.00     0.084 H 
BRANCH  18  25
ATOM     25  C19 NQB d   1      -1.493   2.291  14.938  0.00  0.00     0.252 C 
ATOM     26  O24 NQB d   1      -0.479   1.773  15.302  0.00  0.00    -0.268 OA
ATOM     27  N32 NQB d   1      -1.561   3.111  13.835  0.00  0.00    -0.352 N 
ATOM     28  H28 NQB d   1      -2.464   3.477  13.609  0.00  0.00     0.163 HD
BRANCH  27  29
ATOM     29  C20 NQB d   1      -0.481   3.500  12.972  0.00  0.00     0.012 A 
ATOM     30  C21 NQB d   1      -0.600   3.254  11.487  0.00  0.00    -0.044 A 
ATOM     31  C22 NQB d   1       0.379   2.476  12.329  0.00  0.00    -0.044 A 
ATOM     32  H14 NQB d   1      -0.238   4.006  10.771  0.00  0.00     0.036 H 
ATOM     33  H15 NQB d   1      -1.493   2.759  11.078  0.00  0.00     0.036 H 
ATOM     34  H16 NQB d   1       0.203   1.409  12.529  0.00  0.00     0.036 H 
ATOM     35  H17 NQB d   1       1.459   2.656  12.221  0.00  0.00     0.036 H 
ATOM     36  H13 NQB d   1      -0.033   4.433  13.343  0.00  0.00     0.072 H 
ENDBRANCH  27  29
ENDBRANCH  18  25
BRANCH  23  37
ATOM     37  C23 NQB d   1      -6.052   0.747  18.210  0.00  0.00    -0.049 C 
ATOM     38  H24 NQB d   1      -6.996   0.947  17.682  0.00  0.00     0.033 H 
ATOM     39  H25 NQB d   1      -6.032   1.315  19.152  0.00  0.00     0.033 H 
ATOM     40  H26 NQB d   1      -5.974  -0.328  18.428  0.00  0.00     0.033 H 
ENDBRANCH  23  37
ENDBRANCH   5  16
BRANCH   2  41
ATOM     41  N5  NQB d   1      -2.497   1.722  25.167  0.00  0.00    -0.378 N 
ATOM     42  C1  NQB d   1      -1.888   0.978  26.339  0.00  0.00     0.018 C 
ATOM     43  C2  NQB d   1      -1.051   1.838  27.307  0.00  0.00     0.098 C 
ATOM     44  H1  NQB d   1      -2.707   0.521  26.913  0.00  0.00     0.066 H 
ATOM     45  H2  NQB d   1      -1.236   0.188  25.938  0.00  0.00     0.066 H 
ATOM     46  N3  NQB d   1      -1.719   3.128  27.627  0.00  0.00    -0.072 N 
ATOM     47  H3  NQB d   1      -0.076   2.049  26.843  0.00  0.00     0.078 H 
ATOM     48  H4  NQB d   1      -0.899   1.276  28.240  0.00  0.00     0.078 H 
ATOM     49  C4  NQB d   1      -1.814   3.939  26.401  0.00  0.00     0.098 C 
ATOM     50  H18 NQB d   1      -2.656   2.910  27.927  0.00  0.00     0.279 HD
ATOM     51  C5  NQB d   1      -2.438   3.222  25.155  0.00  0.00     0.018 C 
ATOM     52  H19 NQB d   1      -0.798   4.262  26.131  0.00  0.00     0.078 H 
ATOM     53  H20 NQB d   1      -2.431   4.821  26.627  0.00  0.00     0.078 H 
ATOM     54  H21 NQB d   1      -1.848   3.520  24.276  0.00  0.00     0.066 H 
ATOM     55  H22 NQB d   1      -3.469   3.590  25.047  0.00  0.00     0.066 H 
BRANCH  46  56
ATOM     56  C8  NQB d   1      -1.095   3.889  28.712  0.00  0.00     0.066 C 
ATOM     57  H5  NQB d   1      -1.655   4.822  28.875  0.00  0.00     0.068 H 
ATOM     58  H6  NQB d   1      -0.056   4.128  28.442  0.00  0.00     0.068 H 
ATOM     59  H7  NQB d   1      -1.105   3.289  29.634  0.00  0.00     0.068 H 
ENDBRANCH  46  56
ENDBRANCH   2  41
TORSDOF 6
