REMARK  9 active torsions:
REMARK  status: ('A' for Active; 'I' for Inactive)
REMARK    1  A    between atoms: C1_1  and  O2_2 
REMARK    2  A    between atoms: O2_2  and  C3_3 
REMARK    3  A    between atoms: C5_5  and  O6_6 
REMARK    4  A    between atoms: O6_6  and  C7_7 
REMARK    5  A    between atoms: C8_8  and  S15_15 
REMARK    6  A    between atoms: C10_10  and  N11_11 
REMARK       I    between atoms: N11_11  and  C12_12 
REMARK    7  A    between atoms: C12_12  and  C14_14 
REMARK    8  A    between atoms: S15_15  and  N18_18 
REMARK    9  A    between atoms: C19_19  and  C20_20 
ROOT
ATOM      1  C3  R82 d   1      46.232   9.427  16.359  0.00  0.00     0.097 A 
ATOM      2  C4  R82 d   1      46.103   8.977  17.680  0.00  0.00    -0.015 A 
ATOM      3  C5  R82 d   1      46.452   9.822  18.777  0.00  0.00     0.094 A 
ATOM      4  C8  R82 d   1      46.901  11.151  18.523  0.00  0.00     0.115 A 
ATOM      5  C9  R82 d   1      47.023  11.575  17.169  0.00  0.00    -0.029 A 
ATOM      6  C10 R82 d   1      46.648  10.744  16.085  0.00  0.00     0.070 A 
ATOM      7  H4  R82 d   1      45.734   7.976  17.871  0.00  0.00     0.092 H 
ATOM      8  H8  R82 d   1      47.415  12.564  16.962  0.00  0.00     0.089 H 
ENDROOT
BRANCH   4   9
ATOM      9  S15 R82 d   1      47.419  12.262  19.866  0.00  0.00     0.268 S 
ATOM     10  O16 R82 d   1      46.379  12.418  20.860  0.00  0.00    -0.200 OA
ATOM     11  O17 R82 d   1      48.018  13.348  19.180  0.00  0.00    -0.200 OA
BRANCH   9  12
ATOM     12  N18 R82 d   1      48.662  11.385  20.519  0.00  0.00    -0.267 N 
ATOM     13  C19 R82 d   1      48.660  10.802  21.895  0.00  0.00     0.028 C 
ATOM     14  C21 R82 d   1      49.285   9.396  21.687  0.00  0.00    -0.019 C 
ATOM     15  H13 R82 d   1      47.611  10.668  22.198  0.00  0.00     0.074 H 
ATOM     16  C22 R82 d   1      49.991   9.499  20.356  0.00  0.00    -0.029 A 
ATOM     17  H17 R82 d   1      48.504   8.622  21.655  0.00  0.00     0.043 H 
ATOM     18  H18 R82 d   1      49.999   9.164  22.491  0.00  0.00     0.043 H 
ATOM     19  C23 R82 d   1      50.869   8.601  19.753  0.00  0.00    -0.075 A 
ATOM     20  C27 R82 d   1      49.645  10.750  19.754  0.00  0.00     0.052 A 
ATOM     21  C24 R82 d   1      51.395   8.968  18.531  0.00  0.00    -0.082 A 
ATOM     22  H19 R82 d   1      51.127   7.658  20.222  0.00  0.00     0.084 H 
ATOM     23  C25 R82 d   1      51.073  10.175  17.913  0.00  0.00    -0.081 A 
ATOM     24  H20 R82 d   1      52.083   8.293  18.034  0.00  0.00     0.083 H 
ATOM     25  C26 R82 d   1      50.186  11.074  18.491  0.00  0.00    -0.056 A 
ATOM     26  H21 R82 d   1      51.526  10.418  16.958  0.00  0.00     0.083 H 
ATOM     27  H22 R82 d   1      49.917  11.996  17.988  0.00  0.00     0.087 H 
BRANCH  13  28
ATOM     28  C20 R82 d   1      49.300  11.631  23.008  0.00  0.00    -0.056 C 
ATOM     29  H14 R82 d   1      49.228  11.085  23.960  0.00  0.00     0.030 H 
ATOM     30  H15 R82 d   1      48.775  12.593  23.097  0.00  0.00     0.030 H 
ATOM     31  H16 R82 d   1      50.358  11.812  22.768  0.00  0.00     0.030 H 
ENDBRANCH  13  28
ENDBRANCH   9  12
ENDBRANCH   4   9
BRANCH   3  32
ATOM     32  O6  R82 d   1      46.336   9.387  20.122  0.00  0.00    -0.354 OA
BRANCH  32  33
ATOM     33  C7  R82 d   1      45.861   8.069  20.410  0.00  0.00     0.010 C 
ATOM     34  H5  R82 d   1      45.840   7.917  21.499  0.00  0.00     0.066 H 
ATOM     35  H6  R82 d   1      46.531   7.329  19.949  0.00  0.00     0.066 H 
ATOM     36  H7  R82 d   1      44.846   7.948  20.004  0.00  0.00     0.066 H 
ENDBRANCH  32  33
ENDBRANCH   3  32
BRANCH   6  37
ATOM     37  N11 R82 d   1      46.773  11.196  14.705  0.00  0.00    -0.325 N 
ATOM     38  C12 R82 d   1      46.767  12.496  14.275  0.00  0.00     0.218 C 
ATOM     39  O13 R82 d   1      46.577  13.500  14.986  0.00  0.00    -0.274 OA
ATOM     40  H9  R82 d   1      46.873  10.489  14.005  0.00  0.00     0.169 HD
BRANCH  38  41
ATOM     41  C14 R82 d   1      47.002  12.706  12.803  0.00  0.00    -0.003 C 
ATOM     42  H10 R82 d   1      46.975  13.782  12.577  0.00  0.00     0.040 H 
ATOM     43  H11 R82 d   1      46.217  12.191  12.229  0.00  0.00     0.040 H 
ATOM     44  H12 R82 d   1      47.985  12.298  12.527  0.00  0.00     0.040 H 
ENDBRANCH  38  41
ENDBRANCH   6  37
BRANCH   1  45
ATOM     45  O2  R82 d   1      45.910   8.605  15.317  0.00  0.00    -0.354 OA
BRANCH  45  46
ATOM     46  C1  R82 d   1      45.151   7.441  15.754  0.00  0.00     0.010 C 
ATOM     47  H1  R82 d   1      44.915   6.810  14.885  0.00  0.00     0.066 H 
ATOM     48  H2  R82 d   1      44.217   7.771  16.232  0.00  0.00     0.066 H 
ATOM     49  H3  R82 d   1      45.748   6.863  16.475  0.00  0.00     0.066 H 
ENDBRANCH  45  46
ENDBRANCH   1  45
TORSDOF 9
