REMARK  6 active torsions:
REMARK  status: ('A' for Active; 'I' for Inactive)
REMARK    1  A    between atoms: N2_2  and  C1_1 
REMARK    2  A    between atoms: C8_8  and  N5_5 
REMARK    3  A    between atoms: C15_15  and  N14_14 
REMARK    4  A    between atoms: C19_19  and  C17_17 
REMARK       I    between atoms: N18_18  and  C19_19 
REMARK    5  A    between atoms: C25_24  and  N18_18 
REMARK    6  A    between atoms: C28_27  and  C29_28 
ROOT
ATOM      1  C8  AAV d   1      -2.805   1.225  24.312  0.00  0.00     0.011 A 
ATOM      2  C9  AAV d   1      -2.824  -0.185  24.425  0.00  0.00    -0.060 A 
ATOM      3  C10 AAV d   1      -2.961  -1.010  23.336  0.00  0.00    -0.052 A 
ATOM      4  C11 AAV d   1      -3.064  -0.416  22.071  0.00  0.00     0.074 A 
ATOM      5  N12 AAV d   1      -3.207  -1.190  20.955  0.00  0.00    -0.243 NA
ATOM      6  C13 AAV d   1      -3.393  -0.673  19.769  0.00  0.00     0.074 A 
ATOM      7  N14 AAV d   1      -3.399   0.683  19.560  0.00  0.00    -0.272 N 
ATOM      8  C30 AAV d   1      -3.203   1.565  20.584  0.00  0.00     0.266 A 
ATOM      9  C31 AAV d   1      -2.928   1.828  23.055  0.00  0.00    -0.045 A 
ATOM     10  O31 AAV d   1      -3.206   2.773  20.391  0.00  0.00    -0.267 OA
ATOM     11  C32 AAV d   1      -3.043   1.006  21.940  0.00  0.00     0.063 A 
ATOM     12  H13 AAV d   1      -2.727  -0.631  25.408  0.00  0.00     0.086 H 
ATOM     13  H14 AAV d   1      -2.989  -2.087  23.451  0.00  0.00     0.087 H 
ATOM     14  H15 AAV d   1      -3.548  -1.339  18.921  0.00  0.00     0.144 H 
ATOM     15  H25 AAV d   1      -2.933   2.907  22.954  0.00  0.00     0.087 H 
ENDROOT
BRANCH   7  16
ATOM     16  C15 AAV d   1      -3.603   1.190  18.276  0.00  0.00     0.050 A 
ATOM     17  C16 AAV d   1      -2.529   1.586  17.471  0.00  0.00    -0.041 A 
ATOM     18  C17 AAV d   1      -2.786   2.100  16.195  0.00  0.00     0.034 A 
ATOM     19  H16 AAV d   1      -1.511   1.496  17.831  0.00  0.00     0.088 H 
ATOM     20  C26 AAV d   1      -4.128   2.200  15.803  0.00  0.00    -0.067 A 
ATOM     21  C27 AAV d   1      -5.186   1.853  16.617  0.00  0.00    -0.074 A 
ATOM     22  H20 AAV d   1      -4.346   2.570  14.807  0.00  0.00     0.085 H 
ATOM     23  C28 AAV d   1      -4.934   1.323  17.857  0.00  0.00    -0.035 A 
ATOM     24  H21 AAV d   1      -6.206   1.998  16.280  0.00  0.00     0.084 H 
BRANCH  18  25
ATOM     25  C19 AAV d   1      -1.760   2.528  15.191  0.00  0.00     0.257 C 
ATOM     26  N18 AAV d   1      -2.181   3.272  14.169  0.00  0.00    -0.306 N 
ATOM     27  H17 AAV d   1      -3.140   3.548  14.112  0.00  0.00     0.170 HD
ATOM     28  O20 AAV d   1      -0.574   2.213  15.187  0.00  0.00    -0.267 OA
BRANCH  26  29
ATOM     29  C25 AAV d   1      -1.271   3.668  13.170  0.00  0.00     0.159 A 
ATOM     30  C22 AAV d   1      -1.322   4.851  12.390  0.00  0.00    -0.013 A 
ATOM     31  C23 AAV d   1      -0.253   4.739  11.559  0.00  0.00     0.047 A 
ATOM     32  H18 AAV d   1      -2.049   5.660  12.444  0.00  0.00     0.092 H 
ATOM     33  O24 AAV d   1       0.353   3.568  11.835  0.00  0.00    -0.224 OA
ATOM     34  H19 AAV d   1       0.057   5.463  10.807  0.00  0.00     0.127 H 
ATOM     35  N29 AAV d   1      -0.222   2.980  12.737  0.00  0.00    -0.111 NA
ENDBRANCH  26  29
ENDBRANCH  18  25
BRANCH  23  36
ATOM     36  C29 AAV d   1      -6.127   0.928  18.710  0.00  0.00    -0.049 C 
ATOM     37  H22 AAV d   1      -5.774   0.522  19.669  0.00  0.00     0.033 H 
ATOM     38  H23 AAV d   1      -6.717   0.164  18.183  0.00  0.00     0.033 H 
ATOM     39  H24 AAV d   1      -6.754   1.812  18.895  0.00  0.00     0.033 H 
ENDBRANCH  23  36
ENDBRANCH   7  16
BRANCH   1  40
ATOM     40  N5  AAV d   1      -2.690   2.001  25.485  0.00  0.00    -0.280 NA
ATOM     41  C4  AAV d   1      -1.682   1.390  26.392  0.00  0.00     0.006 C 
ATOM     42  C3  AAV d   1      -1.547   2.163  27.719  0.00  0.00     0.094 C 
ATOM     43  H7  AAV d   1      -1.986   0.356  26.614  0.00  0.00     0.058 H 
ATOM     44  H8  AAV d   1      -0.706   1.385  25.884  0.00  0.00     0.058 H 
ATOM     45  N2  AAV d   1      -1.339   3.625  27.434  0.00  0.00    -0.073 N 
ATOM     46  H5  AAV d   1      -2.464   2.033  28.313  0.00  0.00     0.077 H 
ATOM     47  H6  AAV d   1      -0.686   1.774  28.283  0.00  0.00     0.077 H 
ATOM     48  C7  AAV d   1      -2.394   4.170  26.542  0.00  0.00     0.094 C 
ATOM     49  H4  AAV d   1      -0.443   3.750  26.989  0.00  0.00     0.279 HD
ATOM     50  C6  AAV d   1      -2.369   3.419  25.193  0.00  0.00     0.006 C 
ATOM     51  H11 AAV d   1      -2.210   5.241  26.369  0.00  0.00     0.077 H 
ATOM     52  H12 AAV d   1      -3.378   4.039  27.016  0.00  0.00     0.077 H 
ATOM     53  H9  AAV d   1      -3.119   3.844  24.509  0.00  0.00     0.058 H 
ATOM     54  H10 AAV d   1      -1.371   3.495  24.736  0.00  0.00     0.058 H 
BRANCH  45  55
ATOM     55  C1  AAV d   1      -1.355   4.341  28.711  0.00  0.00     0.066 C 
ATOM     56  H1  AAV d   1      -0.573   3.935  29.369  0.00  0.00     0.068 H 
ATOM     57  H2  AAV d   1      -2.338   4.216  29.189  0.00  0.00     0.068 H 
ATOM     58  H3  AAV d   1      -1.167   5.410  28.534  0.00  0.00     0.068 H 
ENDBRANCH  45  55
ENDBRANCH   1  40
TORSDOF 6
