REMARK  19 active torsions:
REMARK  status: ('A' for Active; 'I' for Inactive)
REMARK    1  A    between atoms: C1_1  and  O2_2 
REMARK    2  A    between atoms: O2_2  and  C3_3 
REMARK    3  A    between atoms: C5_5  and  O6_6 
REMARK    4  A    between atoms: O6_6  and  C7_7 
REMARK    5  A    between atoms: C8_8  and  S19_19 
REMARK    6  A    between atoms: C10_10  and  N11_11 
REMARK       I    between atoms: N11_11  and  C12_12 
REMARK    7  A    between atoms: C12_12  and  C14_14 
REMARK    8  A    between atoms: C14_14  and  C15_15 
REMARK    9  A    between atoms: C15_15  and  C16_16 
REMARK   10  A    between atoms: S19_19  and  N22_22 
REMARK   11  A    between atoms: N22_22  and  C23_23 
REMARK   12  A    between atoms: C23_23  and  C24_24 
REMARK   13  A    between atoms: C29_29  and  N30_30 
REMARK   14  A    between atoms: C33_33  and  C34_34 
REMARK   15  A    between atoms: C34_34  and  O35_35 
REMARK   16  A    between atoms: O35_35  and  C36_36 
REMARK   17  A    between atoms: C36_36  and  C38_38 
REMARK   18  A    between atoms: C38_38  and  C39_39 
REMARK   19  A    between atoms: C39_39  and  C40_40 
ROOT
ATOM      1  C24 R84 d   1      52.276  18.064 -26.868  0.00  0.00    -0.018 A 
ATOM      2  C25 R84 d   1      52.085  17.133 -25.837  0.00  0.00    -0.073 A 
ATOM      3  C26 R84 d   1      52.481  15.796 -25.955  0.00  0.00    -0.082 A 
ATOM      4  C27 R84 d   1      53.101  15.286 -27.106  0.00  0.00    -0.081 A 
ATOM      5  C28 R84 d   1      53.249  16.201 -28.142  0.00  0.00    -0.062 A 
ATOM      6  C29 R84 d   1      52.858  17.565 -28.008  0.00  0.00     0.018 A 
ATOM      7  H17 R84 d   1      51.614  17.460 -24.917  0.00  0.00     0.084 H 
ATOM      8  H18 R84 d   1      52.301  15.126 -25.122  0.00  0.00     0.083 H 
ATOM      9  H19 R84 d   1      53.438  14.259 -27.181  0.00  0.00     0.083 H 
ATOM     10  H20 R84 d   1      53.675  15.867 -29.081  0.00  0.00     0.086 H 
ENDROOT
BRANCH   1  11
ATOM     11  C23 R84 d   1      51.865  19.550 -26.736  0.00  0.00     0.028 C 
ATOM     12  H15 R84 d   1      51.006  19.729 -27.399  0.00  0.00     0.072 H 
ATOM     13  H16 R84 d   1      51.567  19.732 -25.693  0.00  0.00     0.072 H 
BRANCH  11  14
ATOM     14  N22 R84 d   1      52.968  20.553 -27.101  0.00  0.00    -0.311 N 
ATOM     15  H14 R84 d   1      53.200  20.593 -28.073  0.00  0.00     0.172 HD
BRANCH  14  16
ATOM     16  S19 R84 d   1      53.868  21.621 -26.093  0.00  0.00     0.261 S 
ATOM     17  O20 R84 d   1      52.984  22.365 -25.253  0.00  0.00    -0.200 OA
ATOM     18  O21 R84 d   1      54.972  22.078 -26.887  0.00  0.00    -0.200 OA
BRANCH  16  19
ATOM     19  C8  R84 d   1      54.536  20.600 -24.794  0.00  0.00     0.115 A 
ATOM     20  C5  R84 d   1      55.401  19.541 -25.118  0.00  0.00     0.094 A 
ATOM     21  C4  R84 d   1      55.930  18.697 -24.135  0.00  0.00    -0.015 A 
ATOM     22  C3  R84 d   1      55.553  18.929 -22.804  0.00  0.00     0.097 A 
ATOM     23  H4  R84 d   1      56.608  17.892 -24.393  0.00  0.00     0.092 H 
ATOM     24  C10 R84 d   1      54.685  19.987 -22.478  0.00  0.00     0.070 A 
ATOM     25  C9  R84 d   1      54.155  20.783 -23.474  0.00  0.00    -0.029 A 
ATOM     26  H8  R84 d   1      53.437  21.555 -23.222  0.00  0.00     0.089 H 
BRANCH  20  27
ATOM     27  O6  R84 d   1      55.712  19.370 -26.452  0.00  0.00    -0.354 OA
BRANCH  27  28
ATOM     28  C7  R84 d   1      56.361  18.059 -26.678  0.00  0.00     0.010 C 
ATOM     29  H5  R84 d   1      56.599  17.947 -27.746  0.00  0.00     0.066 H 
ATOM     30  H6  R84 d   1      55.679  17.254 -26.367  0.00  0.00     0.066 H 
ATOM     31  H7  R84 d   1      57.288  18.002 -26.088  0.00  0.00     0.066 H 
ENDBRANCH  27  28
ENDBRANCH  20  27
BRANCH  22  32
ATOM     32  O2  R84 d   1      56.048  18.142 -21.773  0.00  0.00    -0.354 OA
BRANCH  32  33
ATOM     33  C1  R84 d   1      57.129  17.379 -22.232  0.00  0.00     0.010 C 
ATOM     34  H1  R84 d   1      57.515  16.759 -21.410  0.00  0.00     0.066 H 
ATOM     35  H2  R84 d   1      57.924  18.049 -22.591  0.00  0.00     0.066 H 
ATOM     36  H3  R84 d   1      56.796  16.730 -23.056  0.00  0.00     0.066 H 
ENDBRANCH  32  33
ENDBRANCH  22  32
BRANCH  24  37
ATOM     37  N11 R84 d   1      54.296  20.199 -21.141  0.00  0.00    -0.325 N 
ATOM     38  C12 R84 d   1      53.894  21.410 -20.522  0.00  0.00     0.222 C 
ATOM     39  O13 R84 d   1      53.892  22.466 -21.102  0.00  0.00    -0.273 OA
ATOM     40  H9  R84 d   1      54.304  19.391 -20.552  0.00  0.00     0.169 HD
BRANCH  38  41
ATOM     41  C14 R84 d   1      53.405  21.454 -19.117  0.00  0.00     0.018 C 
ATOM     42  H10 R84 d   1      52.678  20.644 -18.956  0.00  0.00     0.048 H 
ATOM     43  H11 R84 d   1      52.922  22.424 -18.927  0.00  0.00     0.048 H 
BRANCH  41  44
ATOM     44  C15 R84 d   1      54.591  21.276 -18.157  0.00  0.00     0.024 C 
ATOM     45  H12 R84 d   1      55.330  22.074 -18.321  0.00  0.00     0.049 H 
ATOM     46  H13 R84 d   1      55.065  20.297 -18.323  0.00  0.00     0.049 H 
BRANCH  44  47
ATOM     47  C16 R84 d   1      54.048  21.356 -16.742  0.00  0.00     0.172 C 
ATOM     48  O17 R84 d   1      54.825  21.793 -15.863  0.00  0.00    -0.648 OA
ATOM     49  O18 R84 d   1      52.727  21.000 -16.527  0.00  0.00    -0.648 OA
ENDBRANCH  44  47
ENDBRANCH  41  44
ENDBRANCH  38  41
ENDBRANCH  24  37
ENDBRANCH  16  19
ENDBRANCH  14  16
ENDBRANCH  11  14
ENDBRANCH   1  11
BRANCH   6  50
ATOM     50  N30 R84 d   1      53.038  18.450 -29.034  0.00  0.00    -0.283 NA
ATOM     51  C31 R84 d   1      53.796  17.809 -30.087  0.00  0.00    -0.016 C 
ATOM     52  C32 R84 d   1      54.339  18.982 -30.911  0.00  0.00    -0.049 C 
ATOM     53  H21 R84 d   1      53.148  17.166 -30.701  0.00  0.00     0.056 H 
ATOM     54  H22 R84 d   1      54.618  17.210 -29.669  0.00  0.00     0.056 H 
ATOM     55  C33 R84 d   1      53.224  19.920 -31.388  0.00  0.00    -0.031 C 
ATOM     56  H23 R84 d   1      54.867  18.583 -31.790  0.00  0.00     0.035 H 
ATOM     57  H24 R84 d   1      55.043  19.555 -30.290  0.00  0.00     0.035 H 
ATOM     58  C43 R84 d   1      51.918  19.914 -30.591  0.00  0.00    -0.049 C 
ATOM     59  H25 R84 d   1      53.626  20.934 -31.247  0.00  0.00     0.043 H 
ATOM     60  C44 R84 d   1      51.724  18.763 -29.625  0.00  0.00    -0.016 C 
ATOM     61  H32 R84 d   1      51.087  19.890 -31.311  0.00  0.00     0.035 H 
ATOM     62  H33 R84 d   1      51.875  20.848 -30.012  0.00  0.00     0.035 H 
ATOM     63  H34 R84 d   1      51.016  19.052 -28.834  0.00  0.00     0.056 H 
ATOM     64  H35 R84 d   1      51.335  17.885 -30.161  0.00  0.00     0.056 H 
BRANCH  55  65
ATOM     65  C34 R84 d   1      53.016  19.764 -32.882  0.00  0.00     0.032 C 
ATOM     66  H26 R84 d   1      52.235  19.014 -33.076  0.00  0.00     0.075 H 
ATOM     67  H27 R84 d   1      53.955  19.448 -33.360  0.00  0.00     0.075 H 
BRANCH  65  68
ATOM     68  O35 R84 d   1      52.601  21.065 -33.409  0.00  0.00    -0.321 OA
BRANCH  68  69
ATOM     69  C36 R84 d   1      51.690  21.179 -34.410  0.00  0.00     0.259 C 
ATOM     70  O37 R84 d   1      50.721  20.424 -34.478  0.00  0.00    -0.265 OA
BRANCH  69  71
ATOM     71  C38 R84 d   1      51.906  22.259 -35.454  0.00  0.00     0.025 C 
ATOM     72  H28 R84 d   1      52.894  22.121 -35.918  0.00  0.00     0.048 H 
ATOM     73  H29 R84 d   1      51.864  23.245 -34.968  0.00  0.00     0.048 H 
BRANCH  71  74
ATOM     74  C39 R84 d   1      50.819  22.185 -36.545  0.00  0.00     0.024 C 
ATOM     75  H30 R84 d   1      50.808  23.149 -37.075  0.00  0.00     0.049 H 
ATOM     76  H31 R84 d   1      49.851  22.030 -36.046  0.00  0.00     0.049 H 
BRANCH  74  77
ATOM     77  C40 R84 d   1      50.989  21.081 -37.588  0.00  0.00     0.172 C 
ATOM     78  O41 R84 d   1      50.071  20.807 -38.339  0.00  0.00    -0.648 OA
ATOM     79  O42 R84 d   1      52.136  20.385 -37.715  0.00  0.00    -0.648 OA
ENDBRANCH  74  77
ENDBRANCH  71  74
ENDBRANCH  69  71
ENDBRANCH  68  69
ENDBRANCH  65  68
ENDBRANCH  55  65
ENDBRANCH   6  50
TORSDOF 19
