REMARK  2 active torsions:
REMARK  status: ('A' for Active; 'I' for Inactive)
REMARK    1  A    between atoms: C4_4  and  C12_10 
REMARK    2  A    between atoms: C12_10  and  N13_11 
ROOT
ATOM      1  C2  VXU d   1     -21.654   1.878  14.022  0.00  0.00    -0.080 A 
ATOM      2  C3  VXU d   1     -20.948   1.488  15.137  0.00  0.00    -0.072 A 
ATOM      3  C1  VXU d   1     -22.557   2.899  14.143  0.00  0.00    -0.048 A 
ATOM      4  C4  VXU d   1     -21.160   2.108  16.340  0.00  0.00     0.003 A 
ATOM      5  C11 VXU d   1     -22.753   3.543  15.346  0.00  0.00     0.102 A 
ATOM      6  C5  VXU d   1     -22.056   3.134  16.458  0.00  0.00     0.110 A 
ATOM      7  C8  VXU d   1     -23.375   5.639  17.491  0.00  0.00    -0.024 C 
ATOM      8  C9  VXU d   1     -22.997   5.656  16.029  0.00  0.00     0.028 C 
ATOM      9  C7  VXU d   1     -23.471   4.189  17.913  0.00  0.00     0.028 C 
ATOM     10  O10 VXU d   1     -23.673   4.569  15.387  0.00  0.00    -0.348 OA
ATOM     11  O6  VXU d   1     -22.169   3.665  17.741  0.00  0.00    -0.348 OA
ATOM     12  H1  VXU d   1     -21.498   1.387  13.068  0.00  0.00     0.083 H 
ATOM     13  H2  VXU d   1     -20.221   0.687  15.063  0.00  0.00     0.084 H 
ATOM     14  H3  VXU d   1     -23.130   3.208  13.276  0.00  0.00     0.087 H 
ATOM     15  H4  VXU d   1     -24.345   6.138  17.635  0.00  0.00     0.039 H 
ATOM     16  H5  VXU d   1     -22.606   6.154  18.085  0.00  0.00     0.039 H 
ATOM     17  H6  VXU d   1     -21.909   5.534  15.923  0.00  0.00     0.075 H 
ATOM     18  H7  VXU d   1     -23.306   6.609  15.574  0.00  0.00     0.075 H 
ATOM     19  H8  VXU d   1     -24.190   3.650  17.279  0.00  0.00     0.075 H 
ATOM     20  H9  VXU d   1     -23.781   4.114  18.966  0.00  0.00     0.075 H 
ENDROOT
BRANCH   4  21
ATOM     21  C12 VXU d   1     -20.430   1.705  17.559  0.00  0.00     0.106 C 
ATOM     22  H10 VXU d   1     -21.011   0.941  18.096  0.00  0.00     0.082 H 
ATOM     23  H11 VXU d   1     -20.291   2.583  18.208  0.00  0.00     0.082 H 
BRANCH  21  24
ATOM     24  N13 VXU d   1     -19.129   1.159  17.201  0.00  0.00    -0.075 N 
ATOM     25  H12 VXU d   1     -18.637   0.886  18.038  0.00  0.00     0.274 HD
ATOM     26  H13 VXU d   1     -18.595   1.859  16.710  0.00  0.00     0.274 HD
ATOM     27  H14 VXU d   1     -19.254   0.354  16.608  0.00  0.00     0.274 HD
ENDBRANCH  21  24
ENDBRANCH   4  21
TORSDOF 2
