REMARK WARNING: 32 MAX_TORS EXCEEDED!!!
REMARK  33 active torsions:
REMARK  status: ('A' for Active; 'I' for Inactive)
REMARK    1  A    between atoms: CA_2  and  N_1 
REMARK    2  A    between atoms: C_3  and  CA_2 
REMARK       I    between atoms: N_5  and  C_3 
REMARK    3  A    between atoms: CA_6  and  N_5 
REMARK    4  A    between atoms: C_7  and  CA_6 
REMARK    5  A    between atoms: CA_6  and  CB_9 
REMARK       I    between atoms: N_16  and  C_7 
REMARK    6  A    between atoms: CB_9  and  CG_10 
REMARK    7  A    between atoms: CG_10  and  CD_11 
REMARK    8  A    between atoms: CD_11  and  NE_12 
REMARK       I    between atoms: NE_12  and  CZ_13 
REMARK       I    between atoms: CZ_13  and  NH1_14 
REMARK    9  A    between atoms: CA_17  and  N_16 
REMARK   10  A    between atoms: CA_23  and  CB_26 
REMARK   11  A    between atoms: CB_26  and  OG1_27 
REMARK   12  A    between atoms: CB_26  and  CG2_28 
REMARK   13  A    between atoms: CA_30  and  CB_33 
REMARK   14  A    between atoms: CB_33  and  CG_34 
REMARK   15  A    between atoms: CG_34  and  CD_35 
REMARK   16  A    between atoms: CD_35  and  CE_36 
REMARK   17  A    between atoms: CE_36  and  NZ_37 
REMARK   18  A    between atoms: CA_39  and  CB_42 
REMARK   19  A    between atoms: CB_42  and  OG_43 
REMARK   20  A    between atoms: CA_45  and  CB_48 
REMARK   21  A    between atoms: CB_48  and  CG1_49 
REMARK   22  A    between atoms: CB_48  and  CG2_50 
REMARK   23  A    between atoms: CG1_49  and  CD1_51 
REMARK   24  A    between atoms: CA1_54  and  CB1_55 
REMARK   25  A    between atoms: CA_67  and  CB_70 
REMARK   26  A    between atoms: CB_70  and  CG1_71 
REMARK   27  A    between atoms: CB_70  and  CG2_72 
REMARK   28  A    between atoms: CG1_71  and  CD1_73 
REMARK   29  A    between atoms: CA_75  and  C_76 
REMARK       I    between atoms: C_76  and  N_80 
REMARK   30  A    between atoms: N_80  and  CA_81 
REMARK   31  A    between atoms: CA_81  and  C_82 
REMARK   32  A    between atoms: CA_81  and  CB_84 
REMARK   33  A    between atoms: CB_84  and  CG_85 
ROOT
ATOM      1  CA  CYS d   1     -19.562  -8.876 -12.521  0.00  0.00     0.098 C 
ATOM      2  C   CYS d   1     -18.362  -8.069 -12.067  0.00  0.00     0.242 C 
ATOM      3  O   CYS d   1     -18.371  -7.502 -10.968  0.00  0.00    -0.271 OA
ATOM      4  CB  CYS d   1     -20.534  -7.936 -13.230  0.00  0.00     0.013 C 
ATOM      5  SG  CYS d   1     -22.073  -8.718 -13.780  0.00  0.00    -0.095 SA
ATOM      6  N   CYS d   1     -19.264 -10.590 -16.670  0.00  0.00    -0.345 N 
ATOM      7  CA  CYS d   1     -20.206 -11.191 -15.716  0.00  0.00     0.098 C 
ATOM      8  CB  CYS d   1     -21.621 -10.688 -15.999  0.00  0.00     0.013 C 
ATOM      9  SG  CYS d   1     -21.833  -8.908 -15.785  0.00  0.00    -0.095 SA
ATOM     10  H20 CYS d   1     -19.236  -9.665 -13.215  0.00  0.00     0.088 H 
ATOM     11  H21 CYS d   1     -20.026  -7.519 -14.112  0.00  0.00     0.053 H 
ATOM     12  H22 CYS d   1     -20.791  -7.122 -12.537  0.00  0.00     0.053 H 
ATOM     13  H82 CYS d   1     -19.427 -10.713 -17.649  0.00  0.00     0.163 HD
ATOM     14  H83 CYS d   1     -19.916 -10.851 -14.711  0.00  0.00     0.088 H 
ATOM     15  H84 CYS d   1     -22.313 -11.202 -15.315  0.00  0.00     0.053 H 
ATOM     16  H85 CYS d   1     -21.876 -10.943 -17.038  0.00  0.00     0.053 H 
ATOM     17  N   THR d   1     -17.348  -8.004 -12.926  0.00  0.00    -0.344 N 
ATOM     18  CA  THR d   1     -16.221  -7.088 -12.714  0.00  0.00     0.113 C 
ATOM     19  C   THR d   1     -16.737  -5.673 -12.901  0.00  0.00     0.243 C 
ATOM     20  O   THR d   1     -17.804  -5.461 -13.502  0.00  0.00    -0.271 OA
ATOM     21  H23 THR d   1     -17.354  -8.593 -13.734  0.00  0.00     0.163 HD
ATOM     22  H24 THR d   1     -15.828  -7.219 -11.695  0.00  0.00     0.091 H 
ATOM     23  N   LYS d   1     -15.984  -4.691 -12.417  0.00  0.00    -0.346 N 
ATOM     24  CA  LYS d   1     -16.442  -3.302 -12.464  0.00  0.00     0.089 C 
ATOM     25  C   LYS d   1     -15.671  -2.488 -13.502  0.00  0.00     0.241 C 
ATOM     26  O   LYS d   1     -15.331  -1.323 -13.272  0.00  0.00    -0.271 OA
ATOM     27  H30 LYS d   1     -15.093  -4.904 -12.016  0.00  0.00     0.163 HD
ATOM     28  H31 LYS d   1     -17.497  -3.312 -12.775  0.00  0.00     0.087 H 
ATOM     29  N   SER d   1     -15.403  -3.119 -14.641  0.00  0.00    -0.344 N 
ATOM     30  CA  SER d   1     -14.700  -2.462 -15.739  0.00  0.00     0.109 C 
ATOM     31  C   SER d   1     -15.709  -1.922 -16.748  0.00  0.00     0.243 C 
ATOM     32  O   SER d   1     -16.910  -2.217 -16.656  0.00  0.00    -0.271 OA
ATOM     33  H43 SER d   1     -15.691  -4.071 -14.749  0.00  0.00     0.163 HD
ATOM     34  H44 SER d   1     -14.108  -1.625 -15.340  0.00  0.00     0.090 H 
ATOM     35  N   ILE d   1     -15.223  -1.106 -17.686  0.00  0.00    -0.346 N 
ATOM     36  CA  ILE d   1     -16.010  -0.702 -18.853  0.00  0.00     0.092 C 
ATOM     37  C   ILE d   1     -15.473  -1.482 -20.054  0.00  0.00     0.243 C 
ATOM     38  O   ILE d   1     -14.268  -1.512 -20.262  0.00  0.00    -0.271 OA
ATOM     39  N   ILE d   1     -17.401  -7.766 -17.150  0.00  0.00    -0.346 N 
ATOM     40  CA  ILE d   1     -17.409  -9.192 -17.391  0.00  0.00     0.092 C 
ATOM     41  C   ILE d   1     -18.200  -9.887 -16.280  0.00  0.00     0.241 C 
ATOM     42  O   ILE d   1     -17.842  -9.795 -15.101  0.00  0.00    -0.271 OA
ATOM     43  H48 ILE d   1     -14.290  -0.759 -17.588  0.00  0.00     0.163 HD
ATOM     44  H49 ILE d   1     -17.064  -0.970 -18.689  0.00  0.00     0.088 H 
ATOM     45  H71 ILE d   1     -16.718  -7.393 -16.522  0.00  0.00     0.163 HD
ATOM     46  H72 ILE d   1     -17.902  -9.387 -18.355  0.00  0.00     0.088 H 
ATOM     47  O   PLF d   1     -18.907  -7.201 -18.728  0.00  0.00    -0.271 OA
ATOM     48  C1  PLF d   1     -18.257  -6.928 -17.723  0.00  0.00     0.243 C 
ATOM     49  CA1 PLF d   1     -18.397  -5.584 -17.050  0.00  0.00     0.109 C 
ATOM     50  N2  PLF d   1     -18.533  -4.505 -18.050  0.00  0.00    -0.247 N 
ATOM     51  C2  PLF d   1     -17.660  -3.983 -18.967  0.00  0.00     0.029 A 
ATOM     52  N3  PLF d   1     -19.719  -3.772 -18.197  0.00  0.00    -0.065 NA
ATOM     53  N1  PLF d   1     -19.580  -2.888 -19.127  0.00  0.00    -0.133 NA
ATOM     54  C   PLF d   1     -18.330  -2.970 -19.636  0.00  0.00     0.098 A 
ATOM     55  CA  PLF d   1     -17.793  -2.074 -20.736  0.00  0.00     0.060 C 
ATOM     56  CB  PLF d   1     -18.322  -2.531 -22.090  0.00  0.00    -0.039 C 
ATOM     57  CG  PLF d   1     -17.237  -3.436 -22.645  0.00  0.00    -0.048 C 
ATOM     58  CD  PLF d   1     -15.932  -3.043 -21.954  0.00  0.00    -0.001 C 
ATOM     59  N   PLF d   1     -16.331  -2.157 -20.860  0.00  0.00    -0.340 N 
ATOM     60  H59 PLF d   1     -17.497  -5.392 -16.447  0.00  0.00     0.090 H 
ATOM     61  H63 PLF d   1     -16.633  -4.303 -19.138  0.00  0.00     0.117 H 
ATOM     62  H64 PLF d   1     -18.096  -1.036 -20.533  0.00  0.00     0.083 H 
ATOM     63  H65 PLF d   1     -18.484  -1.669 -22.754  0.00  0.00     0.036 H 
ATOM     64  H66 PLF d   1     -19.265  -3.085 -21.971  0.00  0.00     0.036 H 
ATOM     65  H67 PLF d   1     -17.146  -3.295 -23.732  0.00  0.00     0.035 H 
ATOM     66  H68 PLF d   1     -17.476  -4.488 -22.431  0.00  0.00     0.035 H 
ATOM     67  H69 PLF d   1     -15.268  -2.516 -22.655  0.00  0.00     0.064 H 
ATOM     68  H70 PLF d   1     -15.419  -3.934 -21.562  0.00  0.00     0.064 H 
ENDROOT
BRANCH   1  69
ATOM     69  N   CYS d   1     -20.213  -9.483 -11.374  0.00  0.00    -0.345 N 
ATOM     70  C   ARG d   1     -20.699 -10.718 -11.418  0.00  0.00     0.241 C 
ATOM     71  O   ARG d   1     -20.652 -11.429 -12.423  0.00  0.00    -0.271 OA
ATOM     72  H19 CYS d   1     -20.298  -8.957 -10.528  0.00  0.00     0.163 HD
BRANCH  70  73
ATOM     73  CA  ARG d   1     -21.336 -11.224 -10.135  0.00  0.00     0.089 C 
ATOM     74  H7  ARG d   1     -21.496 -10.376  -9.454  0.00  0.00     0.087 H 
BRANCH  73  75
ATOM     75  N   ARG d   1     -22.625 -11.838 -10.424  0.00  0.00    -0.346 N 
ATOM     76  C   GLY d   1     -23.699 -11.121 -10.751  0.00  0.00     0.243 C 
ATOM     77  O   GLY d   1     -23.700  -9.884 -10.832  0.00  0.00    -0.272 OA
ATOM     78  H6  ARG d   1     -22.706 -12.834 -10.375  0.00  0.00     0.163 HD
BRANCH  76  79
ATOM     79  CA  GLY d   1     -24.967 -11.915 -11.018  0.00  0.00     0.152 C 
ATOM     80  H4  GLY d   1     -24.907 -12.343 -12.029  0.00  0.00     0.090 H 
ATOM     81  H5  GLY d   1     -25.035 -12.727 -10.279  0.00  0.00     0.090 H 
BRANCH  79  82
ATOM     82  N   GLY d   1     -26.204 -11.082 -10.926  0.00  0.00    -0.071 N 
ATOM     83  H1  GLY d   1     -27.011 -11.657 -11.111  0.00  0.00     0.274 HD
ATOM     84  H2  GLY d   1     -26.159 -10.338 -11.604  0.00  0.00     0.274 HD
ATOM     85  H3  GLY d   1     -26.277 -10.689 -10.001  0.00  0.00     0.274 HD
ENDBRANCH  79  82
ENDBRANCH  76  79
ENDBRANCH  73  75
BRANCH  73  86
ATOM     86  CB  ARG d   1     -20.386 -12.219  -9.471  0.00  0.00    -0.036 C 
ATOM     87  H8  ARG d   1     -20.983 -12.924  -8.874  0.00  0.00     0.036 H 
ATOM     88  H9  ARG d   1     -19.707 -11.662  -8.809  0.00  0.00     0.036 H 
BRANCH  86  89
ATOM     89  CG  ARG d   1     -19.546 -13.017 -10.457  0.00  0.00    -0.048 C 
ATOM     90  H10 ARG d   1     -19.339 -12.390 -11.337  0.00  0.00     0.035 H 
ATOM     91  H11 ARG d   1     -20.111 -13.909 -10.766  0.00  0.00     0.035 H 
BRANCH  89  92
ATOM     92  CD  ARG d   1     -18.225 -13.459  -9.845  0.00  0.00     0.009 C 
ATOM     93  H12 ARG d   1     -18.394 -13.736  -8.794  0.00  0.00     0.064 H 
ATOM     94  H13 ARG d   1     -17.512 -12.622  -9.893  0.00  0.00     0.064 H 
BRANCH  92  95
ATOM     95  NE  ARG d   1     -17.657 -14.606 -10.552  0.00  0.00    -0.227 N 
ATOM     96  CZ  ARG d   1     -17.878 -15.871 -10.210  0.00  0.00     0.665 C 
ATOM     97  NH1 ARG d   1     -18.651 -16.151  -9.168  0.00  0.00    -0.235 N 
ATOM     98  NH2 ARG d   1     -17.327 -16.857 -10.906  0.00  0.00    -0.235 N 
ATOM     99  H15 ARG d   1     -18.823 -17.131  -8.903  0.00  0.00     0.174 HD
ATOM    100  H16 ARG d   1     -19.079 -15.388  -8.625  0.00  0.00     0.174 HD
ATOM    101  H17 ARG d   1     -16.727 -16.643 -11.715  0.00  0.00     0.174 HD
ATOM    102  H18 ARG d   1     -17.500 -17.836 -10.637  0.00  0.00     0.174 HD
ATOM    103  H14 ARG d   1     -17.049 -14.423 -11.363  0.00  0.00     0.177 HD
ENDBRANCH  92  95
ENDBRANCH  89  92
ENDBRANCH  86  89
ENDBRANCH  73  86
ENDBRANCH  70  73
ENDBRANCH   1  69
BRANCH  18 104
ATOM    104  CB  THR d   1     -15.091  -7.321 -13.733  0.00  0.00     0.060 C 
ATOM    105  H25 THR d   1     -14.253  -6.651 -13.490  0.00  0.00     0.086 H 
BRANCH 104 106
ATOM    106  OG1 THR d   1     -15.564  -7.013 -15.051  0.00  0.00    -0.393 OA
ATOM    107  H26 THR d   1     -14.866  -7.157 -15.679  0.00  0.00     0.210 HD
ENDBRANCH 104 106
BRANCH 104 108
ATOM    108  CG2 THR d   1     -14.594  -8.756 -13.680  0.00  0.00    -0.050 C 
ATOM    109  H27 THR d   1     -13.789  -8.893 -14.417  0.00  0.00     0.031 H 
ATOM    110  H28 THR d   1     -15.424  -9.440 -13.912  0.00  0.00     0.031 H 
ATOM    111  H29 THR d   1     -14.210  -8.974 -12.673  0.00  0.00     0.031 H 
ENDBRANCH 104 108
ENDBRANCH  18 104
BRANCH   7 112
ATOM    112  C   CYS d   1     -20.192 -12.720 -15.700  0.00  0.00     0.242 C 
ATOM    113  O   CYS d   1     -19.898 -13.357 -16.715  0.00  0.00    -0.271 OA
ATOM    114  N   PHE d   1     -20.519 -13.298 -14.541  0.00  0.00    -0.344 N 
ATOM    115  H86 PHE d   1     -20.746 -12.713 -13.762  0.00  0.00     0.163 HD
BRANCH 114 116
ATOM    116  CA  PHE d   1     -20.559 -14.757 -14.361  0.00  0.00     0.100 C 
ATOM    117  H87 PHE d   1     -20.501 -15.211 -15.361  0.00  0.00     0.090 H 
BRANCH 116 118
ATOM    118  C   PHE d   1     -21.848 -15.254 -13.709  0.00  0.00     0.197 C 
ATOM    119  O   PHE d   1     -22.696 -14.462 -13.295  0.00  0.00    -0.646 OA
ATOM    120  OXT PHE d   1     -22.071 -16.459 -13.581  0.00  0.00    -0.646 OA
ENDBRANCH 116 118
BRANCH 116 121
ATOM    121  CB  PHE d   1     -19.347 -15.234 -13.556  0.00  0.00    -0.013 C 
ATOM    122  H88 PHE d   1     -19.448 -16.316 -13.384  0.00  0.00     0.043 H 
ATOM    123  H89 PHE d   1     -19.342 -14.708 -12.590  0.00  0.00     0.043 H 
BRANCH 121 124
ATOM    124  CG  PHE d   1     -18.034 -14.982 -14.241  0.00  0.00    -0.056 A 
ATOM    125  CD1 PHE d   1     -17.582 -15.839 -15.245  0.00  0.00    -0.077 A 
ATOM    126  CE1 PHE d   1     -16.372 -15.606 -15.884  0.00  0.00    -0.082 A 
ATOM    127  H90 PHE d   1     -18.182 -16.696 -15.529  0.00  0.00     0.084 H 
ATOM    128  CZ  PHE d   1     -15.605 -14.507 -15.525  0.00  0.00    -0.083 A 
ATOM    129  H92 PHE d   1     -16.028 -16.280 -16.660  0.00  0.00     0.083 H 
ATOM    130  CE2 PHE d   1     -16.042 -13.647 -14.525  0.00  0.00    -0.082 A 
ATOM    131  H94 PHE d   1     -14.662 -14.319 -16.026  0.00  0.00     0.083 H 
ATOM    132  CD2 PHE d   1     -17.251 -13.885 -13.890  0.00  0.00    -0.077 A 
ATOM    133  H93 PHE d   1     -15.439 -12.792 -14.242  0.00  0.00     0.083 H 
ATOM    134  H91 PHE d   1     -17.590 -13.210 -13.112  0.00  0.00     0.084 H 
ENDBRANCH 121 124
ENDBRANCH 116 121
ENDBRANCH 114 116
ENDBRANCH   7 112
BRANCH  24 135
ATOM    135  CB  LYS d   1     -16.379  -2.661 -11.065  0.00  0.00    -0.038 C 
ATOM    136  H32 LYS d   1     -16.416  -1.567 -11.171  0.00  0.00     0.036 H 
ATOM    137  H33 LYS d   1     -15.434  -2.951 -10.582  0.00  0.00     0.036 H 
BRANCH 135 138
ATOM    138  CG  LYS d   1     -17.532  -3.109 -10.197  0.00  0.00    -0.061 C 
ATOM    139  H34 LYS d   1     -17.643  -4.198 -10.302  0.00  0.00     0.033 H 
ATOM    140  H35 LYS d   1     -18.447  -2.612 -10.551  0.00  0.00     0.033 H 
BRANCH 138 141
ATOM    141  CD  LYS d   1     -17.351  -2.786  -8.726  0.00  0.00    -0.043 C 
ATOM    142  H36 LYS d   1     -17.359  -1.695  -8.585  0.00  0.00     0.035 H 
ATOM    143  H37 LYS d   1     -16.391  -3.193  -8.376  0.00  0.00     0.035 H 
BRANCH 141 144
ATOM    144  CE  LYS d   1     -18.491  -3.411  -7.929  0.00  0.00     0.080 C 
ATOM    145  H38 LYS d   1     -18.407  -4.507  -7.979  0.00  0.00     0.075 H 
ATOM    146  H39 LYS d   1     -19.451  -3.096  -8.365  0.00  0.00     0.075 H 
BRANCH 144 147
ATOM    147  NZ  LYS d   1     -18.439  -2.982  -6.503  0.00  0.00    -0.079 N 
ATOM    148  H40 LYS d   1     -19.200  -3.406  -5.997  0.00  0.00     0.274 HD
ATOM    149  H41 LYS d   1     -18.519  -1.978  -6.451  0.00  0.00     0.274 HD
ATOM    150  H42 LYS d   1     -17.563  -3.271  -6.097  0.00  0.00     0.274 HD
ENDBRANCH 144 147
ENDBRANCH 141 144
ENDBRANCH 138 141
ENDBRANCH 135 138
ENDBRANCH  24 135
BRANCH  40 151
ATOM    151  CB  ILE d   1     -15.970  -9.741 -17.454  0.00  0.00    -0.030 C 
ATOM    152  H73 ILE d   1     -15.522  -9.646 -16.454  0.00  0.00     0.043 H 
BRANCH 151 153
ATOM    153  CG1 ILE d   1     -15.124  -8.911 -18.437  0.00  0.00    -0.063 C 
ATOM    154  H74 ILE d   1     -15.700  -8.018 -18.719  0.00  0.00     0.033 H 
ATOM    155  H75 ILE d   1     -14.934  -9.523 -19.331  0.00  0.00     0.033 H 
BRANCH 153 156
ATOM    156  CD1 ILE d   1     -13.788  -8.459 -17.877  0.00  0.00    -0.076 C 
ATOM    157  H79 ILE d   1     -13.250  -7.876 -18.639  0.00  0.00     0.027 H 
ATOM    158  H80 ILE d   1     -13.190  -9.339 -17.599  0.00  0.00     0.027 H 
ATOM    159  H81 ILE d   1     -13.956  -7.834 -16.987  0.00  0.00     0.027 H 
ENDBRANCH 153 156
ENDBRANCH 151 153
BRANCH 151 160
ATOM    160  CG2 ILE d   1     -15.973 -11.217 -17.830  0.00  0.00    -0.071 C 
ATOM    161  H76 ILE d   1     -16.585 -11.778 -17.108  0.00  0.00     0.028 H 
ATOM    162  H77 ILE d   1     -14.943 -11.602 -17.814  0.00  0.00     0.028 H 
ATOM    163  H78 ILE d   1     -16.393 -11.337 -18.839  0.00  0.00     0.028 H 
ENDBRANCH 151 160
ENDBRANCH  40 151
BRANCH  30 164
ATOM    164  CB  SER d   1     -13.761  -3.462 -16.413  0.00  0.00     0.044 C 
ATOM    165  H45 SER d   1     -12.966  -3.744 -15.707  0.00  0.00     0.077 H 
ATOM    166  H46 SER d   1     -13.313  -2.995 -17.302  0.00  0.00     0.077 H 
BRANCH 164 167
ATOM    167  OG  SER d   1     -14.473  -4.632 -16.807  0.00  0.00    -0.398 OA
ATOM    168  H47 SER d   1     -15.159  -4.393 -17.419  0.00  0.00     0.209 HD
ENDBRANCH 164 167
ENDBRANCH  30 164
BRANCH  49 169
ATOM    169  CB1 PLF d   1     -19.617  -5.614 -16.127  0.00  0.00    -0.047 C 
ATOM    170  H60 PLF d   1     -19.499  -6.422 -15.390  0.00  0.00     0.030 H 
ATOM    171  H61 PLF d   1     -20.524  -5.791 -16.724  0.00  0.00     0.030 H 
ATOM    172  H62 PLF d   1     -19.705  -4.650 -15.604  0.00  0.00     0.030 H 
ENDBRANCH  49 169
BRANCH  36 173
ATOM    173  CB  ILE d   1     -15.926   0.820 -19.090  0.00  0.00    -0.030 C 
ATOM    174  H50 ILE d   1     -14.877   1.130 -18.974  0.00  0.00     0.043 H 
BRANCH 173 175
ATOM    175  CG1 ILE d   1     -16.769   1.560 -18.047  0.00  0.00    -0.063 C 
ATOM    176  H51 ILE d   1     -16.688   1.022 -17.091  0.00  0.00     0.033 H 
ATOM    177  H52 ILE d   1     -17.817   1.556 -18.382  0.00  0.00     0.033 H 
BRANCH 175 178
ATOM    178  CD1 ILE d   1     -16.347   2.993 -17.824  0.00  0.00    -0.076 C 
ATOM    179  H56 ILE d   1     -16.997   3.453 -17.065  0.00  0.00     0.027 H 
ATOM    180  H57 ILE d   1     -16.433   3.552 -18.768  0.00  0.00     0.027 H 
ATOM    181  H58 ILE d   1     -15.304   3.018 -17.477  0.00  0.00     0.027 H 
ENDBRANCH 175 178
ENDBRANCH 173 175
BRANCH 173 182
ATOM    182  CG2 ILE d   1     -16.379   1.188 -20.501  0.00  0.00    -0.071 C 
ATOM    183  H53 ILE d   1     -15.764   0.648 -21.236  0.00  0.00     0.028 H 
ATOM    184  H54 ILE d   1     -16.265   2.272 -20.652  0.00  0.00     0.028 H 
ATOM    185  H55 ILE d   1     -17.435   0.909 -20.631  0.00  0.00     0.028 H 
ENDBRANCH 173 182
ENDBRANCH  36 173
TORSDOF 32
