REMARK  31 active torsions:
REMARK  status: ('A' for Active; 'I' for Inactive)
REMARK    1  A    between atoms: CA_2  and  N_1 
REMARK    2  A    between atoms: C_3  and  CA_2 
REMARK    3  A    between atoms: CA_2  and  CB_5 
REMARK       I    between atoms: N_12  and  C_3 
REMARK    4  A    between atoms: CB_5  and  CG_6 
REMARK    5  A    between atoms: CG_6  and  CD_7 
REMARK    6  A    between atoms: CD_7  and  NE_8 
REMARK       I    between atoms: NE_8  and  CZ_9 
REMARK       I    between atoms: CZ_9  and  NH1_10 
REMARK    7  A    between atoms: CA_13  and  N_12 
REMARK    8  A    between atoms: CA_19  and  CB_22 
REMARK    9  A    between atoms: CB_22  and  OG1_23 
REMARK   10  A    between atoms: CB_22  and  CG2_24 
REMARK   11  A    between atoms: CA_26  and  CB_29 
REMARK   12  A    between atoms: CB_29  and  CG_30 
REMARK   13  A    between atoms: CG_30  and  CD_31 
REMARK   14  A    between atoms: CD_31  and  CE_32 
REMARK   15  A    between atoms: CE_32  and  NZ_33 
REMARK   16  A    between atoms: CA_35  and  CB_38 
REMARK   17  A    between atoms: CB_38  and  OG_39 
REMARK   18  A    between atoms: C1_42  and  C2_43 
REMARK   19  A    between atoms: C5_49  and  C6_51 
REMARK   20  A    between atoms: C6_51  and  C7_52 
REMARK   21  A    between atoms: C6_51  and  C8_53 
REMARK   22  A    between atoms: C8_53  and  C9_54 
REMARK   23  A    between atoms: CA_63  and  CB_66 
REMARK   24  A    between atoms: CB_66  and  CG1_67 
REMARK   25  A    between atoms: CB_66  and  CG2_68 
REMARK   26  A    between atoms: CG1_67  and  CD1_69 
REMARK   27  A    between atoms: CA_71  and  C_72 
REMARK       I    between atoms: C_72  and  N_76 
REMARK   28  A    between atoms: N_76  and  CA_77 
REMARK   29  A    between atoms: CA_77  and  C_78 
REMARK   30  A    between atoms: CA_77  and  CB_80 
REMARK   31  A    between atoms: CB_80  and  CG_81 
ROOT
ATOM      1  CA  CYS d   1      19.864  -8.749  12.788  0.00  0.00     0.098 C 
ATOM      2  C   CYS d   1      18.645  -8.035  12.203  0.00  0.00     0.242 C 
ATOM      3  O   CYS d   1      18.692  -7.514  11.080  0.00  0.00    -0.271 OA
ATOM      4  CB  CYS d   1      20.663  -7.743  13.619  0.00  0.00     0.013 C 
ATOM      5  SG  CYS d   1      22.211  -8.359  14.335  0.00  0.00    -0.095 SA
ATOM      6  N   CYS d   1      19.260 -10.506  16.815  0.00  0.00    -0.345 N 
ATOM      7  CA  CYS d   1      20.293 -11.073  15.948  0.00  0.00     0.098 C 
ATOM      8  CB  CYS d   1      21.664 -10.516  16.338  0.00  0.00     0.013 C 
ATOM      9  SG  CYS d   1      21.762  -8.712  16.292  0.00  0.00    -0.095 SA
ATOM     10  H17 CYS d   1      19.529  -9.572  13.437  0.00  0.00     0.088 H 
ATOM     11  H18 CYS d   1      20.021  -7.403  14.445  0.00  0.00     0.053 H 
ATOM     12  H19 CYS d   1      20.908  -6.889  12.970  0.00  0.00     0.053 H 
ATOM     13  H79 CYS d   1      19.365 -10.585  17.806  0.00  0.00     0.163 HD
ATOM     14  H80 CYS d   1      20.076 -10.752  14.919  0.00  0.00     0.088 H 
ATOM     15  H81 CYS d   1      22.413 -10.921  15.642  0.00  0.00     0.053 H 
ATOM     16  H82 CYS d   1      21.895 -10.849  17.360  0.00  0.00     0.053 H 
ATOM     17  N   THR d   1      17.553  -8.014  12.969  0.00  0.00    -0.344 N 
ATOM     18  CA  THR d   1      16.436  -7.111  12.677  0.00  0.00     0.113 C 
ATOM     19  C   THR d   1      16.927  -5.681  12.879  0.00  0.00     0.243 C 
ATOM     20  O   THR d   1      17.931  -5.442  13.571  0.00  0.00    -0.271 OA
ATOM     21  H20 THR d   1      17.495  -8.626  13.758  0.00  0.00     0.163 HD
ATOM     22  H21 THR d   1      16.119  -7.256  11.634  0.00  0.00     0.091 H 
ATOM     23  N   LYS d   1      16.218  -4.714  12.303  0.00  0.00    -0.346 N 
ATOM     24  CA  LYS d   1      16.642  -3.313  12.405  0.00  0.00     0.089 C 
ATOM     25  C   LYS d   1      15.870  -2.512  13.454  0.00  0.00     0.241 C 
ATOM     26  O   LYS d   1      15.501  -1.354  13.240  0.00  0.00    -0.271 OA
ATOM     27  H27 LYS d   1      15.388  -4.944  11.795  0.00  0.00     0.163 HD
ATOM     28  H28 LYS d   1      17.689  -3.327  12.742  0.00  0.00     0.087 H 
ATOM     29  N   SER d   1      15.644  -3.152  14.603  0.00  0.00    -0.344 N 
ATOM     30  CA  SER d   1      14.917  -2.551  15.726  0.00  0.00     0.109 C 
ATOM     31  C   SER d   1      15.859  -1.950  16.766  0.00  0.00     0.243 C 
ATOM     32  O   SER d   1      17.029  -2.320  16.817  0.00  0.00    -0.271 OA
ATOM     33  H40 SER d   1      15.987  -4.086  14.703  0.00  0.00     0.163 HD
ATOM     34  H41 SER d   1      14.292  -1.738  15.327  0.00  0.00     0.090 H 
ATOM     35  O   PLW d   1      16.219  -4.826  18.975  0.00  0.00    -0.271 OA
ATOM     36  C   PLW d   1      17.270  -4.233  19.191  0.00  0.00     0.244 C 
ATOM     37  C1  PLW d   1      17.338  -3.233  20.327  0.00  0.00     0.105 C 
ATOM     38  N   PLW d   1      15.995  -2.625  20.454  0.00  0.00    -0.261 N 
ATOM     39  C4  PLW d   1      15.412  -1.596  19.861  0.00  0.00     0.069 A 
ATOM     40  C3  PLW d   1      14.111  -1.458  20.328  0.00  0.00     0.044 A 
ATOM     41  N2  PLW d   1      13.918  -2.455  21.232  0.00  0.00    -0.170 NA
ATOM     42  N1  PLW d   1      15.097  -3.224  21.342  0.00  0.00     0.005 NA
ATOM     43  C5  PLW d   1      15.891  -0.633  18.846  0.00  0.00     0.058 C 
ATOM     44  N3  PLW d   1      15.323  -1.006  17.555  0.00  0.00    -0.349 N 
ATOM     45  H45 PLW d   1      18.082  -2.457  20.095  0.00  0.00     0.089 H 
ATOM     46  H49 PLW d   1      13.388  -0.701  20.029  0.00  0.00     0.120 H 
ATOM     47  H50 PLW d   1      16.987  -0.702  18.776  0.00  0.00     0.083 H 
ATOM     48  H51 PLW d   1      14.496  -0.537  17.244  0.00  0.00     0.163 HD
ATOM     49  N   PRO d   1      18.356  -4.438  18.416  0.00  0.00    -0.337 N 
ATOM     50  CA  PRO d   1      18.397  -5.476  17.376  0.00  0.00     0.091 C 
ATOM     51  C   PRO d   1      18.224  -6.912  17.877  0.00  0.00     0.241 C 
ATOM     52  O   PRO d   1      18.724  -7.262  18.953  0.00  0.00    -0.271 OA
ATOM     53  CB  PRO d   1      19.748  -5.319  16.669  0.00  0.00    -0.036 C 
ATOM     54  CG  PRO d   1      20.574  -4.497  17.604  0.00  0.00    -0.048 C 
ATOM     55  CD  PRO d   1      19.615  -3.694  18.439  0.00  0.00    -0.001 C 
ATOM     56  H61 PRO d   1      17.587  -5.277  16.659  0.00  0.00     0.087 H 
ATOM     57  H62 PRO d   1      19.624  -4.803  15.706  0.00  0.00     0.036 H 
ATOM     58  H63 PRO d   1      20.214  -6.301  16.501  0.00  0.00     0.036 H 
ATOM     59  H64 PRO d   1      21.235  -3.826  17.036  0.00  0.00     0.035 H 
ATOM     60  H65 PRO d   1      21.181  -5.151  18.248  0.00  0.00     0.035 H 
ATOM     61  H66 PRO d   1      19.988  -3.602  19.470  0.00  0.00     0.064 H 
ATOM     62  H67 PRO d   1      19.477  -2.692  18.008  0.00  0.00     0.064 H 
ATOM     63  N   ILE d   1      17.497  -7.714  17.104  0.00  0.00    -0.346 N 
ATOM     64  CA  ILE d   1      17.346  -9.141  17.355  0.00  0.00     0.092 C 
ATOM     65  C   ILE d   1      18.185  -9.888  16.330  0.00  0.00     0.241 C 
ATOM     66  O   ILE d   1      17.861  -9.908  15.132  0.00  0.00    -0.271 OA
ATOM     67  H68 ILE d   1      17.032  -7.318  16.312  0.00  0.00     0.163 HD
ATOM     68  H69 ILE d   1      17.721  -9.364  18.365  0.00  0.00     0.088 H 
ENDROOT
BRANCH   1  69
ATOM     69  N   CYS d   1      20.686  -9.295  11.714  0.00  0.00    -0.345 N 
ATOM     70  C   ARG d   1      21.094 -10.559  11.694  0.00  0.00     0.249 C 
ATOM     71  O   ARG d   1      20.821 -11.370  12.586  0.00  0.00    -0.271 OA
ATOM     72  H16 CYS d   1      20.953  -8.693  10.962  0.00  0.00     0.163 HD
BRANCH  70  73
ATOM     73  CA  ARG d   1      21.978 -10.955  10.503  0.00  0.00     0.176 C 
ATOM     74  H4  ARG d   1      22.225 -10.036   9.951  0.00  0.00     0.099 H 
BRANCH  73  75
ATOM     75  N   ARG d   1      23.230 -11.539  10.979  0.00  0.00    -0.067 N 
ATOM     76  H1  ARG d   1      23.802 -11.795  10.190  0.00  0.00     0.275 HD
ATOM     77  H2  ARG d   1      23.030 -12.359  11.530  0.00  0.00     0.275 HD
ATOM     78  H3  ARG d   1      23.721 -10.865  11.546  0.00  0.00     0.275 HD
ENDBRANCH  73  75
BRANCH  73  79
ATOM     79  CB  ARG d   1      21.247 -11.894   9.526  0.00  0.00    -0.029 C 
ATOM     80  H5  ARG d   1      21.936 -12.123   8.700  0.00  0.00     0.036 H 
ATOM     81  H6  ARG d   1      20.371 -11.356   9.134  0.00  0.00     0.036 H 
BRANCH  79  82
ATOM     82  CG  ARG d   1      20.760 -13.217  10.106  0.00  0.00    -0.047 C 
ATOM     83  H7  ARG d   1      20.447 -13.057  11.148  0.00  0.00     0.035 H 
ATOM     84  H8  ARG d   1      21.584 -13.945  10.078  0.00  0.00     0.035 H 
BRANCH  82  85
ATOM     85  CD  ARG d   1      19.581 -13.772   9.314  0.00  0.00     0.009 C 
ATOM     86  H9  ARG d   1      19.966 -14.394   8.493  0.00  0.00     0.064 H 
ATOM     87  H10 ARG d   1      19.005 -12.932   8.899  0.00  0.00     0.064 H 
BRANCH  85  88
ATOM     88  NE  ARG d   1      18.695 -14.586  10.148  0.00  0.00    -0.227 N 
ATOM     89  CZ  ARG d   1      17.395 -14.767   9.922  0.00  0.00     0.665 C 
ATOM     90  NH1 ARG d   1      16.799 -14.193   8.882  0.00  0.00    -0.235 N 
ATOM     91  NH2 ARG d   1      16.681 -15.521  10.745  0.00  0.00    -0.235 N 
ATOM     92  H12 ARG d   1      15.793 -14.341   8.719  0.00  0.00     0.174 HD
ATOM     93  H13 ARG d   1      17.343 -13.600   8.239  0.00  0.00     0.174 HD
ATOM     94  H14 ARG d   1      17.133 -15.971  11.554  0.00  0.00     0.174 HD
ATOM     95  H15 ARG d   1      15.674 -15.658  10.576  0.00  0.00     0.174 HD
ATOM     96  H11 ARG d   1      19.107 -15.052  10.969  0.00  0.00     0.177 HD
ENDBRANCH  85  88
ENDBRANCH  82  85
ENDBRANCH  79  82
ENDBRANCH  73  79
ENDBRANCH  70  73
ENDBRANCH   1  69
BRANCH  18  97
ATOM     97  CB  THR d   1      15.226  -7.340  13.608  0.00  0.00     0.060 C 
ATOM     98  H22 THR d   1      14.436  -6.625  13.335  0.00  0.00     0.086 H 
BRANCH  97  99
ATOM     99  OG1 THR d   1      15.623  -7.095  14.962  0.00  0.00    -0.393 OA
ATOM    100  H23 THR d   1      15.925  -6.198  15.045  0.00  0.00     0.210 HD
ENDBRANCH  97  99
BRANCH  97 101
ATOM    101  CG2 THR d   1      14.663  -8.751  13.470  0.00  0.00    -0.050 C 
ATOM    102  H24 THR d   1      13.805  -8.871  14.148  0.00  0.00     0.031 H 
ATOM    103  H25 THR d   1      15.441  -9.483  13.730  0.00  0.00     0.031 H 
ATOM    104  H26 THR d   1      14.336  -8.915  12.433  0.00  0.00     0.031 H 
ENDBRANCH  97 101
ENDBRANCH  18  97
BRANCH   7 105
ATOM    105  C   CYS d   1      20.307 -12.599  15.957  0.00  0.00     0.242 C 
ATOM    106  O   CYS d   1      19.817 -13.233  16.898  0.00  0.00    -0.271 OA
ATOM    107  N   PHE d   1      20.873 -13.174  14.897  0.00  0.00    -0.344 N 
ATOM    108  H83 PHE d   1      21.314 -12.590  14.216  0.00  0.00     0.163 HD
BRANCH 107 109
ATOM    109  CA  PHE d   1      20.878 -14.622  14.684  0.00  0.00     0.100 C 
ATOM    110  H84 PHE d   1      20.586 -15.108  15.626  0.00  0.00     0.090 H 
BRANCH 109 111
ATOM    111  C   PHE d   1      22.265 -15.132  14.295  0.00  0.00     0.197 C 
ATOM    112  O   PHE d   1      22.985 -14.485  13.532  0.00  0.00    -0.646 OA
ATOM    113  OXT PHE d   1      22.692 -16.201  14.736  0.00  0.00    -0.646 OA
ENDBRANCH 109 111
BRANCH 109 114
ATOM    114  CB  PHE d   1      19.857 -15.000  13.605  0.00  0.00    -0.013 C 
ATOM    115  H85 PHE d   1      19.821 -16.097  13.531  0.00  0.00     0.043 H 
ATOM    116  H86 PHE d   1      20.193 -14.578  12.646  0.00  0.00     0.043 H 
BRANCH 114 117
ATOM    117  CG  PHE d   1      18.466 -14.497  13.883  0.00  0.00    -0.056 A 
ATOM    118  CD1 PHE d   1      17.604 -15.211  14.711  0.00  0.00    -0.077 A 
ATOM    119  CE1 PHE d   1      16.321 -14.747  14.967  0.00  0.00    -0.082 A 
ATOM    120  H87 PHE d   1      17.938 -16.139  15.161  0.00  0.00     0.084 H 
ATOM    121  CZ  PHE d   1      15.888 -13.558  14.397  0.00  0.00    -0.083 A 
ATOM    122  H89 PHE d   1      15.658 -15.313  15.611  0.00  0.00     0.083 H 
ATOM    123  CE2 PHE d   1      16.736 -12.835  13.571  0.00  0.00    -0.082 A 
ATOM    124  H91 PHE d   1      14.887 -13.194  14.597  0.00  0.00     0.083 H 
ATOM    125  CD2 PHE d   1      18.017 -13.305  13.316  0.00  0.00    -0.077 A 
ATOM    126  H90 PHE d   1      16.399 -11.906  13.126  0.00  0.00     0.083 H 
ATOM    127  H88 PHE d   1      18.676 -12.739  12.668  0.00  0.00     0.084 H 
ENDBRANCH 114 117
ENDBRANCH 109 114
ENDBRANCH 107 109
ENDBRANCH   7 105
BRANCH  24 128
ATOM    128  CB  LYS d   1      16.633  -2.646  11.026  0.00  0.00    -0.038 C 
ATOM    129  H29 LYS d   1      16.751  -1.559  11.149  0.00  0.00     0.036 H 
ATOM    130  H30 LYS d   1      15.675  -2.857  10.528  0.00  0.00     0.036 H 
BRANCH 128 131
ATOM    131  CG  LYS d   1      17.766  -3.177  10.174  0.00  0.00    -0.061 C 
ATOM    132  H31 LYS d   1      17.785  -4.274  10.256  0.00  0.00     0.033 H 
ATOM    133  H32 LYS d   1      18.714  -2.765  10.550  0.00  0.00     0.033 H 
BRANCH 131 134
ATOM    134  CD  LYS d   1      17.618  -2.802   8.719  0.00  0.00    -0.043 C 
ATOM    135  H33 LYS d   1      17.591  -1.707   8.622  0.00  0.00     0.035 H 
ATOM    136  H34 LYS d   1      16.685  -3.229   8.322  0.00  0.00     0.035 H 
BRANCH 134 137
ATOM    137  CE  LYS d   1      18.803  -3.353   7.939  0.00  0.00     0.080 C 
ATOM    138  H35 LYS d   1      18.814  -4.449   8.029  0.00  0.00     0.075 H 
ATOM    139  H36 LYS d   1      19.732  -2.942   8.360  0.00  0.00     0.075 H 
BRANCH 137 140
ATOM    140  NZ  LYS d   1      18.717  -2.985   6.501  0.00  0.00    -0.079 N 
ATOM    141  H37 LYS d   1      19.512  -3.362   6.010  0.00  0.00     0.274 HD
ATOM    142  H38 LYS d   1      18.711  -1.981   6.411  0.00  0.00     0.274 HD
ATOM    143  H39 LYS d   1      17.869  -3.363   6.108  0.00  0.00     0.274 HD
ENDBRANCH 137 140
ENDBRANCH 134 137
ENDBRANCH 131 134
ENDBRANCH 128 131
ENDBRANCH  24 128
BRANCH  64 144
ATOM    144  CB  ILE d   1      15.878  -9.604  17.268  0.00  0.00    -0.030 C 
ATOM    145  H70 ILE d   1      15.530  -9.462  16.234  0.00  0.00     0.043 H 
BRANCH 144 146
ATOM    146  CG1 ILE d   1      14.993  -8.758  18.191  0.00  0.00    -0.063 C 
ATOM    147  H71 ILE d   1      15.371  -7.725  18.183  0.00  0.00     0.033 H 
ATOM    148  H72 ILE d   1      15.065  -9.166  19.210  0.00  0.00     0.033 H 
BRANCH 146 149
ATOM    149  CD1 ILE d   1      13.535  -8.735  17.788  0.00  0.00    -0.076 C 
ATOM    150  H76 ILE d   1      12.969  -8.111  18.495  0.00  0.00     0.027 H 
ATOM    151  H77 ILE d   1      13.135  -9.759  17.802  0.00  0.00     0.027 H 
ATOM    152  H78 ILE d   1      13.441  -8.318  16.774  0.00  0.00     0.027 H 
ENDBRANCH 146 149
ENDBRANCH 144 146
BRANCH 144 153
ATOM    153  CG2 ILE d   1      15.776 -11.086  17.606  0.00  0.00    -0.071 C 
ATOM    154  H73 ILE d   1      16.422 -11.662  16.927  0.00  0.00     0.028 H 
ATOM    155  H74 ILE d   1      14.734 -11.418  17.490  0.00  0.00     0.028 H 
ATOM    156  H75 ILE d   1      16.099 -11.248  18.645  0.00  0.00     0.028 H 
ENDBRANCH 144 153
ENDBRANCH  64 144
BRANCH  30 157
ATOM    157  CB  SER d   1      13.996  -3.589  16.378  0.00  0.00     0.044 C 
ATOM    158  H42 SER d   1      13.146  -3.784  15.707  0.00  0.00     0.077 H 
ATOM    159  H43 SER d   1      13.625  -3.188  17.333  0.00  0.00     0.077 H 
BRANCH 157 160
ATOM    160  OG  SER d   1      14.677  -4.808  16.624  0.00  0.00    -0.398 OA
ATOM    161  H44 SER d   1      15.410  -4.648  17.207  0.00  0.00     0.209 HD
ENDBRANCH 157 160
ENDBRANCH  30 157
BRANCH  43 162
ATOM    162  C6  PLW d   1      15.532   0.790  19.269  0.00  0.00    -0.033 C 
ATOM    163  H52 PLW d   1      14.437   0.863  19.337  0.00  0.00     0.043 H 
BRANCH 162 164
ATOM    164  C7  PLW d   1      16.125   1.091  20.640  0.00  0.00    -0.071 C 
ATOM    165  H53 PLW d   1      15.861   2.117  20.936  0.00  0.00     0.028 H 
ATOM    166  H54 PLW d   1      17.220   0.992  20.596  0.00  0.00     0.028 H 
ATOM    167  H55 PLW d   1      15.722   0.382  21.378  0.00  0.00     0.028 H 
ENDBRANCH 162 164
BRANCH 162 168
ATOM    168  C8  PLW d   1      16.017   1.819  18.257  0.00  0.00    -0.063 C 
ATOM    169  H56 PLW d   1      16.019   2.815  18.723  0.00  0.00     0.033 H 
ATOM    170  H57 PLW d   1      15.342   1.822  17.388  0.00  0.00     0.033 H 
BRANCH 168 171
ATOM    171  C9  PLW d   1      17.418   1.476  17.802  0.00  0.00    -0.076 C 
ATOM    172  H58 PLW d   1      17.760   2.224  17.072  0.00  0.00     0.027 H 
ATOM    173  H59 PLW d   1      17.418   0.480  17.334  0.00  0.00     0.027 H 
ATOM    174  H60 PLW d   1      18.095   1.474  18.669  0.00  0.00     0.027 H 
ENDBRANCH 168 171
ENDBRANCH 162 168
ENDBRANCH  43 162
BRANCH  37 175
ATOM    175  C2  PLW d   1      17.717  -3.919  21.635  0.00  0.00    -0.048 C 
ATOM    176  H46 PLW d   1      18.716  -4.370  21.537  0.00  0.00     0.030 H 
ATOM    177  H47 PLW d   1      16.981  -4.704  21.864  0.00  0.00     0.030 H 
ATOM    178  H48 PLW d   1      17.727  -3.178  22.448  0.00  0.00     0.030 H 
ENDBRANCH  37 175
TORSDOF 31
