REMARK  15 active torsions:
REMARK  status: ('A' for Active; 'I' for Inactive)
REMARK    1  A    between atoms: C6_6  and  N6_7 
REMARK    2  A    between atoms: C1'_13  and  N9_10 
REMARK    3  A    between atoms: O3A_26  and  PA_11 
REMARK    4  A    between atoms: PA_11  and  O5'_34 
REMARK    5  A    between atoms: PB_12  and  O3A_26 
REMARK    6  A    between atoms: O5D_36  and  PB_12 
REMARK    7  A    between atoms: C1D_16  and  O1D_17 
REMARK    8  A    between atoms: C2'_18  and  O2'_19 
REMARK    9  A    between atoms: C2D_22  and  O2D_23 
REMARK   10  A    between atoms: C3'_24  and  O3'_25 
REMARK   11  A    between atoms: C3D_27  and  O3D_28 
REMARK   12  A    between atoms: C5'_33  and  C4'_29 
REMARK   13  A    between atoms: C5D_35  and  C4D_31 
REMARK   14  A    between atoms: O5'_34  and  C5'_33 
REMARK   15  A    between atoms: C5D_35  and  O5D_36 
ROOT
ATOM      1  C5' AR6 d   1       6.806  16.593 -21.978  0.00  0.00     0.058 C 
ATOM      2  H18 AR6 d   1       7.834  16.244 -22.156  0.00  0.00     0.079 H 
ATOM      3  H19 AR6 d   1       6.660  16.773 -20.903  0.00  0.00     0.079 H 
ENDROOT
BRANCH   1   4
ATOM      4  C4' AR6 d   1       5.837  15.552 -22.446  0.00  0.00     0.089 C 
ATOM      5  C3' AR6 d   1       5.372  15.574 -23.931  0.00  0.00     0.091 C 
ATOM      6  C2' AR6 d   1       3.973  16.128 -23.860  0.00  0.00     0.105 C 
ATOM      7  H12 AR6 d   1       6.031  16.196 -24.554  0.00  0.00     0.091 H 
ATOM      8  C1' AR6 d   1       3.494  15.566 -22.544  0.00  0.00     0.139 C 
ATOM      9  H8  AR6 d   1       3.967  17.228 -23.872  0.00  0.00     0.093 H 
ATOM     10  O4' AR6 d   1       4.647  15.855 -21.687  0.00  0.00    -0.353 OA
ATOM     11  H5  AR6 d   1       3.319  14.485 -22.644  0.00  0.00     0.122 H 
ATOM     12  H16 AR6 d   1       6.237  14.554 -22.212  0.00  0.00     0.090 H 
BRANCH   5  13
ATOM     13  O3' AR6 d   1       5.302  14.243 -24.440  0.00  0.00    -0.390 OA
ATOM     14  H13 AR6 d   1       6.178  13.878 -24.491  0.00  0.00     0.210 HD
ENDBRANCH   5  13
BRANCH   6  15
ATOM     15  O2' AR6 d   1       3.157  15.615 -24.910  0.00  0.00    -0.388 OA
ATOM     16  H9  AR6 d   1       3.220  14.667 -24.924  0.00  0.00     0.210 HD
ENDBRANCH   6  15
BRANCH   8  17
ATOM     17  N9  AR6 d   1       2.298  16.176 -21.919  0.00  0.00    -0.294 N 
ATOM     18  C4  AR6 d   1       1.597  15.585 -20.951  0.00  0.00     0.167 A 
ATOM     19  N3  AR6 d   1       1.757  14.368 -20.398  0.00  0.00    -0.222 NA
ATOM     20  C5  AR6 d   1       0.557  16.422 -20.587  0.00  0.00     0.149 A 
ATOM     21  C2  AR6 d   1       0.897  14.001 -19.466  0.00  0.00     0.091 A 
ATOM     22  N1  AR6 d   1      -0.110  14.768 -19.083  0.00  0.00    -0.222 NA
ATOM     23  H1  AR6 d   1       1.021  13.032 -18.996  0.00  0.00     0.146 H 
ATOM     24  C6  AR6 d   1      -0.330  15.995 -19.591  0.00  0.00     0.155 A 
ATOM     25  N7  AR6 d   1       0.666  17.552 -21.326  0.00  0.00    -0.236 NA
ATOM     26  C8  AR6 d   1       1.740  17.378 -22.118  0.00  0.00     0.071 A 
ATOM     27  H4  AR6 d   1       2.108  18.117 -22.828  0.00  0.00     0.144 H 
BRANCH  24  28
ATOM     28  N6  AR6 d   1      -1.357  16.775 -19.161  0.00  0.00    -0.382 N 
ATOM     29  H2  AR6 d   1      -1.500  17.710 -19.569  0.00  0.00     0.157 HD
ATOM     30  H3  AR6 d   1      -1.992  16.431 -18.427  0.00  0.00     0.157 HD
ENDBRANCH  24  28
ENDBRANCH   8  17
ENDBRANCH   1   4
BRANCH   1  31
ATOM     31  O5' AR6 d   1       6.574  17.867 -22.733  0.00  0.00    -0.287 OA
BRANCH  31  32
ATOM     32  PA  AR6 d   1       6.829  19.292 -22.150  0.00  0.00     0.417 P 
ATOM     33  O1A AR6 d   1       5.735  19.618 -21.201  0.00  0.00    -0.624 OA
ATOM     34  O2A AR6 d   1       6.992  20.193 -23.373  0.00  0.00    -0.624 OA
BRANCH  32  35
ATOM     35  O3A AR6 d   1       8.141  19.170 -21.295  0.00  0.00    -0.180 OA
BRANCH  35  36
ATOM     36  PB  AR6 d   1       9.693  18.851 -21.669  0.00  0.00     0.417 P 
ATOM     37  O1B AR6 d   1      10.223  18.035 -20.566  0.00  0.00    -0.624 OA
ATOM     38  O2B AR6 d   1       9.847  18.368 -23.068  0.00  0.00    -0.624 OA
BRANCH  36  39
ATOM     39  O5D AR6 d   1      10.317  20.282 -21.565  0.00  0.00    -0.287 OA
BRANCH  39  40
ATOM     40  C5D AR6 d   1      10.368  21.005 -20.269  0.00  0.00     0.058 C 
ATOM     41  H20 AR6 d   1       9.404  21.511 -20.112  0.00  0.00     0.079 H 
ATOM     42  H21 AR6 d   1      10.533  20.273 -19.465  0.00  0.00     0.079 H 
BRANCH  40  43
ATOM     43  C4D AR6 d   1      11.508  22.075 -20.211  0.00  0.00     0.090 C 
ATOM     44  C3D AR6 d   1      11.387  22.941 -21.494  0.00  0.00     0.092 C 
ATOM     45  C2D AR6 d   1      12.565  22.514 -22.343  0.00  0.00     0.110 C 
ATOM     46  H14 AR6 d   1      10.446  22.718 -22.018  0.00  0.00     0.091 H 
ATOM     47  C1D AR6 d   1      13.552  22.005 -21.278  0.00  0.00     0.156 C 
ATOM     48  H10 AR6 d   1      12.276  21.703 -23.028  0.00  0.00     0.094 H 
ATOM     49  O4D AR6 d   1      12.690  21.299 -20.317  0.00  0.00    -0.349 OA
ATOM     50  H6  AR6 d   1      14.314  21.329 -21.694  0.00  0.00     0.133 H 
ATOM     51  H17 AR6 d   1      11.479  22.685 -19.296  0.00  0.00     0.090 H 
BRANCH  44  52
ATOM     52  O3D AR6 d   1      11.414  24.326 -21.177  0.00  0.00    -0.390 OA
ATOM     53  H15 AR6 d   1      11.395  24.834 -21.980  0.00  0.00     0.210 HD
ENDBRANCH  44  52
BRANCH  45  54
ATOM     54  O2D AR6 d   1      13.124  23.608 -23.124  0.00  0.00    -0.388 OA
ATOM     55  H11 AR6 d   1      13.338  24.331 -22.546  0.00  0.00     0.210 HD
ENDBRANCH  45  54
BRANCH  47  56
ATOM     56  O1D AR6 d   1      14.151  23.161 -20.747  0.00  0.00    -0.369 OA
ATOM     57  H7  AR6 d   1      13.475  23.768 -20.470  0.00  0.00     0.212 HD
ENDBRANCH  47  56
ENDBRANCH  40  43
ENDBRANCH  39  40
ENDBRANCH  36  39
ENDBRANCH  35  36
ENDBRANCH  32  35
ENDBRANCH  31  32
ENDBRANCH   1  31
TORSDOF 15
