REMARK  4 active torsions:
REMARK  status: ('A' for Active; 'I' for Inactive)
REMARK    1  A    between atoms: C1_1  and  O7_7 
REMARK    2  A    between atoms: C2_2  and  O18_18 
REMARK    3  A    between atoms: C4_4  and  C14_14 
REMARK    4  A    between atoms: O7_7  and  C8_8 
ROOT
ATOM      1  C1  FT1 d   1      -0.297   0.371  -7.187  0.00  0.00     0.109 A 
ATOM      2  C2  FT1 d   1       0.480   0.011  -8.282  0.00  0.00     0.100 A 
ATOM      3  C3  FT1 d   1      -0.124  -0.264  -9.503  0.00  0.00    -0.035 A 
ATOM      4  C4  FT1 d   1      -1.506  -0.179  -9.629  0.00  0.00     0.004 A 
ATOM      5  C5  FT1 d   1      -2.283   0.181  -8.534  0.00  0.00    -0.067 A 
ATOM      6  C6  FT1 d   1      -1.678   0.456  -7.313  0.00  0.00    -0.047 A 
ATOM      7  H1  FT1 d   1       0.482  -0.545 -10.357  0.00  0.00     0.089 H 
ATOM      8  H2  FT1 d   1      -3.361   0.247  -8.632  0.00  0.00     0.085 H 
ATOM      9  H3  FT1 d   1      -2.284   0.737  -6.459  0.00  0.00     0.087 H 
ENDROOT
BRANCH   1  10
ATOM     10  O7  FT1 d   1       0.295   0.640  -5.992  0.00  0.00    -0.306 OA
BRANCH  10  11
ATOM     11  C8  FT1 d   1      -0.254  -0.143  -5.026  0.00  0.00     0.098 A 
ATOM     12  C9  FT1 d   1       0.466  -0.431  -3.872  0.00  0.00     0.069 A 
ATOM     13  C10 FT1 d   1      -0.095  -1.231  -2.884  0.00  0.00    -0.038 A 
ATOM     14 CL9  FT1 d   1       2.061   0.208  -3.666  0.00  0.00    -0.081 Cl
ATOM     15  C11 FT1 d   1      -1.376  -1.744  -3.049  0.00  0.00     0.035 A 
ATOM     16  H4  FT1 d   1       0.467  -1.455  -1.984  0.00  0.00     0.088 H 
ATOM     17  C12 FT1 d   1      -2.096  -1.457  -4.203  0.00  0.00    -0.059 A 
ATOM     18 CL1  FT1 d   1      -2.074  -2.741  -1.819  0.00  0.00    -0.084 Cl
ATOM     19  C13 FT1 d   1      -1.535  -0.656  -5.191  0.00  0.00    -0.047 A 
ATOM     20  H5  FT1 d   1      -3.095  -1.858  -4.332  0.00  0.00     0.086 H 
ATOM     21  H6  FT1 d   1      -2.097  -0.431  -6.090  0.00  0.00     0.087 H 
ENDBRANCH  10  11
ENDBRANCH   1  10
BRANCH   2  22
ATOM     22  O18 FT1 d   1       1.832  -0.072  -8.158  0.00  0.00    -0.358 OA
ATOM     23  H8  FT1 d   1       2.081   0.145  -7.267  0.00  0.00     0.217 HD
ENDBRANCH   2  22
BRANCH   4  24
ATOM     24  C14 FT1 d   1      -2.171  -0.482 -10.973  0.00  0.00     0.118 C 
ATOM     25  O15 FT1 d   1      -3.396  -0.526 -11.078  0.00  0.00    -0.301 OA
ATOM     26  H7  FT1 d   1      -1.551  -0.661 -11.850  0.00  0.00     0.151 H 
ENDBRANCH   4  24
TORSDOF 4
