REMARK  4 active torsions:
REMARK  status: ('A' for Active; 'I' for Inactive)
REMARK    1  A    between atoms: C1_1  and  O7_7 
REMARK    2  A    between atoms: C2_2  and  O18_18 
REMARK    3  A    between atoms: C4_4  and  C14_14 
REMARK    4  A    between atoms: O7_7  and  C8_8 
ROOT
ATOM      1  C1  FT2 d   1       0.008   0.446   7.003  0.00  0.00     0.109 A 
ATOM      2  C2  FT2 d   1      -0.363   0.247   8.341  0.00  0.00     0.100 A 
ATOM      3  C3  FT2 d   1       0.561   0.440   9.355  0.00  0.00    -0.041 A 
ATOM      4  C4  FT2 d   1       1.838   0.828   9.024  0.00  0.00    -0.042 A 
ATOM      5  C5  FT2 d   1       2.240   1.029   7.714  0.00  0.00    -0.073 A 
ATOM      6  C6  FT2 d   1       1.316   0.822   6.700  0.00  0.00    -0.047 A 
ATOM      7  H1  FT2 d   1       0.282   0.288  10.391  0.00  0.00     0.088 H 
ATOM      8  H2  FT2 d   1       3.253   1.341   7.486  0.00  0.00     0.084 H 
ATOM      9  H3  FT2 d   1       1.613   0.953   5.666  0.00  0.00     0.087 H 
ENDROOT
BRANCH   1  10
ATOM     10  O7  FT2 d   1      -0.898   0.213   5.998  0.00  0.00    -0.306 OA
BRANCH  10  11
ATOM     11  C8  FT2 d   1      -1.085   0.972   4.870  0.00  0.00     0.098 A 
ATOM     12  C9  FT2 d   1      -0.070   1.528   4.101  0.00  0.00     0.069 A 
ATOM     13  C10 FT2 d   1      -0.411   2.285   2.982  0.00  0.00    -0.038 A 
ATOM     14 CL17 FT2 d   1       1.598   1.323   4.528  0.00  0.00    -0.081 Cl
ATOM     15  C11 FT2 d   1      -1.730   2.480   2.616  0.00  0.00     0.035 A 
ATOM     16  H4  FT2 d   1       0.376   2.731   2.385  0.00  0.00     0.088 H 
ATOM     17  C12 FT2 d   1      -2.727   1.921   3.371  0.00  0.00    -0.059 A 
ATOM     18 CL16 FT2 d   1      -2.156   3.423   1.240  0.00  0.00    -0.084 Cl
ATOM     19  C13 FT2 d   1      -2.392   1.172   4.481  0.00  0.00    -0.047 A 
ATOM     20  H5  FT2 d   1      -3.767   2.065   3.100  0.00  0.00     0.086 H 
ATOM     21  H6  FT2 d   1      -3.186   0.725   5.068  0.00  0.00     0.087 H 
ENDBRANCH  10  11
ENDBRANCH   1  10
BRANCH   2  22
ATOM     22  O18 FT2 d   1      -1.613  -0.130   8.711  0.00  0.00    -0.358 OA
ATOM     23  H9  FT2 d   1      -2.154  -0.231   7.937  0.00  0.00     0.217 HD
ENDBRANCH   2  22
BRANCH   4  24
ATOM     24  C14 FT2 d   1       2.804   0.999  10.126  0.00  0.00     0.026 C 
ATOM     25 CL15 FT2 d   1       3.155  -0.606  10.735  0.00  0.00    -0.126 Cl
ATOM     26  H7  FT2 d   1       2.366   1.620  10.922  0.00  0.00     0.063 H 
ATOM     27  H8  FT2 d   1       3.724   1.474   9.754  0.00  0.00     0.063 H 
ENDBRANCH   4  24
TORSDOF 4
