REMARK  11 active torsions:
REMARK  status: ('A' for Active; 'I' for Inactive)
REMARK    1  A    between atoms: C1_1  and  O2_2 
REMARK    2  A    between atoms: O2_2  and  C3_3 
REMARK    3  A    between atoms: C5_5  and  O6_6 
REMARK    4  A    between atoms: O6_6  and  C7_7 
REMARK    5  A    between atoms: C8_8  and  S15_15 
REMARK    6  A    between atoms: C10_10  and  N11_11 
REMARK       I    between atoms: N11_11  and  C12_12 
REMARK    7  A    between atoms: C12_12  and  C14_14 
REMARK    8  A    between atoms: S15_15  and  N18_18 
REMARK    9  A    between atoms: N18_18  and  C19_19 
REMARK   10  A    between atoms: C19_19  and  C20_20 
REMARK   11  A    between atoms: C25_25  and  N26_26 
ROOT
ATOM      1  N18 R83 d   1      44.424  36.037  85.481  0.00  0.00    -0.311 N 
ATOM      2  H13 R83 d   1      44.528  36.195  86.463  0.00  0.00     0.172 HD
ENDROOT
BRANCH   1   3
ATOM      3  S15 R83 d   1      45.766  36.301  84.462  0.00  0.00     0.261 S 
ATOM      4  O16 R83 d   1      46.689  36.919  85.294  0.00  0.00    -0.200 OA
ATOM      5  O17 R83 d   1      46.010  35.043  83.831  0.00  0.00    -0.200 OA
BRANCH   3   6
ATOM      6  C8  R83 d   1      45.273  37.350  83.165  0.00  0.00     0.115 A 
ATOM      7  C5  R83 d   1      44.737  38.626  83.450  0.00  0.00     0.094 A 
ATOM      8  C4  R83 d   1      44.337  39.432  82.423  0.00  0.00    -0.015 A 
ATOM      9  C3  R83 d   1      44.452  38.956  81.105  0.00  0.00     0.097 A 
ATOM     10  H4  R83 d   1      43.938  40.420  82.620  0.00  0.00     0.092 H 
ATOM     11  C10 R83 d   1      44.875  37.642  80.844  0.00  0.00     0.070 A 
ATOM     12  C9  R83 d   1      45.313  36.854  81.866  0.00  0.00    -0.029 A 
ATOM     13  H8  R83 d   1      45.687  35.856  81.670  0.00  0.00     0.089 H 
BRANCH   7  14
ATOM     14  O6  R83 d   1      44.742  39.066  84.758  0.00  0.00    -0.354 OA
BRANCH  14  15
ATOM     15  C7  R83 d   1      44.077  40.384  84.973  0.00  0.00     0.010 C 
ATOM     16  H5  R83 d   1      44.130  40.652  86.039  0.00  0.00     0.066 H 
ATOM     17  H6  R83 d   1      43.024  40.318  84.663  0.00  0.00     0.066 H 
ATOM     18  H7  R83 d   1      44.587  41.154  84.376  0.00  0.00     0.066 H 
ENDBRANCH  14  15
ENDBRANCH   7  14
BRANCH   9  19
ATOM     19  O2  R83 d   1      44.047  39.709  79.998  0.00  0.00    -0.354 OA
BRANCH  19  20
ATOM     20  C1  R83 d   1      43.918  41.150  80.264  0.00  0.00     0.010 C 
ATOM     21  H1  R83 d   1      43.597  41.665  79.346  0.00  0.00     0.066 H 
ATOM     22  H2  R83 d   1      44.889  41.551  80.590  0.00  0.00     0.066 H 
ATOM     23  H3  R83 d   1      43.171  41.311  81.055  0.00  0.00     0.066 H 
ENDBRANCH  19  20
ENDBRANCH   9  19
BRANCH  11  24
ATOM     24  N11 R83 d   1      44.912  37.280  79.485  0.00  0.00    -0.325 N 
ATOM     25  C12 R83 d   1      45.838  36.475  78.861  0.00  0.00     0.218 C 
ATOM     26  O13 R83 d   1      46.653  35.846  79.569  0.00  0.00    -0.274 OA
ATOM     27  H9  R83 d   1      44.184  37.649  78.907  0.00  0.00     0.169 HD
BRANCH  25  28
ATOM     28  C14 R83 d   1      45.681  36.296  77.344  0.00  0.00    -0.003 C 
ATOM     29  H10 R83 d   1      46.477  35.636  76.969  0.00  0.00     0.040 H 
ATOM     30  H11 R83 d   1      45.754  37.276  76.850  0.00  0.00     0.040 H 
ATOM     31  H12 R83 d   1      44.700  35.848  77.127  0.00  0.00     0.040 H 
ENDBRANCH  25  28
ENDBRANCH  11  24
ENDBRANCH   3   6
ENDBRANCH   1   3
BRANCH   1  32
ATOM     32  C19 R83 d   1      43.113  35.583  84.969  0.00  0.00     0.028 C 
ATOM     33  H14 R83 d   1      42.791  34.690  85.524  0.00  0.00     0.072 H 
ATOM     34  H15 R83 d   1      43.200  35.339  83.900  0.00  0.00     0.072 H 
BRANCH  32  35
ATOM     35  C20 R83 d   1      42.094  36.692  85.156  0.00  0.00    -0.018 A 
ATOM     36  C21 R83 d   1      41.172  36.893  84.115  0.00  0.00    -0.073 A 
ATOM     37  C22 R83 d   1      40.234  37.920  84.257  0.00  0.00    -0.082 A 
ATOM     38  H16 R83 d   1      41.188  36.270  83.228  0.00  0.00     0.084 H 
ATOM     39  C23 R83 d   1      40.189  38.712  85.408  0.00  0.00    -0.081 A 
ATOM     40  H17 R83 d   1      39.526  38.106  83.457  0.00  0.00     0.083 H 
ATOM     41  C24 R83 d   1      41.073  38.487  86.481  0.00  0.00    -0.062 A 
ATOM     42  H18 R83 d   1      39.462  39.513  85.476  0.00  0.00     0.083 H 
ATOM     43  C25 R83 d   1      42.025  37.470  86.355  0.00  0.00     0.018 A 
ATOM     44  H19 R83 d   1      41.017  39.087  87.382  0.00  0.00     0.086 H 
BRANCH  43  45
ATOM     45  N26 R83 d   1      42.912  37.214  87.409  0.00  0.00    -0.283 NA
ATOM     46  C27 R83 d   1      43.092  38.278  88.410  0.00  0.00    -0.016 C 
ATOM     47  C28 R83 d   1      44.241  37.886  89.397  0.00  0.00    -0.054 C 
ATOM     48  H20 R83 d   1      42.157  38.412  88.973  0.00  0.00     0.056 H 
ATOM     49  H21 R83 d   1      43.352  39.218  87.901  0.00  0.00     0.056 H 
ATOM     50  C29 R83 d   1      44.111  36.447  89.935  0.00  0.00    -0.063 C 
ATOM     51  H22 R83 d   1      44.223  38.581  90.249  0.00  0.00     0.034 H 
ATOM     52  H23 R83 d   1      45.202  37.977  88.870  0.00  0.00     0.034 H 
ATOM     53  C30 R83 d   1      43.581  35.432  88.885  0.00  0.00    -0.054 C 
ATOM     54  H24 R83 d   1      43.418  36.457  90.789  0.00  0.00     0.033 H 
ATOM     55  H25 R83 d   1      45.103  36.111  90.272  0.00  0.00     0.033 H 
ATOM     56  C31 R83 d   1      42.391  36.054  88.134  0.00  0.00    -0.016 C 
ATOM     57  H26 R83 d   1      43.255  34.513  89.394  0.00  0.00     0.034 H 
ATOM     58  H27 R83 d   1      44.381  35.191  88.170  0.00  0.00     0.034 H 
ATOM     59  H28 R83 d   1      41.965  35.325  87.428  0.00  0.00     0.056 H 
ATOM     60  H29 R83 d   1      41.615  36.370  88.847  0.00  0.00     0.056 H 
ENDBRANCH  43  45
ENDBRANCH  32  35
ENDBRANCH   1  32
TORSDOF 11
