REMARK  7 active torsions:
REMARK  status: ('A' for Active; 'I' for Inactive)
REMARK    1  A    between atoms: N2_2  and  C3_3 
REMARK    2  A    between atoms: N6_6  and  S7_7 
REMARK    3  A    between atoms: S7_7  and  C10_10 
REMARK    4  A    between atoms: C13_13  and  C16_16 
REMARK    5  A    between atoms: C19_19  and  N31_31 
REMARK    6  A    between atoms: C20_20  and  C22_22 
REMARK       I    between atoms: C22_22  and  N24_24 
REMARK    7  A    between atoms: N24_24  and  C25_25 
ROOT
ATOM      1  C10 GR9 d   1      26.440 -18.414   9.860  0.00  0.00     0.079 A 
ATOM      2  C11 GR9 d   1      26.361 -18.811   8.515  0.00  0.00    -0.059 A 
ATOM      3  C12 GR9 d   1      25.145 -18.894   7.865  0.00  0.00    -0.069 A 
ATOM      4  C13 GR9 d   1      23.960 -18.587   8.551  0.00  0.00    -0.006 A 
ATOM      5  C14 GR9 d   1      24.037 -18.157   9.889  0.00  0.00    -0.069 A 
ATOM      6  C15 GR9 d   1      25.257 -18.096  10.534  0.00  0.00    -0.059 A 
ATOM      7  H   GR9 d   1      27.275 -19.058   7.975  0.00  0.00     0.085 H 
ATOM      8  H   GR9 d   1      25.106 -19.198   6.819  0.00  0.00     0.085 H 
ATOM      9  H   GR9 d   1      23.129 -17.870  10.419  0.00  0.00     0.085 H 
ATOM     10  H   GR9 d   1      25.298 -17.796  11.581  0.00  0.00     0.085 H 
ENDROOT
BRANCH   4  11
ATOM     11  C16 GR9 d   1      22.634 -18.610   7.857  0.00  0.00     0.085 A 
ATOM     12  C17 GR9 d   1      22.439 -19.325   6.657  0.00  0.00     0.033 A 
ATOM     13  N18 GR9 d   1      21.282 -19.252   6.017  0.00  0.00    -0.239 NA
ATOM     14  H   GR9 d   1      23.244 -19.940   6.255  0.00  0.00     0.118 H 
ATOM     15  C19 GR9 d   1      20.262 -18.531   6.506  0.00  0.00     0.155 A 
ATOM     16  C20 GR9 d   1      20.433 -17.818   7.722  0.00  0.00     0.170 A 
ATOM     17  N21 GR9 d   1      21.622 -17.881   8.343  0.00  0.00    -0.237 NA
BRANCH  15  18
ATOM     18  N31 GR9 d   1      19.071 -18.494   5.806  0.00  0.00    -0.382 N 
ATOM     19  H   GR9 d   1      18.977 -19.010   4.931  0.00  0.00     0.157 HD
ATOM     20  H   GR9 d   1      18.286 -17.951   6.164  0.00  0.00     0.157 HD
ENDBRANCH  15  18
BRANCH  16  21
ATOM     21  C22 GR9 d   1      19.374 -16.966   8.316  0.00  0.00     0.278 C 
ATOM     22  O23 GR9 d   1      18.293 -16.837   7.755  0.00  0.00    -0.265 OA
ATOM     23  N24 GR9 d   1      19.690 -16.312   9.471  0.00  0.00    -0.320 N 
ATOM     24  H   GR9 d   1      20.636 -16.470   9.818  0.00  0.00     0.169 HD
BRANCH  23  25
ATOM     25  C25 GR9 d   1      18.902 -15.455  10.249  0.00  0.00     0.052 A 
ATOM     26  C26 GR9 d   1      19.515 -14.848  11.339  0.00  0.00    -0.054 A 
ATOM     27  C27 GR9 d   1      18.794 -13.970  12.148  0.00  0.00    -0.064 A 
ATOM     28  H   GR9 d   1      20.561 -15.059  11.562  0.00  0.00     0.087 H 
ATOM     29  C28 GR9 d   1      17.449 -13.777  11.868  0.00  0.00     0.002 A 
ATOM     30  H   GR9 d   1      19.274 -13.450  12.977  0.00  0.00     0.085 H 
ATOM     31  N29 GR9 d   1      16.871 -14.376  10.828  0.00  0.00    -0.271 NA
ATOM     32  H   GR9 d   1      16.856 -13.125  12.509  0.00  0.00     0.114 H 
ATOM     33  C30 GR9 d   1      17.537 -15.209  10.031  0.00  0.00     0.028 A 
ATOM     34  H   GR9 d   1      17.021 -15.701   9.207  0.00  0.00     0.118 H 
ENDBRANCH  23  25
ENDBRANCH  16  21
ENDBRANCH   4  11
BRANCH   1  35
ATOM     35  S7  GR9 d   1      28.017 -18.343  10.703  0.00  0.00     0.260 S 
ATOM     36  O8  GR9 d   1      27.826 -17.693  11.960  0.00  0.00    -0.200 OA
ATOM     37  O9  GR9 d   1      28.973 -17.878   9.747  0.00  0.00    -0.200 OA
BRANCH  35  38
ATOM     38  N6  GR9 d   1      28.411 -19.910  11.056  0.00  0.00    -0.303 N 
ATOM     39  C5  GR9 d   1      28.118 -20.422  12.417  0.00  0.00     0.030 C 
ATOM     40  C4  GR9 d   1      27.633 -21.881  12.342  0.00  0.00     0.128 C 
ATOM     41  H   GR9 d   1      29.026 -20.378  13.018  0.00  0.00     0.068 H 
ATOM     42  H   GR9 d   1      27.338 -19.809  12.869  0.00  0.00     0.068 H 
ATOM     43  N2  GR9 d   1      28.594 -22.639  11.526  0.00  0.00     0.087 N 
ATOM     44  H   GR9 d   1      27.570 -22.308  13.343  0.00  0.00     0.082 H 
ATOM     45  H   GR9 d   1      26.641 -21.925  11.893  0.00  0.00     0.082 H 
ATOM     46  C1  GR9 d   1      28.626 -22.234  10.104  0.00  0.00     0.128 C 
ATOM     47  C6  GR9 d   1      29.061 -20.758  10.007  0.00  0.00     0.030 C 
ATOM     48  H   GR9 d   1      27.634 -22.353   9.668  0.00  0.00     0.082 H 
ATOM     49  H   GR9 d   1      29.334 -22.860   9.561  0.00  0.00     0.082 H 
ATOM     50  H   GR9 d   1      28.762 -20.379   9.030  0.00  0.00     0.068 H 
ATOM     51  H   GR9 d   1      30.140 -20.711  10.152  0.00  0.00     0.068 H 
BRANCH  43  52
ATOM     52  C3  GR9 d   1      28.415 -24.083  11.706  0.00  0.00     0.095 C 
ATOM     53  H   GR9 d   1      28.568 -24.339  12.754  0.00  0.00     0.071 H 
ATOM     54  H   GR9 d   1      27.405 -24.363  11.406  0.00  0.00     0.071 H 
ATOM     55  H   GR9 d   1      29.139 -24.617  11.091  0.00  0.00     0.071 H 
ENDBRANCH  43  52
ENDBRANCH  35  38
ENDBRANCH   1  35
TORSDOF 7
