REMARK  9 active torsions:
REMARK  status: ('A' for Active; 'I' for Inactive)
REMARK    1  A    between atoms: C18_2  and  C17_4 
REMARK    2  A    between atoms: C17_4  and  O16_5 
REMARK    3  A    between atoms: O16_5  and  C13_6 
REMARK    4  A    between atoms: C10_11  and  C2_12 
REMARK    5  A    between atoms: C3_17  and  N21_22 
REMARK    6  A    between atoms: N21_22  and  C22_23 
REMARK    7  A    between atoms: C22_23  and  C23_24 
REMARK    8  A    between atoms: C23_24  and  C24_25 
REMARK    9  A    between atoms: C24_25  and  C25_26 
ROOT
ATOM      1  C2  46B d   1     -28.048  83.973   6.956  0.00  0.00     0.089 A 
ATOM      2  N1  46B d   1     -27.435  83.511   8.051  0.00  0.00    -0.338 N 
ATOM      3  C9  46B d   1     -28.350  82.864   8.793  0.00  0.00     0.113 A 
ATOM      4  C8  46B d   1     -28.245  82.224   9.964  0.00  0.00    -0.039 A 
ATOM      5  C7  46B d   1     -29.364  81.621  10.534  0.00  0.00    -0.061 A 
ATOM      6  C3  46B d   1     -29.339  83.605   7.021  0.00  0.00     0.137 A 
ATOM      7  N4  46B d   1     -29.522  82.928   8.153  0.00  0.00    -0.291 N 
ATOM      8  C5  46B d   1     -30.636  82.374   8.656  0.00  0.00     0.005 A 
ATOM      9  C6  46B d   1     -30.586  81.694   9.873  0.00  0.00     0.027 A 
ATOM     10 BR1  46B d   1     -32.162  80.915  10.583  0.00  0.00    -0.050 Br
ATOM     11  H7  46B d   1     -26.439  83.630   8.284  0.00  0.00     0.167 HD
ATOM     12  H8  46B d   1     -27.287  82.175  10.470  0.00  0.00     0.089 H 
ATOM     13  H9  46B d   1     -29.284  81.101  11.482  0.00  0.00     0.085 H 
ATOM     14  H10 46B d   1     -31.573  82.455   8.117  0.00  0.00     0.114 H 
ENDROOT
BRANCH   1  15
ATOM     15  C10 46B d   1     -27.388  84.789   5.884  0.00  0.00    -0.005 A 
ATOM     16  C15 46B d   1     -27.924  84.897   4.609  0.00  0.00    -0.068 A 
ATOM     17  C14 46B d   1     -27.307  85.682   3.645  0.00  0.00    -0.050 A 
ATOM     18  H4  46B d   1     -28.834  84.363   4.363  0.00  0.00     0.085 H 
ATOM     19  C13 46B d   1     -26.145  86.389   3.948  0.00  0.00     0.069 A 
ATOM     20  H3  46B d   1     -27.732  85.746   2.650  0.00  0.00     0.087 H 
ATOM     21  C12 46B d   1     -25.608  86.306   5.229  0.00  0.00    -0.050 A 
ATOM     22  C11 46B d   1     -26.239  85.520   6.194  0.00  0.00    -0.068 A 
ATOM     23  H5  46B d   1     -24.703  86.850   5.476  0.00  0.00     0.087 H 
ATOM     24  H6  46B d   1     -25.832  85.476   7.198  0.00  0.00     0.085 H 
BRANCH  19  25
ATOM     25  O16 46B d   1     -25.520  87.162   3.004  0.00  0.00    -0.341 OA
BRANCH  25  26
ATOM     26  C17 46B d   1     -25.489  86.750   1.624  0.00  0.00     0.105 C 
ATOM     27  H1  46B d   1     -24.448  86.732   1.269  0.00  0.00     0.091 H 
ATOM     28  H2  46B d   1     -25.926  85.745   1.530  0.00  0.00     0.091 H 
BRANCH  26  29
ATOM     29  C18 46B d   1     -26.287  87.726   0.798  0.00  0.00     0.198 C 
ATOM     30  O19 46B d   1     -25.674  88.682   0.286  0.00  0.00    -0.646 OA
ATOM     31  O20 46B d   1     -27.516  87.558   0.660  0.00  0.00    -0.646 OA
ENDBRANCH  26  29
ENDBRANCH  25  26
ENDBRANCH  19  25
ENDBRANCH   1  15
BRANCH   6  32
ATOM     32  N21 46B d   1     -30.318  83.874   6.127  0.00  0.00    -0.374 N 
ATOM     33  H11 46B d   1     -30.552  84.859   5.937  0.00  0.00     0.161 HD
BRANCH  32  34
ATOM     34  C22 46B d   1     -31.059  82.835   5.419  0.00  0.00    -0.006 C 
ATOM     35  H12 46B d   1     -32.134  83.052   5.509  0.00  0.00     0.064 H 
ATOM     36  H13 46B d   1     -30.839  81.867   5.893  0.00  0.00     0.064 H 
BRANCH  34  37
ATOM     37  C23 46B d   1     -30.707  82.736   3.926  0.00  0.00    -0.051 C 
ATOM     38  H14 46B d   1     -29.657  82.423   3.830  0.00  0.00     0.035 H 
ATOM     39  H15 46B d   1     -30.838  83.726   3.465  0.00  0.00     0.035 H 
BRANCH  37  40
ATOM     40  C24 46B d   1     -31.592  81.726   3.186  0.00  0.00    -0.067 C 
ATOM     41  H16 46B d   1     -32.638  82.062   3.249  0.00  0.00     0.032 H 
ATOM     42  H17 46B d   1     -31.492  80.746   3.675  0.00  0.00     0.032 H 
BRANCH  40  43
ATOM     43  C25 46B d   1     -31.217  81.578   1.722  0.00  0.00    -0.076 C 
ATOM     44  H18 46B d   1     -31.883  80.844   1.245  0.00  0.00     0.027 H 
ATOM     45  H19 46B d   1     -30.175  81.233   1.643  0.00  0.00     0.027 H 
ATOM     46  H20 46B d   1     -31.321  82.550   1.217  0.00  0.00     0.027 H 
ENDBRANCH  40  43
ENDBRANCH  37  40
ENDBRANCH  34  37
ENDBRANCH  32  34
ENDBRANCH   6  32
TORSDOF 9
