REMARK  9 active torsions:
REMARK  status: ('A' for Active; 'I' for Inactive)
REMARK    1  A    between atoms: C1_1  and  N2_2 
REMARK    2  A    between atoms: N5_5  and  S8_8 
REMARK    3  A    between atoms: S8_8  and  C11_11 
REMARK    4  A    between atoms: C14_14  and  C17_17 
REMARK    5  A    between atoms: C19_19  and  C24_24 
REMARK    6  A    between atoms: C20_20  and  N23_23 
REMARK       I    between atoms: C24_24  and  N26_26 
REMARK    7  A    between atoms: N26_26  and  C27_27 
REMARK    8  A    between atoms: C32_32  and  C33_33 
REMARK    9  A    between atoms: C33_33  and  N34_34 
ROOT
ATOM      1  C17 6LQ d   1      24.381  19.679   8.535  0.00  0.00    -0.007 A 
ATOM      2  C18 6LQ d   1      25.299  18.907   9.275  0.00  0.00    -0.052 A 
ATOM      3  C19 6LQ d   1      26.557  18.636   8.701  0.00  0.00     0.078 A 
ATOM      4  C20 6LQ d   1      26.817  19.146   7.394  0.00  0.00     0.136 A 
ATOM      5  N21 6LQ d   1      25.934  19.885   6.758  0.00  0.00    -0.242 NA
ATOM      6  C22 6LQ d   1      24.747  20.149   7.266  0.00  0.00     0.015 A 
ATOM      7  H   6LQ d   1      25.043  18.530  10.265  0.00  0.00     0.086 H 
ATOM      8  H   6LQ d   1      24.038  20.743   6.690  0.00  0.00     0.116 H 
ENDROOT
BRANCH   1   9
ATOM      9  C14 6LQ d   1      23.013  19.957   9.050  0.00  0.00    -0.024 A 
ATOM     10  C13 6LQ d   1      21.925  19.885   8.160  0.00  0.00    -0.071 A 
ATOM     11  C12 6LQ d   1      20.642  20.093   8.617  0.00  0.00    -0.059 A 
ATOM     12  H   6LQ d   1      22.098  19.664   7.107  0.00  0.00     0.084 H 
ATOM     13  C11 6LQ d   1      20.437  20.317   9.977  0.00  0.00     0.079 A 
ATOM     14  H   6LQ d   1      19.800  20.082   7.925  0.00  0.00     0.085 H 
ATOM     15  C16 6LQ d   1      21.508  20.366  10.870  0.00  0.00    -0.059 A 
ATOM     16  C15 6LQ d   1      22.794  20.186  10.414  0.00  0.00    -0.071 A 
ATOM     17  H   6LQ d   1      21.326  20.547  11.929  0.00  0.00     0.085 H 
ATOM     18  H   6LQ d   1      23.634  20.221  11.108  0.00  0.00     0.084 H 
BRANCH  13  19
ATOM     19  S8  6LQ d   1      18.800  20.595  10.572  0.00  0.00     0.260 S 
ATOM     20  O9  6LQ d   1      18.807  20.324  11.961  0.00  0.00    -0.200 OA
ATOM     21  O10 6LQ d   1      18.007  19.858   9.648  0.00  0.00    -0.200 OA
BRANCH  19  22
ATOM     22  N5  6LQ d   1      18.534  22.213  10.347  0.00  0.00    -0.303 N 
ATOM     23  C4  6LQ d   1      17.970  22.650   9.038  0.00  0.00     0.030 C 
ATOM     24  C3  6LQ d   1      18.258  24.130   8.723  0.00  0.00     0.128 C 
ATOM     25  H   6LQ d   1      18.436  22.048   8.258  0.00  0.00     0.068 H 
ATOM     26  H   6LQ d   1      16.888  22.524   9.084  0.00  0.00     0.068 H 
ATOM     27  N2  6LQ d   1      18.037  24.936   9.938  0.00  0.00     0.087 N 
ATOM     28  H   6LQ d   1      19.291  24.240   8.394  0.00  0.00     0.082 H 
ATOM     29  H   6LQ d   1      17.592  24.472   7.931  0.00  0.00     0.082 H 
ATOM     30  C7  6LQ d   1      19.035  24.606  10.976  0.00  0.00     0.128 C 
ATOM     31  C6  6LQ d   1      18.858  23.151  11.450  0.00  0.00     0.030 C 
ATOM     32  H   6LQ d   1      18.897  25.275  11.826  0.00  0.00     0.082 H 
ATOM     33  H   6LQ d   1      20.034  24.723  10.557  0.00  0.00     0.082 H 
ATOM     34  H   6LQ d   1      19.802  22.830  11.891  0.00  0.00     0.068 H 
ATOM     35  H   6LQ d   1      18.027  23.132  12.155  0.00  0.00     0.068 H 
BRANCH  27  36
ATOM     36  C1  6LQ d   1      18.017  26.373   9.623  0.00  0.00     0.095 C 
ATOM     37  H   6LQ d   1      17.770  26.937  10.522  0.00  0.00     0.071 H 
ATOM     38  H   6LQ d   1      18.998  26.678   9.259  0.00  0.00     0.071 H 
ATOM     39  H   6LQ d   1      17.268  26.565   8.855  0.00  0.00     0.071 H 
ENDBRANCH  27  36
ENDBRANCH  19  22
ENDBRANCH  13  19
ENDBRANCH   1   9
BRANCH   3  40
ATOM     40  C24 6LQ d   1      27.487  17.740   9.422  0.00  0.00     0.260 C 
ATOM     41  O25 6LQ d   1      28.595  17.493   8.963  0.00  0.00    -0.267 OA
ATOM     42  N26 6LQ d   1      27.024  17.138  10.545  0.00  0.00    -0.321 N 
ATOM     43  H   6LQ d   1      26.060  17.360  10.793  0.00  0.00     0.169 HD
BRANCH  42  44
ATOM     44  C27 6LQ d   1      27.677  16.256  11.413  0.00  0.00     0.060 A 
ATOM     45  C28 6LQ d   1      29.037  16.381  11.713  0.00  0.00     0.028 A 
ATOM     46  N29 6LQ d   1      29.638  15.526  12.533  0.00  0.00    -0.271 NA
ATOM     47  H   6LQ d   1      29.613  17.192  11.267  0.00  0.00     0.118 H 
ATOM     48  C30 6LQ d   1      28.957  14.582  13.180  0.00  0.00     0.003 A 
ATOM     49  C31 6LQ d   1      27.601  14.392  12.937  0.00  0.00    -0.056 A 
ATOM     50  H   6LQ d   1      29.468  13.952  13.908  0.00  0.00     0.114 H 
ATOM     51  C32 6LQ d   1      26.945  15.239  12.045  0.00  0.00    -0.001 A 
ATOM     52  H   6LQ d   1      27.058  13.591  13.438  0.00  0.00     0.086 H 
BRANCH  51  53
ATOM     53  C33 6LQ d   1      25.464  15.032  11.827  0.00  0.00     0.139 C 
ATOM     54  H   6LQ d   1      25.092  14.434  12.659  0.00  0.00     0.087 H 
ATOM     55  H   6LQ d   1      25.340  14.553  10.856  0.00  0.00     0.087 H 
BRANCH  53  56
ATOM     56  N34 6LQ d   1      24.689  16.288  11.803  0.00  0.00     0.092 N 
ATOM     57  C35 6LQ d   1      24.899  17.220  12.958  0.00  0.00     0.114 C 
ATOM     58  C36 6LQ d   1      23.491  17.796  13.203  0.00  0.00    -0.038 C 
ATOM     59  H   6LQ d   1      25.639  17.992  12.747  0.00  0.00     0.079 H 
ATOM     60  H   6LQ d   1      25.308  16.718  13.835  0.00  0.00     0.079 H 
ATOM     61  C37 6LQ d   1      22.604  16.538  12.912  0.00  0.00    -0.038 C 
ATOM     62  H   6LQ d   1      23.252  18.660  12.582  0.00  0.00     0.035 H 
ATOM     63  H   6LQ d   1      23.351  18.215  14.199  0.00  0.00     0.035 H 
ATOM     64  C38 6LQ d   1      23.254  16.005  11.627  0.00  0.00     0.114 C 
ATOM     65  H   6LQ d   1      21.543  16.764  12.806  0.00  0.00     0.035 H 
ATOM     66  H   6LQ d   1      22.587  15.815  13.728  0.00  0.00     0.035 H 
ATOM     67  H   6LQ d   1      23.060  14.943  11.478  0.00  0.00     0.079 H 
ATOM     68  H   6LQ d   1      22.848  16.479  10.734  0.00  0.00     0.079 H 
ENDBRANCH  53  56
ENDBRANCH  51  53
ENDBRANCH  42  44
ENDBRANCH   3  40
BRANCH   4  69
ATOM     69  N23 6LQ d   1      27.975  18.912   6.708  0.00  0.00    -0.383 N 
ATOM     70  H   6LQ d   1      28.711  18.345   7.129  0.00  0.00     0.157 HD
ATOM     71  H   6LQ d   1      28.103  19.304   5.775  0.00  0.00     0.157 HD
ENDBRANCH   4  69
TORSDOF 9
