REMARK  11 active torsions:
REMARK  status: ('A' for Active; 'I' for Inactive)
REMARK    1  A    between atoms: N2_2  and  C1_1 
REMARK    2  A    between atoms: S7_7  and  N6_6 
REMARK    3  A    between atoms: C10_10  and  S7_7 
REMARK    4  A    between atoms: C16_16  and  C13_13 
REMARK    5  A    between atoms: C19_19  and  N31_28 
REMARK    6  A    between atoms: C22_22  and  C20_20 
REMARK       I    between atoms: N24_24  and  C22_22 
REMARK    7  A    between atoms: C25_25  and  N24_24 
REMARK    8  A    between atoms: C30_27  and  C25_25 
REMARK    9  A    between atoms: O29_31  and  C27_26 
REMARK   10  A    between atoms: C28_30  and  C30_27 
REMARK   11  A    between atoms: C28_30  and  O29_31 
ROOT
ATOM      1  C10 KDI d   1      41.450  40.360  54.689  0.00  0.00     0.079 A 
ATOM      2  C11 KDI d   1      41.258  40.167  53.317  0.00  0.00    -0.059 A 
ATOM      3  C12 KDI d   1      41.005  38.895  52.856  0.00  0.00    -0.069 A 
ATOM      4  C13 KDI d   1      41.001  37.802  53.755  0.00  0.00    -0.006 A 
ATOM      5  C14 KDI d   1      41.242  37.997  55.135  0.00  0.00    -0.069 A 
ATOM      6  C15 KDI d   1      41.467  39.284  55.596  0.00  0.00    -0.059 A 
ATOM      7  H   KDI d   1      41.308  41.008  52.626  0.00  0.00     0.085 H 
ATOM      8  H   KDI d   1      40.807  38.729  51.797  0.00  0.00     0.085 H 
ATOM      9  H   KDI d   1      41.251  37.151  55.822  0.00  0.00     0.085 H 
ATOM     10  H   KDI d   1      41.656  39.462  56.655  0.00  0.00     0.085 H 
ENDROOT
BRANCH   4  11
ATOM     11  C16 KDI d   1      40.680  36.445  53.226  0.00  0.00     0.085 A 
ATOM     12  C17 KDI d   1      41.171  36.042  51.967  0.00  0.00     0.033 A 
ATOM     13  N18 KDI d   1      40.857  34.847  51.486  0.00  0.00    -0.239 NA
ATOM     14  H   KDI d   1      41.808  36.712  51.390  0.00  0.00     0.118 H 
ATOM     15  C19 KDI d   1      40.027  34.033  52.152  0.00  0.00     0.155 A 
ATOM     16  C20 KDI d   1      39.500  34.414  53.415  0.00  0.00     0.170 A 
ATOM     17  N21 KDI d   1      39.830  35.638  53.883  0.00  0.00    -0.237 NA
BRANCH  15  18
ATOM     18  N31 KDI d   1      39.733  32.795  51.598  0.00  0.00    -0.382 N 
ATOM     19  H   KDI d   1      40.146  32.525  50.705  0.00  0.00     0.157 HD
ATOM     20  H   KDI d   1      39.104  32.155  52.084  0.00  0.00     0.157 HD
ENDBRANCH  15  18
BRANCH  16  21
ATOM     21  C22 KDI d   1      38.567  33.536  54.197  0.00  0.00     0.274 C 
ATOM     22  O23 KDI d   1      38.085  32.514  53.720  0.00  0.00    -0.266 OA
ATOM     23  N24 KDI d   1      38.267  33.919  55.463  0.00  0.00    -0.355 N 
ATOM     24  H   KDI d   1      38.718  34.769  55.801  0.00  0.00     0.162 HD
BRANCH  23  25
ATOM     25  C25 KDI d   1      37.362  33.240  56.399  0.00  0.00    -0.003 C 
ATOM     26  H   KDI d   1      37.884  33.018  57.330  0.00  0.00     0.064 H 
ATOM     27  H   KDI d   1      37.016  32.300  55.970  0.00  0.00     0.064 H 
BRANCH  25  28
ATOM     28  C30 KDI d   1      36.169  34.167  56.671  0.00  0.00    -0.030 C 
ATOM     29  H   KDI d   1      35.589  33.731  57.484  0.00  0.00     0.038 H 
ATOM     30  H   KDI d   1      35.602  34.259  55.744  0.00  0.00     0.038 H 
BRANCH  28  31
ATOM     31  C28 KDI d   1      36.592  35.583  57.104  0.00  0.00     0.020 C 
ATOM     32  H   KDI d   1      37.565  35.504  57.588  0.00  0.00     0.074 H 
ATOM     33  H   KDI d   1      35.816  35.973  57.763  0.00  0.00     0.074 H 
BRANCH  31  34
ATOM     34  O29 KDI d   1      36.726  36.494  56.000  0.00  0.00    -0.396 OA
BRANCH  34  35
ATOM     35  C27 KDI d   1      37.836  37.389  56.111  0.00  0.00     0.004 C 
ATOM     36  H   KDI d   1      37.727  37.992  57.013  0.00  0.00     0.066 H 
ATOM     37  H   KDI d   1      38.760  36.814  56.167  0.00  0.00     0.066 H 
ATOM     38  H   KDI d   1      37.864  38.041  55.238  0.00  0.00     0.066 H 
ENDBRANCH  34  35
ENDBRANCH  31  34
ENDBRANCH  28  31
ENDBRANCH  25  28
ENDBRANCH  23  25
ENDBRANCH  16  21
ENDBRANCH   4  11
BRANCH   1  39
ATOM     39  S7  KDI d   1      41.774  41.998  55.257  0.00  0.00     0.260 S 
ATOM     40  O8  KDI d   1      41.409  42.034  56.636  0.00  0.00    -0.200 OA
ATOM     41  O9  KDI d   1      41.198  42.863  54.275  0.00  0.00    -0.200 OA
BRANCH  39  42
ATOM     42  N6  KDI d   1      43.442  42.144  55.138  0.00  0.00    -0.303 N 
ATOM     43  C5  KDI d   1      44.305  41.758  56.301  0.00  0.00     0.030 C 
ATOM     44  C4  KDI d   1      45.780  41.495  55.940  0.00  0.00     0.128 C 
ATOM     45  H   KDI d   1      44.291  42.594  57.001  0.00  0.00     0.068 H 
ATOM     46  H   KDI d   1      43.903  40.828  56.702  0.00  0.00     0.068 H 
ATOM     47  N2  KDI d   1      46.231  42.423  54.891  0.00  0.00     0.087 N 
ATOM     48  H   KDI d   1      46.393  41.643  56.829  0.00  0.00     0.082 H 
ATOM     49  H   KDI d   1      45.877  40.473  55.572  0.00  0.00     0.082 H 
ATOM     50  C3  KDI d   1      45.483  42.222  53.634  0.00  0.00     0.128 C 
ATOM     51  C6  KDI d   1      44.021  42.658  53.857  0.00  0.00     0.030 C 
ATOM     52  H   KDI d   1      45.517  41.171  53.346  0.00  0.00     0.082 H 
ATOM     53  H   KDI d   1      45.930  42.816  52.837  0.00  0.00     0.082 H 
ATOM     54  H   KDI d   1      43.426  42.252  53.039  0.00  0.00     0.068 H 
ATOM     55  H   KDI d   1      44.004  43.747  53.900  0.00  0.00     0.068 H 
BRANCH  47  56
ATOM     56  C1  KDI d   1      47.688  42.347  54.682  0.00  0.00     0.095 C 
ATOM     57  H   KDI d   1      48.201  42.603  55.609  0.00  0.00     0.071 H 
ATOM     58  H   KDI d   1      47.959  41.334  54.383  0.00  0.00     0.071 H 
ATOM     59  H   KDI d   1      47.979  43.048  53.900  0.00  0.00     0.071 H 
ENDBRANCH  47  56
ENDBRANCH  39  42
ENDBRANCH   1  39
TORSDOF 11
