REMARK  11 active torsions:
REMARK  status: ('A' for Active; 'I' for Inactive)
REMARK    1  A    between atoms: C1_1  and  N2_2 
REMARK    2  A    between atoms: N2_2  and  C3_3 
REMARK    3  A    between atoms: N2_2  and  C4_4 
REMARK    4  A    between atoms: C4_4  and  C5_5 
REMARK    5  A    between atoms: C5_5  and  N6_6 
REMARK    6  A    between atoms: N6_6  and  S7_7 
REMARK    7  A    between atoms: S7_7  and  C10_10 
REMARK    8  A    between atoms: C13_13  and  C16_16 
REMARK    9  A    between atoms: C19_19  and  N31_31 
REMARK   10  A    between atoms: C20_20  and  C22_22 
REMARK       I    between atoms: C22_22  and  N24_24 
REMARK   11  A    between atoms: N24_24  and  C25_25 
ROOT
ATOM      1  C10 7YG d   1       5.292  27.105   7.369  0.00  0.00     0.079 A 
ATOM      2  C11 7YG d   1       4.417  27.168   8.439  0.00  0.00    -0.059 A 
ATOM      3  C12 7YG d   1       3.457  28.162   8.478  0.00  0.00    -0.069 A 
ATOM      4  C13 7YG d   1       3.365  29.127   7.475  0.00  0.00    -0.006 A 
ATOM      5  C14 7YG d   1       4.267  29.040   6.408  0.00  0.00    -0.069 A 
ATOM      6  C15 7YG d   1       5.235  28.052   6.356  0.00  0.00    -0.059 A 
ATOM      7  H   7YG d   1       4.484  26.439   9.246  0.00  0.00     0.085 H 
ATOM      8  H   7YG d   1       2.756  28.192   9.312  0.00  0.00     0.085 H 
ATOM      9  H   7YG d   1       4.206  29.768   5.599  0.00  0.00     0.085 H 
ATOM     10  H   7YG d   1       5.944  28.018   5.529  0.00  0.00     0.085 H 
ENDROOT
BRANCH   4  11
ATOM     11  C16 7YG d   1       2.332  30.193   7.533  0.00  0.00     0.085 A 
ATOM     12  C17 7YG d   1       2.455  31.401   6.841  0.00  0.00     0.033 A 
ATOM     13  N18 7YG d   1       1.635  32.437   7.049  0.00  0.00    -0.239 NA
ATOM     14  H   7YG d   1       3.251  31.503   6.103  0.00  0.00     0.118 H 
ATOM     15  C19 7YG d   1       0.632  32.292   7.942  0.00  0.00     0.155 A 
ATOM     16  C20 7YG d   1       0.492  31.044   8.659  0.00  0.00     0.170 A 
ATOM     17  N21 7YG d   1       1.338  30.024   8.423  0.00  0.00    -0.237 NA
BRANCH  15  18
ATOM     18  N31 7YG d   1      -0.168  33.335   8.173  0.00  0.00    -0.382 N 
ATOM     19  H   7YG d   1      -0.014  34.215   7.680  0.00  0.00     0.157 HD
ATOM     20  H   7YG d   1      -0.933  33.252   8.842  0.00  0.00     0.157 HD
ENDBRANCH  15  18
BRANCH  16  21
ATOM     21  C22 7YG d   1      -0.578  30.806   9.685  0.00  0.00     0.278 C 
ATOM     22  O23 7YG d   1      -1.470  31.631   9.849  0.00  0.00    -0.265 OA
ATOM     23  N24 7YG d   1      -0.468  29.642  10.359  0.00  0.00    -0.320 N 
ATOM     24  H   7YG d   1       0.348  29.072  10.136  0.00  0.00     0.169 HD
BRANCH  23  25
ATOM     25  C25 7YG d   1      -1.344  29.115  11.336  0.00  0.00     0.052 A 
ATOM     26  C26 7YG d   1      -0.848  28.123  12.165  0.00  0.00    -0.054 A 
ATOM     27  C27 7YG d   1      -1.672  27.558  13.119  0.00  0.00    -0.064 A 
ATOM     28  H   7YG d   1       0.185  27.790  12.066  0.00  0.00     0.087 H 
ATOM     29  C28 7YG d   1      -2.982  27.979  13.191  0.00  0.00     0.002 A 
ATOM     30  H   7YG d   1      -1.294  26.796  13.800  0.00  0.00     0.085 H 
ATOM     31  N29 7YG d   1      -3.495  28.933  12.408  0.00  0.00    -0.271 NA
ATOM     32  H   7YG d   1      -3.635  27.509  13.926  0.00  0.00     0.114 H 
ATOM     33  C30 7YG d   1      -2.682  29.479  11.494  0.00  0.00     0.028 A 
ATOM     34  H   7YG d   1      -3.087  30.249  10.838  0.00  0.00     0.118 H 
ENDBRANCH  23  25
ENDBRANCH  16  21
ENDBRANCH   4  11
BRANCH   1  35
ATOM     35  S7  7YG d   1       6.532  25.856   7.341  0.00  0.00     0.258 S 
ATOM     36  O8  7YG d   1       7.171  25.876   6.061  0.00  0.00    -0.201 OA
ATOM     37  O9  7YG d   1       7.325  26.017   8.523  0.00  0.00    -0.201 OA
BRANCH  35  38
ATOM     38  N6  7YG d   1       5.789  24.429   7.476  0.00  0.00    -0.314 N 
ATOM     39  H   7YG d   1       6.077  23.776   8.205  0.00  0.00     0.172 HD
BRANCH  38  40
ATOM     40  C5  7YG d   1       4.701  24.061   6.559  0.00  0.00     0.028 C 
ATOM     41  H   7YG d   1       3.745  24.269   7.040  0.00  0.00     0.067 H 
ATOM     42  H   7YG d   1       4.798  24.641   5.641  0.00  0.00     0.067 H 
BRANCH  40  43
ATOM     43  C4  7YG d   1       4.773  22.575   6.218  0.00  0.00     0.127 C 
ATOM     44  H   7YG d   1       3.898  22.370   5.601  0.00  0.00     0.082 H 
ATOM     45  H   7YG d   1       5.751  22.423   5.761  0.00  0.00     0.082 H 
BRANCH  43  46
ATOM     46  N2  7YG d   1       4.703  21.627   7.336  0.00  0.00     0.081 N 
BRANCH  46  47
ATOM     47  C1  7YG d   1       5.339  20.356   6.999  0.00  0.00     0.095 C 
ATOM     48  H   7YG d   1       4.834  19.915   6.139  0.00  0.00     0.071 H 
ATOM     49  H   7YG d   1       6.388  20.529   6.757  0.00  0.00     0.071 H 
ATOM     50  H   7YG d   1       5.268  19.679   7.850  0.00  0.00     0.071 H 
ENDBRANCH  46  47
BRANCH  46  51
ATOM     51  C3  7YG d   1       3.319  21.402   7.754  0.00  0.00     0.095 C 
ATOM     52  H   7YG d   1       2.878  22.347   8.071  0.00  0.00     0.071 H 
ATOM     53  H   7YG d   1       2.750  20.997   6.918  0.00  0.00     0.071 H 
ATOM     54  H   7YG d   1       3.302  20.695   8.584  0.00  0.00     0.071 H 
ENDBRANCH  46  51
ENDBRANCH  43  46
ENDBRANCH  40  43
ENDBRANCH  38  40
ENDBRANCH  35  38
ENDBRANCH   1  35
TORSDOF 11
