REMARK  6 active torsions:
REMARK  status: ('A' for Active; 'I' for Inactive)
REMARK    1  A    between atoms: C1_1  and  O2_2 
REMARK    2  A    between atoms: O2_2  and  C3_3 
REMARK    3  A    between atoms: C7_7  and  C10_10 
REMARK    4  A    between atoms: C14_14  and  C16_16 
REMARK    5  A    between atoms: C16_16  and  C28_28 
REMARK    6  A    between atoms: C23_23  and  N25_25 
ROOT
ATOM      1  C16 QN7 d   1       5.529   2.489 -20.878  0.00  0.00     0.161 A 
ATOM      2  C17 QN7 d   1       6.259   2.765 -19.576  0.00  0.00     0.135 A 
ATOM      3  N18 QN7 d   1       7.530   2.527 -19.435  0.00  0.00    -0.371 N 
ATOM      4  C19 QN7 d   1       8.051   2.872 -18.100  0.00  0.00     0.056 C 
ATOM      5  C20 QN7 d   1       7.263   3.956 -17.370  0.00  0.00     0.276 C 
ATOM      6  C21 QN7 d   1       5.779   3.618 -17.300  0.00  0.00     0.080 C 
ATOM      7  N22 QN7 d   1       5.395   3.290 -18.667  0.00  0.00    -0.164 N 
ATOM      8  C23 QN7 d   1       4.156   3.242 -19.289  0.00  0.00     0.677 A 
ATOM      9  N24 QN7 d   1       4.132   2.799 -20.502  0.00  0.00    -0.201 N 
ATOM     10  F26 QN7 d   1       7.790   4.056 -16.115  0.00  0.00    -0.203 F 
ATOM     11  F27 QN7 d   1       7.389   5.163 -18.024  0.00  0.00    -0.203 F 
ATOM     12  H11 QN7 d   1       8.117   2.135 -20.185  0.00  0.00     0.161 HD
ATOM     13  H12 QN7 d   1       9.088   3.221 -18.216  0.00  0.00     0.073 H 
ATOM     14  H13 QN7 d   1       8.037   1.963 -17.481  0.00  0.00     0.073 H 
ATOM     15  H14 QN7 d   1       5.204   4.482 -16.935  0.00  0.00     0.075 H 
ATOM     16  H15 QN7 d   1       5.611   2.758 -16.636  0.00  0.00     0.075 H 
ATOM     17  H16 QN7 d   1       3.298   2.683 -21.095  0.00  0.00     0.179 HD
ENDROOT
BRANCH   1  18
ATOM     18  C14 QN7 d   1       5.728   1.025 -21.223  0.00  0.00    -0.017 A 
ATOM     19  C13 QN7 d   1       6.515   0.608 -22.287  0.00  0.00    -0.074 A 
ATOM     20  C12 QN7 d   1       6.681  -0.738 -22.569  0.00  0.00    -0.082 A 
ATOM     21  H9  QN7 d   1       7.008   1.348 -22.908  0.00  0.00     0.084 H 
ATOM     22  C11 QN7 d   1       6.082  -1.697 -21.768  0.00  0.00    -0.072 A 
ATOM     23  H8  QN7 d   1       7.281  -1.042 -23.419  0.00  0.00     0.083 H 
ATOM     24  C10 QN7 d   1       5.311  -1.319 -20.685  0.00  0.00    -0.022 A 
ATOM     25  H7  QN7 d   1       6.219  -2.749 -21.992  0.00  0.00     0.084 H 
ATOM     26  C15 QN7 d   1       5.159   0.038 -20.437  0.00  0.00    -0.063 A 
ATOM     27  H10 QN7 d   1       4.564   0.341 -19.583  0.00  0.00     0.085 H 
BRANCH  24  28
ATOM     28  C7  QN7 d   1       4.728  -2.290 -19.765  0.00  0.00     0.016 A 
ATOM     29  C6  QN7 d   1       5.496  -3.312 -19.234  0.00  0.00    -0.069 A 
ATOM     30  C5  QN7 d   1       5.004  -4.170 -18.269  0.00  0.00    -0.079 A 
ATOM     31  H6  QN7 d   1       6.513  -3.443 -19.585  0.00  0.00     0.085 H 
ATOM     32  C4  QN7 d   1       3.743  -3.981 -17.738  0.00  0.00    -0.048 A 
ATOM     33  H5  QN7 d   1       5.613  -4.998 -17.926  0.00  0.00     0.083 H 
ATOM     34  C3  QN7 d   1       2.962  -2.957 -18.238  0.00  0.00     0.107 A 
ATOM     35  H4  QN7 d   1       3.374  -4.622 -16.946  0.00  0.00     0.087 H 
ATOM     36  C8  QN7 d   1       3.442  -2.166 -19.272  0.00  0.00     0.160 A 
ATOM     37  F9  QN7 d   1       2.655  -1.193 -19.768  0.00  0.00    -0.202 F 
BRANCH  34  38
ATOM     38  O2  QN7 d   1       1.653  -2.723 -17.826  0.00  0.00    -0.353 OA
BRANCH  38  39
ATOM     39  C1  QN7 d   1       1.390  -3.114 -16.473  0.00  0.00     0.011 C 
ATOM     40  H1  QN7 d   1       0.340  -2.897 -16.226  0.00  0.00     0.066 H 
ATOM     41  H2  QN7 d   1       2.049  -2.553 -15.794  0.00  0.00     0.066 H 
ATOM     42  H3  QN7 d   1       1.579  -4.192 -16.360  0.00  0.00     0.066 H 
ENDBRANCH  38  39
ENDBRANCH  34  38
ENDBRANCH  24  28
ENDBRANCH   1  18
BRANCH   1  43
ATOM     43  C28 QN7 d   1       5.952   3.435 -21.994  0.00  0.00    -0.015 A 
ATOM     44  C29 QN7 d   1       5.047   3.841 -22.961  0.00  0.00    -0.057 A 
ATOM     45  C30 QN7 d   1       5.471   4.687 -23.973  0.00  0.00     0.002 A 
ATOM     46  H19 QN7 d   1       4.018   3.501 -22.926  0.00  0.00     0.086 H 
ATOM     47  N31 QN7 d   1       6.720   5.154 -24.103  0.00  0.00    -0.273 NA
ATOM     48  H20 QN7 d   1       4.740   4.993 -24.712  0.00  0.00     0.114 H 
ATOM     49  C32 QN7 d   1       7.585   4.730 -23.171  0.00  0.00     0.002 A 
ATOM     50  C33 QN7 d   1       7.254   3.891 -22.127  0.00  0.00    -0.057 A 
ATOM     51  H21 QN7 d   1       8.612   5.069 -23.242  0.00  0.00     0.114 H 
ATOM     52  H22 QN7 d   1       8.011   3.589 -21.412  0.00  0.00     0.086 H 
ENDBRANCH   1  43
BRANCH   8  53
ATOM     53  N25 QN7 d   1       3.040   3.651 -18.595  0.00  0.00    -0.234 N 
ATOM     54  H17 QN7 d   1       3.132   3.994 -17.628  0.00  0.00     0.174 HD
ATOM     55  H18 QN7 d   1       2.113   3.614 -19.043  0.00  0.00     0.174 HD
ENDBRANCH   8  53
TORSDOF 6
