REMARK  9 active torsions:
REMARK  status: ('A' for Active; 'I' for Inactive)
REMARK    1  A    between atoms: C1_1  and  O2_2 
REMARK    2  A    between atoms: O2_2  and  C3_3 
REMARK    3  A    between atoms: C3_3  and  C4_4 
REMARK    4  A    between atoms: C5_5  and  C6_6 
REMARK    5  A    between atoms: C10_10  and  C12_12 
REMARK    6  A    between atoms: C12_12  and  C24_24 
REMARK    7  A    between atoms: C19_19  and  N21_21 
REMARK    8  A    between atoms: C27_27  and  O30_30 
REMARK    9  A    between atoms: O30_30  and  C31_31 
ROOT
ATOM      1  C12 S8Z d   1       5.478   2.760 -21.124  0.00  0.00     0.163 C 
ATOM      2  C13 S8Z d   1       6.304   3.003 -19.892  0.00  0.00     0.156 C 
ATOM      3  N14 S8Z d   1       7.552   2.740 -19.667  0.00  0.00    -0.267 NA
ATOM      4  C15 S8Z d   1       8.167   3.060 -18.372  0.00  0.00     0.079 C 
ATOM      5  C16 S8Z d   1       7.363   4.097 -17.606  0.00  0.00     0.278 C 
ATOM      6  C17 S8Z d   1       5.877   3.787 -17.608  0.00  0.00     0.080 C 
ATOM      7  N18 S8Z d   1       5.437   3.558 -18.978  0.00  0.00    -0.162 N 
ATOM      8  C19 S8Z d   1       4.157   3.431 -19.444  0.00  0.00     0.677 C 
ATOM      9  N20 S8Z d   1       4.113   2.972 -20.645  0.00  0.00    -0.201 N 
ATOM     10  F22 S8Z d   1       7.565   5.330 -18.142  0.00  0.00    -0.203 F 
ATOM     11  F23 S8Z d   1       7.819   4.163 -16.327  0.00  0.00    -0.203 F 
ATOM     12  H10 S8Z d   1       9.180   3.452 -18.546  0.00  0.00     0.076 H 
ATOM     13  H11 S8Z d   1       8.228   2.141 -17.770  0.00  0.00     0.076 H 
ATOM     14  H12 S8Z d   1       5.323   4.636 -17.181  0.00  0.00     0.075 H 
ATOM     15  H13 S8Z d   1       5.688   2.886 -17.006  0.00  0.00     0.075 H 
ATOM     16  H14 S8Z d   1       3.255   2.784 -21.182  0.00  0.00     0.179 HD
ENDROOT
BRANCH   1  17
ATOM     17  C10 S8Z d   1       5.705   1.331 -21.539  0.00  0.00    -0.016 A 
ATOM     18  C9  S8Z d   1       6.597   0.988 -22.540  0.00  0.00    -0.074 A 
ATOM     19  C8  S8Z d   1       6.796  -0.330 -22.900  0.00  0.00    -0.081 A 
ATOM     20  H8  S8Z d   1       7.149   1.768 -23.051  0.00  0.00     0.084 H 
ATOM     21  C7  S8Z d   1       6.119  -1.336 -22.239  0.00  0.00    -0.065 A 
ATOM     22  H7  S8Z d   1       7.484  -0.575 -23.701  0.00  0.00     0.083 H 
ATOM     23  C6  S8Z d   1       5.249  -1.003 -21.221  0.00  0.00     0.018 A 
ATOM     24  H6  S8Z d   1       6.269  -2.373 -22.516  0.00  0.00     0.085 H 
ATOM     25  C11 S8Z d   1       5.044   0.315 -20.877  0.00  0.00    -0.056 A 
ATOM     26  H9  S8Z d   1       4.355   0.558 -20.076  0.00  0.00     0.086 H 
BRANCH  23  27
ATOM     27  C5  S8Z d   1       4.555  -2.000 -20.484  0.00  0.00    -0.065 C 
ATOM     28  C4  S8Z d   1       3.972  -2.836 -19.853  0.00  0.00    -0.075 C 
BRANCH  28  29
ATOM     29  C3  S8Z d   1       3.265  -3.851 -19.079  0.00  0.00     0.074 C 
ATOM     30  H4  S8Z d   1       2.206  -3.861 -19.377  0.00  0.00     0.093 H 
ATOM     31  H5  S8Z d   1       3.712  -4.836 -19.281  0.00  0.00     0.093 H 
BRANCH  29  32
ATOM     32  O2  S8Z d   1       3.356  -3.573 -17.688  0.00  0.00    -0.384 OA
BRANCH  32  33
ATOM     33  C1  S8Z d   1       2.091  -3.083 -17.267  0.00  0.00     0.005 C 
ATOM     34  H1  S8Z d   1       2.125  -2.857 -16.191  0.00  0.00     0.066 H 
ATOM     35  H2  S8Z d   1       1.321  -3.845 -17.457  0.00  0.00     0.066 H 
ATOM     36  H3  S8Z d   1       1.847  -2.168 -17.827  0.00  0.00     0.066 H 
ENDBRANCH  32  33
ENDBRANCH  29  32
ENDBRANCH  28  29
ENDBRANCH  23  27
ENDBRANCH   1  17
BRANCH   1  37
ATOM     37  C24 S8Z d   1       5.753   3.737 -22.243  0.00  0.00    -0.017 A 
ATOM     38  C25 S8Z d   1       4.840   3.863 -23.277  0.00  0.00    -0.071 A 
ATOM     39  C26 S8Z d   1       5.071   4.740 -24.318  0.00  0.00    -0.050 A 
ATOM     40  H17 S8Z d   1       3.935   3.267 -23.269  0.00  0.00     0.084 H 
ATOM     41  C27 S8Z d   1       6.221   5.508 -24.326  0.00  0.00     0.074 A 
ATOM     42  H18 S8Z d   1       4.354   4.826 -25.126  0.00  0.00     0.087 H 
ATOM     43  C28 S8Z d   1       7.143   5.393 -23.309  0.00  0.00    -0.050 A 
ATOM     44  C29 S8Z d   1       6.902   4.510 -22.277  0.00  0.00    -0.071 A 
ATOM     45  H19 S8Z d   1       8.048   5.990 -23.320  0.00  0.00     0.087 H 
ATOM     46  H20 S8Z d   1       7.627   4.419 -21.476  0.00  0.00     0.084 H 
BRANCH  41  47
ATOM     47  O30 S8Z d   1       6.515   6.399 -25.347  0.00  0.00    -0.290 OA
BRANCH  47  48
ATOM     48  C31 S8Z d   1       5.503   7.082 -26.088  0.00  0.00     0.310 C 
ATOM     49  F32 S8Z d   1       6.027   8.204 -26.650  0.00  0.00    -0.184 F 
ATOM     50  F33 S8Z d   1       5.026   6.270 -27.069  0.00  0.00    -0.184 F 
ATOM     51  H21 S8Z d   1       4.681   7.361 -25.412  0.00  0.00     0.195 H 
ENDBRANCH  47  48
ENDBRANCH  41  47
ENDBRANCH   1  37
BRANCH   8  52
ATOM     52  N21 S8Z d   1       3.032   3.751 -18.727  0.00  0.00    -0.234 N 
ATOM     53  H15 S8Z d   1       3.119   4.116 -17.768  0.00  0.00     0.174 HD
ATOM     54  H16 S8Z d   1       2.100   3.627 -19.148  0.00  0.00     0.174 HD
ENDBRANCH   8  52
TORSDOF 9
