REMARK  6 active torsions:
REMARK  status: ('A' for Active; 'I' for Inactive)
REMARK    1  A    between atoms: C17_17  and  C15_15 
REMARK    2  A    between atoms: C16_16  and  C21_21 
REMARK    3  A    between atoms: O28_28  and  C19_19 
REMARK    4  A    between atoms: C20_20  and  O27_27 
REMARK    5  A    between atoms: C23_23  and  C22_22 
REMARK    6  A    between atoms: C23_23  and  O28_28 
ROOT
ATOM      1  C1  4HN d   1      22.722  15.345  40.638  0.00  0.00     0.104 C 
ATOM      2  C10 4HN d   1      20.350  20.264  41.606  0.00  0.00    -0.037 A 
ATOM      3  C11 4HN d   1      20.477  20.801  42.872  0.00  0.00     0.004 A 
ATOM      4  C12 4HN d   1      21.709  19.052  43.601  0.00  0.00     0.017 A 
ATOM      5  C13 4HN d   1      22.117  16.628  40.882  0.00  0.00     0.108 A 
ATOM      6  C14 4HN d   1      21.609  18.436  42.365  0.00  0.00     0.045 A 
ATOM      7  C18 4HN d   1      20.925  19.041  41.322  0.00  0.00     0.073 A 
ATOM      8  C20 4HN d   1      22.188  17.210  42.133  0.00  0.00     0.102 A 
ATOM      9  C21 4HN d   1      21.434  17.299  39.883  0.00  0.00     0.091 A 
ATOM     10  N24 4HN d   1      23.202  14.309  40.423  0.00  0.00    -0.191 NA
ATOM     11  N25 4HN d   1      21.150  20.234  43.883  0.00  0.00    -0.272 NA
ATOM     12  N26 4HN d   1      20.833  18.478  40.102  0.00  0.00    -0.246 NA
ATOM     13  H9  4HN d   1      19.802  20.800  40.839  0.00  0.00     0.089 H 
ATOM     14  H10 4HN d   1      19.996  21.753  43.063  0.00  0.00     0.114 H 
ATOM     15  H11 4HN d   1      22.270  18.550  44.381  0.00  0.00     0.116 H 
ENDROOT
BRANCH   8  16
ATOM     16  O27 4HN d   1      22.850  16.595  43.180  0.00  0.00    -0.358 OA
ATOM     17  H17 4HN d   1      22.242  16.450  43.896  0.00  0.00     0.217 HD
ENDBRANCH   8  16
BRANCH   9  18
ATOM     18  C16 4HN d   1      21.310  16.735  38.537  0.00  0.00    -0.006 A 
ATOM     19  C7  4HN d   1      20.093  16.593  37.890  0.00  0.00    -0.070 A 
ATOM     20  C5  4HN d   1      20.018  15.982  36.655  0.00  0.00    -0.071 A 
ATOM     21  H6  4HN d   1      19.190  16.966  38.359  0.00  0.00     0.084 H 
ATOM     22  C15 4HN d   1      21.144  15.487  36.022  0.00  0.00    -0.023 A 
ATOM     23  H4  4HN d   1      19.054  15.888  36.169  0.00  0.00     0.084 H 
ATOM     24  C6  4HN d   1      22.356  15.649  36.655  0.00  0.00    -0.071 A 
ATOM     25  C8  4HN d   1      22.430  16.261  37.880  0.00  0.00    -0.070 A 
ATOM     26  H5  4HN d   1      23.261  15.289  36.180  0.00  0.00     0.084 H 
ATOM     27  H7  4HN d   1      23.400  16.377  38.349  0.00  0.00     0.084 H 
BRANCH  22  28
ATOM     28  C17 4HN d   1      21.121  14.801  34.729  0.00  0.00     0.007 A 
ATOM     29  C4  4HN d   1      21.907  15.276  33.685  0.00  0.00    -0.070 A 
ATOM     30  C2  4HN d   1      21.960  14.633  32.461  0.00  0.00    -0.082 A 
ATOM     31  H3  4HN d   1      22.494  16.175  33.834  0.00  0.00     0.085 H 
ATOM     32  C3  4HN d   1      21.215  13.490  32.250  0.00  0.00    -0.080 A 
ATOM     33  H1  4HN d   1      22.586  15.026  31.668  0.00  0.00     0.083 H 
ATOM     34  C9  4HN d   1      20.422  13.005  33.272  0.00  0.00    -0.050 A 
ATOM     35  H2  4HN d   1      21.252  12.979  31.294  0.00  0.00     0.083 H 
ATOM     36  C19 4HN d   1      20.391  13.642  34.505  0.00  0.00     0.079 A 
ATOM     37  H8  4HN d   1      19.819  12.119  33.110  0.00  0.00     0.087 H 
BRANCH  36  38
ATOM     38  O28 4HN d   1      19.565  13.134  35.504  0.00  0.00    -0.351 OA
BRANCH  38  39
ATOM     39  C23 4HN d   1      20.112  11.940  36.052  0.00  0.00     0.023 C 
ATOM     40  H15 4HN d   1      19.501  11.078  35.747  0.00  0.00     0.074 H 
ATOM     41  H16 4HN d   1      21.142  11.805  35.691  0.00  0.00     0.074 H 
BRANCH  39  42
ATOM     42  C22 4HN d   1      20.111  12.057  37.563  0.00  0.00    -0.056 C 
ATOM     43  H12 4HN d   1      20.532  11.140  38.002  0.00  0.00     0.030 H 
ATOM     44  H13 4HN d   1      19.079  12.194  37.919  0.00  0.00     0.030 H 
ATOM     45  H14 4HN d   1      20.721  12.921  37.864  0.00  0.00     0.030 H 
ENDBRANCH  39  42
ENDBRANCH  38  39
ENDBRANCH  36  38
ENDBRANCH  22  28
ENDBRANCH   9  18
TORSDOF 6
