REMARK  9 active torsions:
REMARK  status: ('A' for Active; 'I' for Inactive)
REMARK    1  A    between atoms: N1_1  and  C7_7 
REMARK    2  A    between atoms: N4_4  and  C8_8 
REMARK    3  A    between atoms: C10_10  and  N14_14 
REMARK    4  A    between atoms: C12_12  and  S23_21 
REMARK    5  A    between atoms: N14_14  and  C15_15 
REMARK    6  A    between atoms: C18_17  and  C21_20 
REMARK    7  A    between atoms: S23_21  and  C24_22 
REMARK    8  A    between atoms: C27_25  and  N30_28 
REMARK       I    between atoms: N30_28  and  C31_29 
REMARK    9  A    between atoms: C31_29  and  C33_31 
ROOT
ATOM      1  C8  VX6 d   1      23.346 -21.455 -12.981  0.00  0.00     0.132 A 
ATOM      2  C9  VX6 d   1      22.041 -21.012 -13.210  0.00  0.00     0.006 A 
ATOM      3  C10 VX6 d   1      21.053 -21.332 -12.277  0.00  0.00     0.135 A 
ATOM      4  N11 VX6 d   1      21.389 -22.061 -11.188  0.00  0.00    -0.205 NA
ATOM      5  C12 VX6 d   1      22.650 -22.486 -10.995  0.00  0.00     0.197 A 
ATOM      6  N13 VX6 d   1      23.598 -22.182 -11.883  0.00  0.00    -0.205 NA
ATOM      7  H   VX6 d   1      21.799 -20.429 -14.098  0.00  0.00     0.095 H 
ENDROOT
BRANCH   5   8
ATOM      8  S23 VX6 d   1      23.137 -23.446  -9.585  0.00  0.00    -0.050 SA
BRANCH   8   9
ATOM      9  C24 VX6 d   1      21.775 -23.261  -8.558  0.00  0.00     0.008 A 
ATOM     10  C25 VX6 d   1      21.638 -22.103  -7.812  0.00  0.00    -0.064 A 
ATOM     11  C26 VX6 d   1      20.545 -21.947  -6.975  0.00  0.00    -0.056 A 
ATOM     12  H   VX6 d   1      22.388 -21.316  -7.883  0.00  0.00     0.085 H 
ATOM     13  C27 VX6 d   1      19.573 -22.941  -6.868  0.00  0.00     0.034 A 
ATOM     14  H   VX6 d   1      20.443 -21.032  -6.391  0.00  0.00     0.087 H 
ATOM     15  C28 VX6 d   1      19.724 -24.111  -7.634  0.00  0.00    -0.056 A 
ATOM     16  C29 VX6 d   1      20.823 -24.263  -8.467  0.00  0.00    -0.064 A 
ATOM     17  H   VX6 d   1      18.975 -24.901  -7.573  0.00  0.00     0.087 H 
ATOM     18  H   VX6 d   1      20.938 -25.175  -9.053  0.00  0.00     0.085 H 
BRANCH  13  19
ATOM     19  N30 VX6 d   1      18.549 -22.683  -6.029  0.00  0.00    -0.327 N 
ATOM     20  C31 VX6 d   1      17.519 -23.540  -5.913  0.00  0.00     0.226 C 
ATOM     21  O32 VX6 d   1      17.404 -24.606  -6.511  0.00  0.00    -0.273 OA
ATOM     22  H   VX6 d   1      18.556 -21.826  -5.475  0.00  0.00     0.169 HD
BRANCH  20  23
ATOM     23  C33 VX6 d   1      16.424 -23.095  -4.950  0.00  0.00     0.024 A 
ATOM     24  C34 VX6 d   1      14.999 -22.971  -5.509  0.00  0.00    -0.053 A 
ATOM     25  C35 VX6 d   1      15.358 -24.128  -4.604  0.00  0.00    -0.053 A 
ATOM     26  H   VX6 d   1      14.509 -22.805  -6.468  0.00  0.00     0.034 H 
ATOM     27  H   VX6 d   1      14.219 -22.215  -5.599  0.00  0.00     0.034 H 
ATOM     28  H   VX6 d   1      14.960 -24.616  -3.714  0.00  0.00     0.034 H 
ATOM     29  H   VX6 d   1      15.253 -25.213  -4.594  0.00  0.00     0.034 H 
ATOM     30  H   VX6 d   1      17.091 -22.443  -4.386  0.00  0.00     0.054 H 
ENDBRANCH  20  23
ENDBRANCH  13  19
ENDBRANCH   8   9
ENDBRANCH   5   8
BRANCH   3  31
ATOM     31  N14 VX6 d   1      19.800 -20.879 -12.502  0.00  0.00    -0.324 N 
ATOM     32  H   VX6 d   1      19.667 -20.185 -13.237  0.00  0.00     0.169 HD
BRANCH  31  33
ATOM     33  C15 VX6 d   1      18.709 -21.291 -11.810  0.00  0.00     0.151 A 
ATOM     34  C17 VX6 d   1      18.529 -22.247 -10.889  0.00  0.00    -0.014 A 
ATOM     35  C18 VX6 d   1      17.241 -22.162 -10.569  0.00  0.00     0.027 A 
ATOM     36  H   VX6 d   1      19.271 -22.939 -10.491  0.00  0.00     0.092 H 
ATOM     37  N19 VX6 d   1      16.683 -21.195 -11.273  0.00  0.00    -0.281 N 
ATOM     38  N20 VX6 d   1      17.538 -20.693 -11.995  0.00  0.00    -0.157 NA
ATOM     39  H   VX6 d   1      15.704 -20.912 -11.225  0.00  0.00     0.189 HD
BRANCH  35  40
ATOM     40  C21 VX6 d   1      16.452 -23.009  -9.561  0.00  0.00    -0.036 C 
ATOM     41  H   VX6 d   1      16.493 -24.057  -9.858  0.00  0.00     0.035 H 
ATOM     42  H   VX6 d   1      16.890 -22.893  -8.570  0.00  0.00     0.035 H 
ATOM     43  H   VX6 d   1      15.414 -22.676  -9.542  0.00  0.00     0.035 H 
ENDBRANCH  35  40
ENDBRANCH  31  33
ENDBRANCH   3  31
BRANCH   1  44
ATOM     44  N4  VX6 d   1      24.395 -21.237 -13.801  0.00  0.00    -0.362 N 
ATOM     45  C3  VX6 d   1      24.451 -20.153 -14.812  0.00  0.00     0.021 C 
ATOM     46  C2  VX6 d   1      25.486 -20.521 -15.837  0.00  0.00     0.127 C 
ATOM     47  H   VX6 d   1      23.478 -20.034 -15.288  0.00  0.00     0.067 H 
ATOM     48  H   VX6 d   1      24.715 -19.209 -14.335  0.00  0.00     0.067 H 
ATOM     49  N1  VX6 d   1      26.828 -20.575 -15.182  0.00  0.00     0.087 N 
ATOM     50  H   VX6 d   1      25.248 -21.495 -16.264  0.00  0.00     0.082 H 
ATOM     51  H   VX6 d   1      25.496 -19.774 -16.631  0.00  0.00     0.082 H 
ATOM     52  C6  VX6 d   1      26.813 -21.315 -13.893  0.00  0.00     0.127 C 
ATOM     53  C5  VX6 d   1      25.577 -22.127 -13.690  0.00  0.00     0.021 C 
ATOM     54  H   VX6 d   1      26.858 -20.578 -13.091  0.00  0.00     0.082 H 
ATOM     55  H   VX6 d   1      27.660 -22.001 -13.898  0.00  0.00     0.082 H 
ATOM     56  H   VX6 d   1      25.522 -22.910 -14.446  0.00  0.00     0.067 H 
ATOM     57  H   VX6 d   1      25.598 -22.591 -12.704  0.00  0.00     0.067 H 
BRANCH  49  58
ATOM     58  C7  VX6 d   1      27.452 -19.236 -14.994  0.00  0.00     0.095 C 
ATOM     59  H   VX6 d   1      26.878 -18.669 -14.261  0.00  0.00     0.071 H 
ATOM     60  H   VX6 d   1      28.475 -19.360 -14.639  0.00  0.00     0.071 H 
ATOM     61  H   VX6 d   1      27.458 -18.703 -15.944  0.00  0.00     0.071 H 
ENDBRANCH  49  58
ENDBRANCH   1  44
TORSDOF 9
