REMARK  13 active torsions:
REMARK  status: ('A' for Active; 'I' for Inactive)
REMARK    1  A    between atoms: C01_1  and  C02_2 
REMARK    2  A    between atoms: C02_2  and  C03_3 
REMARK    3  A    between atoms: C02_2  and  O09_9 
REMARK    4  A    between atoms: C04_4  and  C05_5 
REMARK    5  A    between atoms: O09_9  and  C10_10 
REMARK    6  A    between atoms: C12_12  and  C13_13 
REMARK    7  A    between atoms: C15_15  and  C16_16 
REMARK    8  A    between atoms: C18_18  and  C19_19 
REMARK    9  A    between atoms: C19_19  and  N20_20 
REMARK   10  A    between atoms: N20_20  and  C21_21 
REMARK   11  A    between atoms: N20_20  and  C22_22 
REMARK   12  A    between atoms: C27_27  and  N28_28 
REMARK   13  A    between atoms: C31_31  and  C32_32 
REMARK       I    between atoms: C32_32  and  N33_33 
ROOT
ATOM      1  C13 GGY d   1       2.850  -7.553  10.859  0.00  0.00     0.021 A 
ATOM      2  C14 GGY d   1       2.201  -8.577  10.144  0.00  0.00    -0.056 A 
ATOM      3  C15 GGY d   1       1.603  -8.264   8.896  0.00  0.00    -0.001 A 
ATOM      4  C25 GGY d   1       1.680  -6.966   8.428  0.00  0.00     0.016 A 
ATOM      5  N26 GGY d   1       2.311  -6.004   9.138  0.00  0.00    -0.242 NA
ATOM      6  C27 GGY d   1       2.893  -6.271  10.336  0.00  0.00     0.132 A 
ATOM      7  H   GGY d   1       2.159  -9.591  10.541  0.00  0.00     0.086 H 
ATOM      8  H   GGY d   1       1.224  -6.714   7.471  0.00  0.00     0.116 H 
ENDROOT
BRANCH   1   9
ATOM      9  C12 GGY d   1       3.510  -7.872  12.223  0.00  0.00    -0.019 A 
ATOM     10  C11 GGY d   1       2.776  -8.505  13.209  0.00  0.00    -0.039 A 
ATOM     11  C10 GGY d   1       3.356  -8.797  14.437  0.00  0.00     0.086 A 
ATOM     12  H   GGY d   1       1.737  -8.776  13.022  0.00  0.00     0.089 H 
ATOM     13  C31 GGY d   1       4.728  -8.439  14.687  0.00  0.00     0.065 A 
ATOM     14  C30 GGY d   1       5.457  -7.805  13.691  0.00  0.00    -0.064 A 
ATOM     15  C29 GGY d   1       4.874  -7.516  12.467  0.00  0.00    -0.071 A 
ATOM     16  H   GGY d   1       6.497  -7.532  13.873  0.00  0.00     0.085 H 
ATOM     17  H   GGY d   1       5.455  -7.018  11.691  0.00  0.00     0.084 H 
BRANCH  11  18
ATOM     18  O09 GGY d   1       2.589  -9.441  15.425  0.00  0.00    -0.341 OA
BRANCH  18  19
ATOM     19  C02 GGY d   1       1.638 -10.386  15.064  0.00  0.00     0.058 C 
ATOM     20  H   GGY d   1       1.079  -9.995  14.214  0.00  0.00     0.089 H 
BRANCH  19  21
ATOM     21  C01 GGY d   1       0.734 -10.635  16.210  0.00  0.00    -0.049 C 
ATOM     22  H   GGY d   1       1.314 -11.005  17.055  0.00  0.00     0.031 H 
ATOM     23  H   GGY d   1       0.237  -9.705  16.488  0.00  0.00     0.031 H 
ATOM     24  H   GGY d   1      -0.013 -11.377  15.927  0.00  0.00     0.031 H 
ENDBRANCH  19  21
BRANCH  19  25
ATOM     25  C03 GGY d   1       2.287 -11.699  14.649  0.00  0.00    -0.071 C 
ATOM     26  C04 GGY d   1       1.654 -12.523  13.768  0.00  0.00    -0.003 C 
ATOM     27  H   GGY d   1       2.119 -13.463  13.470  0.00  0.00     0.090 H 
ATOM     28  H   GGY d   1       3.258 -11.980  15.057  0.00  0.00     0.080 H 
BRANCH  26  29
ATOM     29  C05 GGY d   1       0.335 -12.141  13.216  0.00  0.00     0.407 C 
ATOM     30  F06 GGY d   1      -0.113 -13.112  12.399  0.00  0.00    -0.167 F 
ATOM     31  F07 GGY d   1       0.455 -10.992  12.522  0.00  0.00    -0.167 F 
ATOM     32  F08 GGY d   1      -0.531 -11.968  14.216  0.00  0.00    -0.167 F 
ENDBRANCH  26  29
ENDBRANCH  19  25
ENDBRANCH  18  19
ENDBRANCH  11  18
BRANCH  13  33
ATOM     33  C32 GGY d   1       5.375  -8.746  16.008  0.00  0.00     0.252 C 
ATOM     34  N33 GGY d   1       4.918  -9.869  16.831  0.00  0.00    -0.366 N 
ATOM     35  H   GGY d   1       5.368 -10.062  17.726  0.00  0.00     0.159 HD
ATOM     36  H   GGY d   1       4.150 -10.458  16.509  0.00  0.00     0.159 HD
ATOM     37  O34 GGY d   1       6.288  -8.065  16.415  0.00  0.00    -0.268 OA
ENDBRANCH  13  33
ENDBRANCH   1   9
BRANCH   6  38
ATOM     38  N28 GGY d   1       3.541  -5.215  11.033  0.00  0.00    -0.383 N 
ATOM     39  H   GGY d   1       3.563  -4.277  10.632  0.00  0.00     0.157 HD
ATOM     40  H   GGY d   1       3.984  -5.395  11.934  0.00  0.00     0.157 HD
ENDBRANCH   6  38
BRANCH   3  41
ATOM     41  C16 GGY d   1       0.905  -9.317   8.106  0.00  0.00     0.017 A 
ATOM     42  C17 GGY d   1       0.308  -9.176   6.814  0.00  0.00    -0.057 A 
ATOM     43  C18 GGY d   1      -0.308 -10.396   6.287  0.00  0.00    -0.022 A 
ATOM     44  H   GGY d   1       0.311  -8.235   6.265  0.00  0.00     0.086 H 
ATOM     45  C23 GGY d   1      -0.196 -11.514   7.174  0.00  0.00    -0.036 A 
ATOM     46  S24 GGY d   1       0.652 -10.954   8.559  0.00  0.00    -0.101 SA
ATOM     47  H   GGY d   1      -0.574 -12.522   7.004  0.00  0.00     0.095 H 
BRANCH  43  48
ATOM     48  C19 GGY d   1      -1.006 -10.471   4.919  0.00  0.00     0.136 C 
ATOM     49  H   GGY d   1      -1.846 -11.152   5.056  0.00  0.00     0.087 H 
ATOM     50  H   GGY d   1      -0.230 -10.762   4.211  0.00  0.00     0.087 H 
BRANCH  48  51
ATOM     51  N20 GGY d   1      -1.586  -9.234   4.382  0.00  0.00     0.084 N 
BRANCH  51  52
ATOM     52  C21 GGY d   1      -1.668  -9.312   2.934  0.00  0.00     0.095 C 
ATOM     53  H   GGY d   1      -0.668  -9.449   2.522  0.00  0.00     0.071 H 
ATOM     54  H   GGY d   1      -2.297 -10.156   2.652  0.00  0.00     0.071 H 
ATOM     55  H   GGY d   1      -2.100  -8.389   2.546  0.00  0.00     0.071 H 
ENDBRANCH  51  52
BRANCH  51  56
ATOM     56  C22 GGY d   1      -2.957  -9.032   4.947  0.00  0.00     0.095 C 
ATOM     57  H   GGY d   1      -3.589  -9.877   4.673  0.00  0.00     0.071 H 
ATOM     58  H   GGY d   1      -2.894  -8.960   6.033  0.00  0.00     0.071 H 
ATOM     59  H   GGY d   1      -3.382  -8.113   4.545  0.00  0.00     0.071 H 
ENDBRANCH  51  56
ENDBRANCH  48  51
ENDBRANCH  43  48
ENDBRANCH   3  41
TORSDOF 13
