REMARK  8 active torsions:
REMARK  status: ('A' for Active; 'I' for Inactive)
REMARK    1  A    between atoms: C8_17  and  C3_2 
REMARK    2  A    between atoms: C3_2  and  C1_21 
REMARK    3  A    between atoms: C16_18  and  C17_6 
REMARK    4  A    between atoms: C11_10  and  C14_9 
REMARK    5  A    between atoms: C14_9  and  C16_18 
REMARK    6  A    between atoms: C9_14  and  C8_17 
REMARK    7  A    between atoms: N1_15  and  C22_16 
REMARK    8  A    between atoms: C16_18  and  O2_19 
ROOT
ATOM      1  C11 L0B d   1     -44.791 113.068  12.262  0.00  0.00     0.106 C 
ATOM      2  C13 L0B d   1     -45.151 111.943  11.277  0.00  0.00    -0.038 C 
ATOM      3  C15 L0B d   1     -44.836 110.594  11.916  0.00  0.00    -0.061 C 
ATOM      4  C12 L0B d   1     -45.604 110.463  13.230  0.00  0.00    -0.038 C 
ATOM      5  C9  L0B d   1     -45.225 111.606  14.174  0.00  0.00     0.110 C 
ATOM      6  N1  L0B d   1     -45.507 112.931  13.556  0.00  0.00    -0.066 N 
ATOM      7  H8  L0B d   1     -43.718 112.973  12.482  0.00  0.00     0.084 H 
ATOM      8  H9  L0B d   1     -44.562 112.059  10.355  0.00  0.00     0.036 H 
ATOM      9  H10 L0B d   1     -46.223 111.994  11.036  0.00  0.00     0.036 H 
ATOM     10  H11 L0B d   1     -43.756 110.525  12.114  0.00  0.00     0.033 H 
ATOM     11  H12 L0B d   1     -45.136 109.785  11.233  0.00  0.00     0.033 H 
ATOM     12  H13 L0B d   1     -45.355 109.502  13.703  0.00  0.00     0.036 H 
ATOM     13  H14 L0B d   1     -46.684 110.502  13.026  0.00  0.00     0.036 H 
ATOM     14  H15 L0B d   1     -44.146 111.543  14.380  0.00  0.00     0.085 H 
ATOM     15  H16 L0B d   1     -45.152 113.643  14.175  0.00  0.00     0.280 HD
ENDROOT
BRANCH   1  16
ATOM     16  C14 L0B d   1     -44.998 114.455  11.613  0.00  0.00    -0.010 C 
ATOM     17  H6  L0B d   1     -46.075 114.593  11.438  0.00  0.00     0.040 H 
ATOM     18  H7  L0B d   1     -44.465 114.465  10.651  0.00  0.00     0.040 H 
BRANCH  16  19
ATOM     19  C16 L0B d   1     -44.498 115.634  12.444  0.00  0.00     0.062 C 
ATOM     20  H22 L0B d   1     -43.429 115.514  12.675  0.00  0.00     0.090 H 
BRANCH  19  21
ATOM     21  C17 L0B d   1     -44.716 116.872  11.644  0.00  0.00    -0.030 A 
ATOM     22  C19 L0B d   1     -45.952 117.517  11.669  0.00  0.00    -0.074 A 
ATOM     23  C10 L0B d   1     -46.155 118.672  10.904  0.00  0.00    -0.082 A 
ATOM     24  H3  L0B d   1     -46.756 117.124  12.281  0.00  0.00     0.084 H 
ATOM     25  C21 L0B d   1     -45.126 119.178  10.117  0.00  0.00    -0.083 A 
ATOM     26  H2  L0B d   1     -47.116 119.173  10.925  0.00  0.00     0.083 H 
ATOM     27  C20 L0B d   1     -43.885 118.541  10.087  0.00  0.00    -0.082 A 
ATOM     28  H1  L0B d   1     -45.289 120.071   9.524  0.00  0.00     0.083 H 
ATOM     29  C18 L0B d   1     -43.692 117.381  10.851  0.00  0.00    -0.074 A 
ATOM     30  H5  L0B d   1     -43.079 118.938   9.480  0.00  0.00     0.083 H 
ATOM     31  H4  L0B d   1     -42.734 116.875  10.823  0.00  0.00     0.084 H 
ENDBRANCH  19  21
BRANCH  19  32
ATOM     32  O2  L0B d   1     -45.250 115.699  13.651  0.00  0.00    -0.391 OA
ATOM     33  H23 L0B d   1     -44.944 116.431  14.174  0.00  0.00     0.210 HD
ENDBRANCH  19  32
ENDBRANCH  16  19
ENDBRANCH   1  16
BRANCH   6  34
ATOM     34  C22 L0B d   1     -46.963 113.144  13.424  0.00  0.00     0.067 C 
ATOM     35  H17 L0B d   1     -47.150 114.127  12.966  0.00  0.00     0.068 H 
ATOM     36  H18 L0B d   1     -47.431 113.108  14.419  0.00  0.00     0.068 H 
ATOM     37  H19 L0B d   1     -47.393 112.356  12.788  0.00  0.00     0.068 H 
ENDBRANCH   6  34
BRANCH   5  38
ATOM     38  C8  L0B d   1     -45.988 111.460  15.503  0.00  0.00     0.022 C 
ATOM     39  H20 L0B d   1     -46.044 112.444  15.992  0.00  0.00     0.048 H 
ATOM     40  H21 L0B d   1     -47.005 111.097  15.292  0.00  0.00     0.048 H 
BRANCH  38  41
ATOM     41  C3  L0B d   1     -45.300 110.480  16.445  0.00  0.00     0.161 C 
ATOM     42  O1  L0B d   1     -44.138 110.140  16.277  0.00  0.00    -0.292 OA
BRANCH  41  43
ATOM     43  C1  L0B d   1     -46.081 109.891  17.593  0.00  0.00     0.010 A 
ATOM     44  C4  L0B d   1     -47.292 110.457  17.987  0.00  0.00    -0.070 A 
ATOM     45  C7  L0B d   1     -48.006 109.900  19.047  0.00  0.00    -0.082 A 
ATOM     46  H24 L0B d   1     -47.678 111.328  17.470  0.00  0.00     0.085 H 
ATOM     47  C6  L0B d   1     -47.503 108.786  19.713  0.00  0.00    -0.083 A 
ATOM     48  H28 L0B d   1     -48.951 110.334  19.352  0.00  0.00     0.083 H 
ATOM     49  C5  L0B d   1     -46.298 108.215  19.318  0.00  0.00    -0.082 A 
ATOM     50  H27 L0B d   1     -48.054 108.361  20.544  0.00  0.00     0.083 H 
ATOM     51  C2  L0B d   1     -45.581 108.773  18.265  0.00  0.00    -0.070 A 
ATOM     52  H26 L0B d   1     -45.919 107.338  19.829  0.00  0.00     0.083 H 
ATOM     53  H25 L0B d   1     -44.633 108.340  17.965  0.00  0.00     0.085 H 
ENDBRANCH  41  43
ENDBRANCH  38  41
ENDBRANCH   5  38
TORSDOF 8
