REMARK  0 active torsions:
REMARK  status: ('A' for Active; 'I' for Inactive)
ROOT
ATOM      1  C01 QMR d   1     -29.440 -88.984  28.838  0.00  0.00     0.089 C 
ATOM      2  N02 QMR d   1     -28.280 -88.242  29.383  0.00  0.00    -0.074 N 
ATOM      3  C03 QMR d   1     -28.724 -87.268  30.406  0.00  0.00     0.089 C 
ATOM      4  C04 QMR d   1     -29.780 -86.344  29.825  0.00  0.00    -0.004 C 
ATOM      5  C05 QMR d   1     -30.986 -87.224  29.515  0.00  0.00    -0.048 C 
ATOM      6  C06 QMR d   1     -30.494 -88.017  28.313  0.00  0.00    -0.004 C 
ATOM      7  C07 QMR d   1     -29.809 -86.973  27.541  0.00  0.00    -0.043 A 
ATOM      8  C08 QMR d   1     -29.536 -86.886  26.189  0.00  0.00    -0.046 A 
ATOM      9  C09 QMR d   1     -28.831 -85.763  25.758  0.00  0.00     0.085 A 
ATOM     10  N10 QMR d   1     -28.535 -85.592  24.456  0.00  0.00    -0.257 NA
ATOM     11  C11 QMR d   1     -27.854 -84.504  24.058  0.00  0.00     0.020 A 
ATOM     12  C12 QMR d   1     -27.435 -83.524  24.962  0.00  0.00     0.020 A 
ATOM     13  N13 QMR d   1     -27.701 -83.637  26.269  0.00  0.00    -0.257 NA
ATOM     14  C14 QMR d   1     -28.380 -84.711  26.724  0.00  0.00     0.085 A 
ATOM     15  C15 QMR d   1     -28.657 -84.835  28.077  0.00  0.00    -0.046 A 
ATOM     16  C16 QMR d   1     -29.364 -85.947  28.480  0.00  0.00    -0.043 A 
ATOM     17  H   QMR d   1     -29.878 -89.588  29.632  0.00  0.00     0.076 H 
ATOM     18  H   QMR d   1     -29.101 -89.618  28.018  0.00  0.00     0.076 H 
ATOM     19  H   QMR d   1     -27.821 -87.740  28.623  0.00  0.00     0.277 HD
ATOM     20  H   QMR d   1     -27.635 -88.904  29.813  0.00  0.00     0.277 HD
ATOM     21  H   QMR d   1     -27.869 -86.675  30.729  0.00  0.00     0.076 H 
ATOM     22  H   QMR d   1     -29.148 -87.808  31.253  0.00  0.00     0.076 H 
ATOM     23  H   QMR d   1     -29.953 -85.508  30.502  0.00  0.00     0.050 H 
ATOM     24  H   QMR d   1     -31.896 -86.657  29.317  0.00  0.00     0.035 H 
ATOM     25  H   QMR d   1     -31.291 -87.852  30.352  0.00  0.00     0.035 H 
ATOM     26  H   QMR d   1     -31.256 -88.563  27.757  0.00  0.00     0.050 H 
ATOM     27  H   QMR d   1     -29.857 -87.660  25.492  0.00  0.00     0.088 H 
ATOM     28  H   QMR d   1     -27.622 -84.382  23.000  0.00  0.00     0.117 H 
ATOM     29  H   QMR d   1     -26.884 -82.656  24.598  0.00  0.00     0.117 H 
ATOM     30  H   QMR d   1     -28.328 -84.082  28.794  0.00  0.00     0.088 H 
ENDROOT
TORSDOF 0
