REMARK  11 active torsions:
REMARK  status: ('A' for Active; 'I' for Inactive)
REMARK    1  A    between atoms: C14_13  and  C4_1 
REMARK    2  A    between atoms: C13_5  and  C3_11 
REMARK    3  A    between atoms: C19_16  and  C22_10 
REMARK       I    between atoms: C22_10  and  N25_19 
REMARK    4  A    between atoms: C18_15  and  C12_12 
REMARK    5  A    between atoms: N25_19  and  C37_23 
REMARK    6  A    between atoms: C37_23  and  C38_24 
REMARK    7  A    between atoms: C38_24  and  N4_25 
REMARK    8  A    between atoms: N4_25  and  C39_26 
REMARK    9  A    between atoms: N4_25  and  C40_27 
REMARK   10  A    between atoms: C39_26  and  C42_29 
REMARK   11  A    between atoms: C40_27  and  C41_28 
ROOT
ATOM      1  C13 B49 d   1      50.404  -3.166 -14.744  0.00  0.00    -0.018 A 
ATOM      2  C14 B49 d   1      50.436  -1.027 -15.562  0.00  0.00     0.022 A 
ATOM      3  C18 B49 d   1      49.144  -2.546 -14.615  0.00  0.00     0.040 A 
ATOM      4  C19 B49 d   1      51.278  -2.153 -15.375  0.00  0.00     0.062 A 
ATOM      5  N23 B49 d   1      49.221  -1.305 -15.109  0.00  0.00    -0.359 N 
ATOM      6  H   B49 d   1      48.439  -0.651 -15.134  0.00  0.00     0.166 HD
ENDROOT
BRANCH   4   7
ATOM      7  C22 B49 d   1      52.749  -2.204 -15.773  0.00  0.00     0.254 C 
ATOM      8  N25 B49 d   1      53.348  -1.134 -16.341  0.00  0.00    -0.355 N 
ATOM      9  H   B49 d   1      52.800  -0.290 -16.508  0.00  0.00     0.162 HD
ATOM     10  O28 B49 d   1      53.489  -3.181 -15.613  0.00  0.00    -0.268 OA
BRANCH   8  11
ATOM     11  C37 B49 d   1      54.767  -1.151 -16.725  0.00  0.00     0.020 C 
ATOM     12  H   B49 d   1      54.746  -1.049 -17.810  0.00  0.00     0.066 H 
ATOM     13  H   B49 d   1      55.157  -2.051 -16.249  0.00  0.00     0.066 H 
BRANCH  11  14
ATOM     14  C38 B49 d   1      55.744  -0.029 -16.262  0.00  0.00     0.128 C 
ATOM     15  H   B49 d   1      55.878  -0.062 -15.181  0.00  0.00     0.082 H 
ATOM     16  H   B49 d   1      55.343   0.953 -16.512  0.00  0.00     0.082 H 
BRANCH  14  17
ATOM     17  N4  B49 d   1      57.062  -0.256 -16.965  0.00  0.00     0.089 N 
BRANCH  17  18
ATOM     18  C39 B49 d   1      58.179  -0.113 -15.931  0.00  0.00     0.110 C 
ATOM     19  H   B49 d   1      57.886  -0.828 -15.162  0.00  0.00     0.079 H 
ATOM     20  H   B49 d   1      58.226   0.965 -15.777  0.00  0.00     0.079 H 
BRANCH  18  21
ATOM     21  C42 B49 d   1      59.693  -0.492 -16.200  0.00  0.00    -0.051 C 
ATOM     22  H   B49 d   1      59.761  -1.549 -16.456  0.00  0.00     0.029 H 
ATOM     23  H   B49 d   1      60.076   0.109 -17.025  0.00  0.00     0.029 H 
ATOM     24  H   B49 d   1      60.280  -0.296 -15.303  0.00  0.00     0.029 H 
ENDBRANCH  18  21
ENDBRANCH  17  18
BRANCH  17  25
ATOM     25  C40 B49 d   1      57.200   0.651 -18.232  0.00  0.00     0.110 C 
ATOM     26  H   B49 d   1      58.215   1.041 -18.152  0.00  0.00     0.079 H 
ATOM     27  H   B49 d   1      56.318   1.290 -18.180  0.00  0.00     0.079 H 
BRANCH  25  28
ATOM     28  C41 B49 d   1      57.147   0.083 -19.684  0.00  0.00    -0.051 C 
ATOM     29  H   B49 d   1      57.952  -0.639 -19.820  0.00  0.00     0.029 H 
ATOM     30  H   B49 d   1      56.187  -0.407 -19.846  0.00  0.00     0.029 H 
ATOM     31  H   B49 d   1      57.265   0.899 -20.397  0.00  0.00     0.029 H 
ENDBRANCH  25  28
ENDBRANCH  17  25
ENDBRANCH  14  17
ENDBRANCH  11  14
ENDBRANCH   8  11
ENDBRANCH   4   7
BRANCH   1  32
ATOM     32  C3  B49 d   1      50.672  -4.641 -14.265  0.00  0.00    -0.048 C 
ATOM     33  H   B49 d   1      50.477  -4.715 -13.195  0.00  0.00     0.033 H 
ATOM     34  H   B49 d   1      50.014  -5.322 -14.804  0.00  0.00     0.033 H 
ATOM     35  H   B49 d   1      51.711  -4.904 -14.465  0.00  0.00     0.033 H 
ENDBRANCH   1  32
BRANCH   2  36
ATOM     36  C4  B49 d   1      50.682   0.367 -16.161  0.00  0.00    -0.036 C 
ATOM     37  H   B49 d   1      51.459   0.875 -15.590  0.00  0.00     0.035 H 
ATOM     38  H   B49 d   1      51.000   0.264 -17.198  0.00  0.00     0.035 H 
ATOM     39  H   B49 d   1      49.760   0.947 -16.118  0.00  0.00     0.035 H 
ENDBRANCH   2  36
BRANCH   3  40
ATOM     40  C12 B49 d   1      47.945  -3.172 -14.021  0.00  0.00    -0.041 C 
ATOM     41  C20 B49 d   1      46.622  -2.683 -13.838  0.00  0.00     0.047 A 
ATOM     42  C17 B49 d   1      45.434  -3.366 -13.177  0.00  0.00     0.009 A 
ATOM     43  C21 B49 d   1      46.000  -1.391 -14.221  0.00  0.00     0.257 A 
ATOM     44  C7  B49 d   1      45.297  -4.670 -12.560  0.00  0.00    -0.033 A 
ATOM     45  C16 B49 d   1      44.352  -2.479 -13.233  0.00  0.00     0.046 A 
ATOM     46  C15 B49 d   1      44.056  -5.026 -12.021  0.00  0.00     0.117 A 
ATOM     47  H   B49 d   1      46.142  -5.358 -12.517  0.00  0.00     0.089 H 
ATOM     48  C5  B49 d   1      42.976  -4.097 -12.093  0.00  0.00    -0.043 A 
ATOM     49  F29 B49 d   1      43.840  -6.210 -11.441  0.00  0.00    -0.206 F 
ATOM     50  C6  B49 d   1      43.108  -2.817 -12.696  0.00  0.00    -0.053 A 
ATOM     51  H   B49 d   1      42.012  -4.380 -11.669  0.00  0.00     0.088 H 
ATOM     52  H   B49 d   1      42.268  -2.124 -12.738  0.00  0.00     0.087 H 
ATOM     53  N24 B49 d   1      44.698  -1.328 -13.849  0.00  0.00    -0.322 N 
ATOM     54  H   B49 d   1      44.077  -0.535 -14.009  0.00  0.00     0.169 HD
ATOM     55  O27 B49 d   1      46.569  -0.500 -14.792  0.00  0.00    -0.267 OA
ATOM     56  H   B49 d   1      48.102  -4.188 -13.659  0.00  0.00     0.088 H 
ENDBRANCH   3  40
TORSDOF 11
