REMARK  1 active torsions:
REMARK  status: ('A' for Active; 'I' for Inactive)
REMARK    1  A    between atoms: CAP_17  and  NQ_4 
ROOT
ATOM      1  NL  0MB d   1      19.036 -29.815  12.171  0.00  0.00    -0.074 N 
ATOM      2  NQ  0MB d   1      17.657 -27.438  12.410  0.00  0.00    -0.357 N 
ATOM      3  CAF 0MB d   1      20.077 -28.917  12.772  0.00  0.00     0.083 C 
ATOM      4  CAG 0MB d   1      17.703 -29.897  12.838  0.00  0.00     0.096 C 
ATOM      5  CAI 0MB d   1      16.905 -28.709  12.333  0.00  0.00     0.019 C 
ATOM      6  C9  0MB d   1      19.538 -28.118  13.947  0.00  0.00    -0.028 C 
ATOM      7  C10 0MB d   1      18.440 -27.127  13.610  0.00  0.00    -0.002 C 
ATOM      8  H1  0MB d   1      19.419 -30.747  12.154  0.00  0.00     0.277 HD
ATOM      9  H2  0MB d   1      18.878 -29.499  11.227  0.00  0.00     0.277 HD
ATOM     10  H8  0MB d   1      20.430 -28.217  12.000  0.00  0.00     0.075 H 
ATOM     11  H9  0MB d   1      20.919 -29.534  13.120  0.00  0.00     0.075 H 
ATOM     12  H10 0MB d   1      17.819 -29.842  13.931  0.00  0.00     0.078 H 
ATOM     13  H11 0MB d   1      17.199 -30.837  12.569  0.00  0.00     0.078 H 
ATOM     14  H12 0MB d   1      16.630 -28.891  11.284  0.00  0.00     0.066 H 
ATOM     15  H13 0MB d   1      15.993 -28.615  12.940  0.00  0.00     0.066 H 
ATOM     16  H14 0MB d   1      20.375 -27.559  14.390  0.00  0.00     0.037 H 
ATOM     17  H15 0MB d   1      19.139 -28.828  14.686  0.00  0.00     0.037 H 
ATOM     18  H16 0MB d   1      17.748 -27.084  14.464  0.00  0.00     0.064 H 
ATOM     19  H17 0MB d   1      18.906 -26.141  13.465  0.00  0.00     0.064 H 
ENDROOT
BRANCH   2  20
ATOM     20  CAP 0MB d   1      17.027 -26.314  11.932  0.00  0.00     0.189 A 
ATOM     21  NK  0MB d   1      17.275 -25.049  12.314  0.00  0.00    -0.202 NA
ATOM     22  CAO 0MB d   1      16.444 -24.174  11.618  0.00  0.00     0.170 A 
ATOM     23  NJ  0MB d   1      15.573 -24.706  10.768  0.00  0.00    -0.187 NA
ATOM     24  CAN 0MB d   1      16.539 -22.745  11.778  0.00  0.00     0.012 A 
ATOM     25  SAM 0MB d   1      15.762 -26.401  10.766  0.00  0.00     0.052 SA
ATOM     26  CAE 0MB d   1      15.735 -21.938  10.991  0.00  0.00    -0.069 A 
ATOM     27  CAD 0MB d   1      17.477 -22.199  12.626  0.00  0.00    -0.069 A 
ATOM     28  CAC 0MB d   1      15.907 -20.564  11.153  0.00  0.00    -0.082 A 
ATOM     29  H6  0MB d   1      15.016 -22.349  10.292  0.00  0.00     0.085 H 
ATOM     30  CAA 0MB d   1      16.835 -19.977  12.032  0.00  0.00    -0.083 A 
ATOM     31  H4  0MB d   1      15.283 -19.903  10.562  0.00  0.00     0.083 H 
ATOM     32  CAB 0MB d   1      17.655 -20.824  12.799  0.00  0.00    -0.082 A 
ATOM     33  H3  0MB d   1      16.916 -18.899  12.116  0.00  0.00     0.083 H 
ATOM     34  H5  0MB d   1      18.390 -20.429  13.491  0.00  0.00     0.083 H 
ATOM     35  H7  0MB d   1      18.112 -22.873  13.190  0.00  0.00     0.085 H 
ENDBRANCH   2  20
TORSDOF 1
