REMARK  3 active torsions:
REMARK  status: ('A' for Active; 'I' for Inactive)
REMARK    1  A    between atoms: C12_9  and  N13_1 
REMARK    2  A    between atoms: C6_7  and  N4_3 
REMARK    3  A    between atoms: C12_9  and  C11_12 
ROOT
ATOM      1  C10 Z5P d   1     -16.677  20.827   1.679  0.00  0.00    -0.073 A 
ATOM      2  C9  Z5P d   1     -17.570  21.043   0.675  0.00  0.00    -0.082 A 
ATOM      3  C8  Z5P d   1     -18.095  19.955   0.031  0.00  0.00    -0.081 A 
ATOM      4  C7  Z5P d   1     -17.715  18.698   0.405  0.00  0.00    -0.055 A 
ATOM      5  C6  Z5P d   1     -16.795  18.463   1.398  0.00  0.00     0.066 A 
ATOM      6  C11 Z5P d   1     -16.273  19.580   2.052  0.00  0.00    -0.004 A 
ATOM      7  H4  Z5P d   1     -16.270  21.683   2.204  0.00  0.00     0.084 H 
ATOM      8  H5  Z5P d   1     -17.858  22.049   0.393  0.00  0.00     0.083 H 
ATOM      9  H6  Z5P d   1     -18.810  20.091  -0.773  0.00  0.00     0.083 H 
ATOM     10  H7  Z5P d   1     -18.158  17.849  -0.103  0.00  0.00     0.087 H 
ENDROOT
BRANCH   5  11
ATOM     11  N4  Z5P d   1     -16.488  17.062   1.534  0.00  0.00    -0.245 N 
ATOM     12  C3  Z5P d   1     -15.587  16.397   2.316  0.00  0.00     0.006 A 
ATOM     13  C2  Z5P d   1     -15.831  15.040   2.198  0.00  0.00    -0.048 A 
ATOM     14  H8  Z5P d   1     -14.811  16.855   2.927  0.00  0.00     0.114 H 
ATOM     15  C1  Z5P d   1     -16.911  14.937   1.276  0.00  0.00     0.023 A 
ATOM     16  H11 Z5P d   1     -15.310  14.227   2.701  0.00  0.00     0.087 H 
ATOM     17  N5  Z5P d   1     -17.290  16.164   0.876  0.00  0.00    -0.180 NA
ATOM     18  H12 Z5P d   1     -17.363  14.004   0.944  0.00  0.00     0.117 H 
ENDBRANCH   5  11
BRANCH   6  19
ATOM     19  C12 Z5P d   1     -15.234  19.607   3.119  0.00  0.00     0.105 C 
ATOM     20  H9  Z5P d   1     -14.517  20.422   2.942  0.00  0.00     0.082 H 
ATOM     21  H10 Z5P d   1     -15.697  19.733   4.109  0.00  0.00     0.082 H 
BRANCH  19  22
ATOM     22  N13 Z5P d   1     -14.570  18.304   3.021  0.00  0.00    -0.075 N 
ATOM     23  H1  Z5P d   1     -13.845  18.243   3.719  0.00  0.00     0.274 HD
ATOM     24  H2  Z5P d   1     -14.164  18.202   2.104  0.00  0.00     0.274 HD
ATOM     25  H3  Z5P d   1     -15.245  17.571   3.173  0.00  0.00     0.274 HD
ENDBRANCH  19  22
ENDBRANCH   6  19
TORSDOF 3
