REMARK  6 active torsions:
REMARK  status: ('A' for Active; 'I' for Inactive)
REMARK    1  A    between atoms: C09_2  and  C08_4 
REMARK    2  A    between atoms: C08_4  and  C07_5 
REMARK    3  A    between atoms: C07_5  and  C02_6 
REMARK       I    between atoms: C02_6  and  N03_8 
REMARK    4  A    between atoms: N03_8  and  N04_9 
REMARK    5  A    between atoms: N04_9  and  C06_10 
REMARK    6  A    between atoms: N04_9  and  C05_11 
ROOT
ATOM      1  C02 DZA d   1      21.703  25.550  28.518  0.00  0.00     0.241 C 
ATOM      2  O01 DZA d   1      21.787  26.679  28.940  0.00  0.00    -0.272 OA
ATOM      3  N03 DZA d   1      22.733  24.863  28.005  0.00  0.00    -0.187 N 
ATOM      4  H5  DZA d   1      22.643  23.930  27.657  0.00  0.00     0.196 HD
ENDROOT
BRANCH   3   5
ATOM      5  N04 DZA d   1      23.706  25.424  27.999  0.00  0.00     0.003 N 
ATOM      6  H6  DZA d   1      23.624  26.350  28.390  0.00  0.00     0.308 HD
BRANCH   5   7
ATOM      7  C06 DZA d   1      24.539  24.578  28.865  0.00  0.00     0.086 C 
ATOM      8  H7  DZA d   1      25.544  25.018  28.950  0.00  0.00     0.071 H 
ATOM      9  H8  DZA d   1      24.616  23.571  28.430  0.00  0.00     0.071 H 
ATOM     10  H9  DZA d   1      24.081  24.512  29.863  0.00  0.00     0.071 H 
ENDBRANCH   5   7
BRANCH   5  11
ATOM     11  C05 DZA d   1      24.098  25.521  26.579  0.00  0.00     0.086 C 
ATOM     12  H10 DZA d   1      25.051  26.064  26.498  0.00  0.00     0.071 H 
ATOM     13  H11 DZA d   1      23.320  26.061  26.020  0.00  0.00     0.071 H 
ATOM     14  H12 DZA d   1      24.215  24.510  26.161  0.00  0.00     0.071 H 
ENDBRANCH   5  11
ENDBRANCH   3   5
BRANCH   1  15
ATOM     15  C07 DZA d   1      20.401  24.740  28.503  0.00  0.00     0.020 C 
ATOM     16  H3  DZA d   1      20.108  24.500  27.470  0.00  0.00     0.048 H 
ATOM     17  H4  DZA d   1      20.520  23.809  29.076  0.00  0.00     0.048 H 
BRANCH  15  18
ATOM     18  C08 DZA d   1      19.364  25.640  29.156  0.00  0.00     0.024 C 
ATOM     19  H1  DZA d   1      19.528  25.705  30.242  0.00  0.00     0.049 H 
ATOM     20  H2  DZA d   1      19.390  26.650  28.720  0.00  0.00     0.049 H 
BRANCH  18  21
ATOM     21  C09 DZA d   1      18.034  24.942  28.843  0.00  0.00     0.172 C 
ATOM     22  O10 DZA d   1      17.901  24.417  27.721  0.00  0.00    -0.648 OA
ATOM     23  O11 DZA d   1      17.122  25.324  29.585  0.00  0.00    -0.648 OA
ENDBRANCH  18  21
ENDBRANCH  15  18
ENDBRANCH   1  15
TORSDOF 6
