REMARK  32 active torsions:
REMARK  status: ('A' for Active; 'I' for Inactive)
REMARK    1  A    between atoms: N_1  and  CA_2 
REMARK    2  A    between atoms: CA_2  and  C_3 
REMARK    3  A    between atoms: CA_2  and  CB_5 
REMARK       I    between atoms: C_3  and  N_7 
REMARK    4  A    between atoms: CB_5  and  OG_6 
REMARK    5  A    between atoms: N_7  and  CA_8 
REMARK    6  A    between atoms: CA_8  and  C_9 
REMARK    7  A    between atoms: CA_8  and  CB_11 
REMARK       I    between atoms: C_9  and  N_14 
REMARK    8  A    between atoms: CB_11  and  CG_12 
REMARK    9  A    between atoms: CG_12  and  CD_13 
REMARK   10  A    between atoms: N_14  and  CA_15 
REMARK   11  A    between atoms: CA_15  and  C_16 
REMARK   12  A    between atoms: CA_15  and  CB_18 
REMARK       I    between atoms: C_16  and  N_22 
REMARK   13  A    between atoms: CB_18  and  CG_19 
REMARK   14  A    between atoms: CG_19  and  SD_20 
REMARK   15  A    between atoms: SD_20  and  CE_21 
REMARK   16  A    between atoms: N_22  and  CA_23 
REMARK   17  A    between atoms: CA_23  and  C_24 
REMARK   18  A    between atoms: CA_23  and  CB_26 
REMARK       I    between atoms: C_24  and  N_27 
REMARK   19  A    between atoms: N_27  and  CA_28 
REMARK   20  A    between atoms: CA_28  and  C_29 
REMARK   21  A    between atoms: CA_28  and  CB_31 
REMARK       I    between atoms: C_29  and  N_36 
REMARK   22  A    between atoms: CB_31  and  CG_32 
REMARK   23  A    between atoms: CG_32  and  CD_33 
REMARK   24  A    between atoms: N_36  and  CA_37 
REMARK   25  A    between atoms: CA_37  and  C_38 
REMARK   26  A    between atoms: CA_37  and  CB_40 
REMARK       I    between atoms: C_38  and  N_43 
REMARK   27  A    between atoms: CB_40  and  CG1_41 
REMARK   28  A    between atoms: CB_40  and  CG2_42 
REMARK   29  A    between atoms: N_43  and  CA_44 
REMARK   30  A    between atoms: CA_44  and  C_45 
REMARK   31  A    between atoms: CA_44  and  CB_47 
REMARK   32  A    between atoms: CB_47  and  CG_48 
ROOT
ATOM      1  CA  GLU d   1      27.623 -11.965  28.144  0.00  0.00     0.086 C 
ATOM      2  H27 GLU d   1      27.231 -11.039  27.697  0.00  0.00     0.086 H 
ENDROOT
BRANCH   1   3
ATOM      3  N   GLU d   1      27.025 -13.085  27.412  0.00  0.00    -0.346 N 
ATOM      4  C   MET d   1      26.719 -12.964  26.124  0.00  0.00     0.241 C 
ATOM      5  O   MET d   1      26.931 -11.935  25.494  0.00  0.00    -0.271 OA
ATOM      6  H26 GLU d   1      26.846 -13.947  27.885  0.00  0.00     0.163 HD
BRANCH   4   7
ATOM      7  CA  MET d   1      26.082 -14.174  25.432  0.00  0.00     0.090 C 
ATOM      8  H18 MET d   1      26.427 -14.178  24.387  0.00  0.00     0.087 H 
BRANCH   7   9
ATOM      9  N   MET d   1      26.484 -15.432  26.033  0.00  0.00    -0.346 N 
ATOM     10  C   ARG d   1      27.734 -15.874  25.987  0.00  0.00     0.241 C 
ATOM     11  O   ARG d   1      28.657 -15.247  25.465  0.00  0.00    -0.271 OA
ATOM     12  H17 MET d   1      25.794 -15.986  26.499  0.00  0.00     0.163 HD
BRANCH  10  13
ATOM     13  CA  ARG d   1      27.961 -17.241  26.623  0.00  0.00     0.089 C 
ATOM     14  H9  ARG d   1      27.022 -17.808  26.538  0.00  0.00     0.087 H 
BRANCH  13  15
ATOM     15  N   ARG d   1      28.990 -17.990  25.913  0.00  0.00    -0.346 N 
ATOM     16  C   SER d   1      28.757 -18.456  24.689  0.00  0.00     0.251 C 
ATOM     17  O   SER d   1      27.682 -18.288  24.109  0.00  0.00    -0.271 OA
ATOM     18  H8  ARG d   1      29.875 -18.154  26.348  0.00  0.00     0.163 HD
BRANCH  16  19
ATOM     19  CA  SER d   1      29.890 -19.230  24.009  0.00  0.00     0.195 C 
ATOM     20  H4  SER d   1      29.457 -20.149  23.587  0.00  0.00     0.102 H 
BRANCH  19  21
ATOM     21  N   SER d   1      30.477 -18.472  22.907  0.00  0.00    -0.064 N 
ATOM     22  H1  SER d   1      31.217 -19.011  22.485  0.00  0.00     0.275 HD
ATOM     23  H2  SER d   1      30.852 -17.605  23.258  0.00  0.00     0.275 HD
ATOM     24  H3  SER d   1      29.768 -18.277  22.218  0.00  0.00     0.275 HD
ENDBRANCH  19  21
BRANCH  19  25
ATOM     25  CB  SER d   1      30.965 -19.642  25.022  0.00  0.00     0.051 C 
ATOM     26  H5  SER d   1      31.574 -20.449  24.589  0.00  0.00     0.077 H 
ATOM     27  H6  SER d   1      30.474 -20.004  25.937  0.00  0.00     0.077 H 
BRANCH  25  28
ATOM     28  OG  SER d   1      31.810 -18.552  25.352  0.00  0.00    -0.398 OA
ATOM     29  H7  SER d   1      31.290 -17.853  25.731  0.00  0.00     0.209 HD
ENDBRANCH  25  28
ENDBRANCH  19  25
ENDBRANCH  16  19
ENDBRANCH  13  15
BRANCH  13  30
ATOM     30  CB  ARG d   1      28.283 -17.101  28.114  0.00  0.00    -0.038 C 
ATOM     31  H10 ARG d   1      28.120 -16.053  28.408  0.00  0.00     0.036 H 
ATOM     32  H11 ARG d   1      29.340 -17.365  28.267  0.00  0.00     0.036 H 
BRANCH  30  33
ATOM     33  CG  ARG d   1      27.430 -17.990  29.011  0.00  0.00    -0.066 C 
ATOM     34  H12 ARG d   1      27.522 -19.032  28.671  0.00  0.00     0.032 H 
ATOM     35  H13 ARG d   1      26.380 -17.671  28.935  0.00  0.00     0.032 H 
BRANCH  33  36
ATOM     36  CD  ARG d   1      27.868 -17.905  30.468  0.00  0.00    -0.076 C 
ATOM     37  H14 ARG d   1      27.230 -18.559  31.081  0.00  0.00     0.027 H 
ATOM     38  H15 ARG d   1      27.774 -16.867  30.819  0.00  0.00     0.027 H 
ATOM     39  H16 ARG d   1      28.916 -18.228  30.555  0.00  0.00     0.027 H 
ENDBRANCH  33  36
ENDBRANCH  30  33
ENDBRANCH  13  30
ENDBRANCH  10  13
ENDBRANCH   7   9
BRANCH   7  40
ATOM     40  CB  MET d   1      24.551 -14.054  25.425  0.00  0.00    -0.030 C 
ATOM     41  H19 MET d   1      24.288 -13.046  25.073  0.00  0.00     0.037 H 
ATOM     42  H20 MET d   1      24.192 -14.187  26.456  0.00  0.00     0.037 H 
BRANCH  40  43
ATOM     43  CG  MET d   1      23.832 -15.076  24.532  0.00  0.00    -0.021 C 
ATOM     44  H21 MET d   1      22.750 -14.900  24.618  0.00  0.00     0.049 H 
ATOM     45  H22 MET d   1      24.071 -16.082  24.908  0.00  0.00     0.049 H 
BRANCH  43  46
ATOM     46  SD  MET d   1      24.270 -15.018  22.770  0.00  0.00    -0.173 SA
BRANCH  46  47
ATOM     47  CE  MET d   1      25.542 -16.284  22.702  0.00  0.00    -0.035 C 
ATOM     48  H23 MET d   1      25.918 -16.371  21.672  0.00  0.00     0.041 H 
ATOM     49  H24 MET d   1      25.118 -17.248  23.020  0.00  0.00     0.041 H 
ATOM     50  H25 MET d   1      26.370 -16.009  23.372  0.00  0.00     0.041 H 
ENDBRANCH  46  47
ENDBRANCH  43  46
ENDBRANCH  40  43
ENDBRANCH   7  40
ENDBRANCH   4   7
ENDBRANCH   1   3
BRANCH   1  51
ATOM     51  C   GLU d   1      29.147 -11.926  28.015  0.00  0.00     0.240 C 
ATOM     52  O   GLU d   1      29.785 -10.962  28.432  0.00  0.00    -0.271 OA
ATOM     53  N   GLU d   1      29.734 -12.965  27.431  0.00  0.00    -0.346 N 
ATOM     54  H31 GLU d   1      29.177 -13.717  27.079  0.00  0.00     0.163 HD
BRANCH  53  55
ATOM     55  CA  GLU d   1      31.188 -13.014  27.301  0.00  0.00     0.090 C 
ATOM     56  H32 GLU d   1      31.609 -12.508  28.182  0.00  0.00     0.087 H 
BRANCH  55  57
ATOM     57  C   GLU d   1      31.719 -12.286  26.064  0.00  0.00     0.241 C 
ATOM     58  O   GLU d   1      31.092 -12.288  25.001  0.00  0.00    -0.271 OA
ATOM     59  N   VAL d   1      32.882 -11.661  26.204  0.00  0.00    -0.346 N 
ATOM     60  H37 VAL d   1      33.349 -11.666  27.088  0.00  0.00     0.163 HD
BRANCH  59  61
ATOM     61  CA  VAL d   1      33.477 -10.970  25.073  0.00  0.00     0.092 C 
ATOM     62  H38 VAL d   1      32.652 -10.568  24.467  0.00  0.00     0.088 H 
BRANCH  61  63
ATOM     63  C   VAL d   1      34.246 -11.950  24.186  0.00  0.00     0.241 C 
ATOM     64  O   VAL d   1      34.857 -12.896  24.682  0.00  0.00    -0.271 OA
ATOM     65  N   ASP d   1      34.179 -11.704  22.877  0.00  0.00    -0.344 N 
ATOM     66  H46 ASP d   1      33.800 -10.824  22.591  0.00  0.00     0.163 HD
BRANCH  65  67
ATOM     67  CA  ASP d   1      34.620 -12.627  21.822  0.00  0.00     0.105 C 
ATOM     68  H47 ASP d   1      34.706 -12.040  20.896  0.00  0.00     0.090 H 
BRANCH  67  69
ATOM     69  C   ASP d   1      33.602 -13.744  21.556  0.00  0.00     0.197 C 
ATOM     70  O   ASP d   1      32.470 -13.478  21.145  0.00  0.00    -0.646 OA
ATOM     71  OXT ASP d   1      33.875 -14.934  21.741  0.00  0.00    -0.646 OA
ENDBRANCH  67  69
BRANCH  67  72
ATOM     72  CB  ASP d   1      35.999 -13.202  22.123  0.00  0.00     0.044 C 
ATOM     73  H48 ASP d   1      36.118 -14.145  21.569  0.00  0.00     0.053 H 
ATOM     74  H49 ASP d   1      36.072 -13.400  23.203  0.00  0.00     0.053 H 
BRANCH  72  75
ATOM     75  CG  ASP d   1      37.108 -12.263  21.726  0.00  0.00     0.175 C 
ATOM     76  OD1 ASP d   1      36.912 -11.039  21.862  0.00  0.00    -0.648 OA
ATOM     77  OD2 ASP d   1      38.168 -12.747  21.270  0.00  0.00    -0.648 OA
ENDBRANCH  72  75
ENDBRANCH  67  72
ENDBRANCH  65  67
ENDBRANCH  61  63
BRANCH  61  78
ATOM     78  CB  VAL d   1      34.330  -9.761  25.523  0.00  0.00    -0.033 C 
ATOM     79  H39 VAL d   1      34.867  -9.364  24.649  0.00  0.00     0.042 H 
BRANCH  78  80
ATOM     80  CG1 VAL d   1      33.403  -8.663  26.071  0.00  0.00    -0.071 C 
ATOM     81  H40 VAL d   1      34.006  -7.801  26.392  0.00  0.00     0.028 H 
ATOM     82  H41 VAL d   1      32.837  -9.055  26.929  0.00  0.00     0.028 H 
ATOM     83  H42 VAL d   1      32.703  -8.348  25.284  0.00  0.00     0.028 H 
ENDBRANCH  78  80
BRANCH  78  84
ATOM     84  CG2 VAL d   1      35.364 -10.186  26.573  0.00  0.00    -0.071 C 
ATOM     85  H43 VAL d   1      36.011 -10.970  26.154  0.00  0.00     0.028 H 
ATOM     86  H44 VAL d   1      34.846 -10.575  27.462  0.00  0.00     0.028 H 
ATOM     87  H45 VAL d   1      35.977  -9.318  26.857  0.00  0.00     0.028 H 
ENDBRANCH  78  84
ENDBRANCH  61  78
ENDBRANCH  59  61
ENDBRANCH  55  57
BRANCH  55  88
ATOM     88  CB  GLU d   1      31.679 -14.457  27.312  0.00  0.00    -0.029 C 
ATOM     89  H33 GLU d   1      32.762 -14.460  27.117  0.00  0.00     0.037 H 
ATOM     90  H34 GLU d   1      31.162 -15.009  26.513  0.00  0.00     0.037 H 
BRANCH  88  91
ATOM     91  CG  GLU d   1      31.424 -15.163  28.629  0.00  0.00     0.018 C 
ATOM     92  H35 GLU d   1      30.360 -15.058  28.886  0.00  0.00     0.049 H 
ATOM     93  H36 GLU d   1      32.038 -14.690  29.409  0.00  0.00     0.049 H 
BRANCH  91  94
ATOM     94  CD  GLU d   1      31.767 -16.635  28.566  0.00  0.00     0.172 C 
ATOM     95  OE1 GLU d   1      31.991 -17.138  27.442  0.00  0.00    -0.648 OA
ATOM     96  OE2 GLU d   1      31.812 -17.284  29.635  0.00  0.00    -0.648 OA
ENDBRANCH  91  94
ENDBRANCH  88  91
ENDBRANCH  55  88
ENDBRANCH  53  55
ENDBRANCH   1  51
BRANCH   1  97
ATOM     97  CB  GLU d   1      27.214 -11.975  29.626  0.00  0.00    -0.049 C 
ATOM     98  H28 GLU d   1      27.681 -11.122  30.141  0.00  0.00     0.030 H 
ATOM     99  H29 GLU d   1      27.549 -12.913  30.093  0.00  0.00     0.030 H 
ATOM    100  H30 GLU d   1      26.120 -11.897  29.705  0.00  0.00     0.030 H 
ENDBRANCH   1  97
TORSDOF 32
