REMARK  4 active torsions:
REMARK  status: ('A' for Active; 'I' for Inactive)
REMARK    1  A    between atoms: C1_1  and  C2_2 
REMARK       I    between atoms: C2_2  and  N4_4 
REMARK    2  A    between atoms: N4_4  and  C5_5 
REMARK    3  A    between atoms: C12_12  and  N14_14 
REMARK    4  A    between atoms: N14_14  and  C15_15 
ROOT
ATOM      1  C5  AJ1 d   1      19.465  -6.131   1.009  0.00  0.00     0.036 A 
ATOM      2  C6  AJ1 d   1      20.550  -5.531   1.660  0.00  0.00    -0.055 A 
ATOM      3  C7  AJ1 d   1      21.811  -5.548   1.089  0.00  0.00    -0.052 A 
ATOM      4  C8  AJ1 d   1      22.030  -6.164  -0.135  0.00  0.00     0.077 A 
ATOM      5  C9  AJ1 d   1      20.934  -6.758  -0.767  0.00  0.00     0.039 A 
ATOM      6  C10 AJ1 d   1      19.663  -6.743  -0.207  0.00  0.00    -0.038 A 
ATOM      7  S11 AJ1 d   1      21.422  -7.467  -2.285  0.00  0.00    -0.050 SA
ATOM      8  C12 AJ1 d   1      23.068  -6.904  -1.967  0.00  0.00     0.167 A 
ATOM      9  N13 AJ1 d   1      23.237  -6.265  -0.838  0.00  0.00    -0.224 NA
ATOM     10  H   AJ1 d   1      20.400  -5.046   2.625  0.00  0.00     0.087 H 
ATOM     11  H   AJ1 d   1      22.643  -5.071   1.608  0.00  0.00     0.087 H 
ATOM     12  H   AJ1 d   1      18.828  -7.213  -0.727  0.00  0.00     0.089 H 
ENDROOT
BRANCH   1  13
ATOM     13  N4  AJ1 d   1      18.155  -6.121   1.583  0.00  0.00    -0.327 N 
ATOM     14  C2  AJ1 d   1      17.318  -7.197   1.736  0.00  0.00     0.218 C 
ATOM     15  O3  AJ1 d   1      17.430  -8.221   1.058  0.00  0.00    -0.274 OA
ATOM     16  H   AJ1 d   1      17.807  -5.221   1.913  0.00  0.00     0.169 HD
BRANCH  14  17
ATOM     17  C1  AJ1 d   1      16.262  -7.032   2.809  0.00  0.00    -0.003 C 
ATOM     18  H   AJ1 d   1      15.273  -7.126   2.361  0.00  0.00     0.040 H 
ATOM     19  H   AJ1 d   1      16.394  -7.803   3.568  0.00  0.00     0.040 H 
ATOM     20  H   AJ1 d   1      16.362  -6.048   3.267  0.00  0.00     0.040 H 
ENDBRANCH  14  17
ENDBRANCH   1  13
BRANCH   8  21
ATOM     21  N14 AJ1 d   1      24.081  -7.139  -2.841  0.00  0.00    -0.373 N 
ATOM     22  H   AJ1 d   1      24.990  -6.722  -2.639  0.00  0.00     0.161 HD
BRANCH  21  23
ATOM     23  C15 AJ1 d   1      23.956  -7.951  -4.055  0.00  0.00    -0.019 C 
ATOM     24  H   AJ1 d   1      23.660  -8.964  -3.784  0.00  0.00     0.056 H 
ATOM     25  H   AJ1 d   1      23.200  -7.513  -4.707  0.00  0.00     0.056 H 
ATOM     26  H   AJ1 d   1      24.915  -7.977  -4.573  0.00  0.00     0.056 H 
ENDBRANCH  21  23
ENDBRANCH   8  21
TORSDOF 4
