REMARK  1 active torsions:
REMARK  status: ('A' for Active; 'I' for Inactive)
REMARK    1  A    between atoms: C5_5  and  C7_7 
ROOT
ATOM      1  C1  52C d   1      21.988  -7.401  -1.639  0.00  0.00    -0.082 A 
ATOM      2  C2  52C d   1      21.213  -6.887  -0.623  0.00  0.00    -0.081 A 
ATOM      3  C3  52C d   1      21.739  -5.936   0.239  0.00  0.00    -0.061 A 
ATOM      4  C4  52C d   1      23.051  -5.510   0.068  0.00  0.00     0.048 A 
ATOM      5  C5  52C d   1      23.856  -6.020  -0.952  0.00  0.00     0.035 A 
ATOM      6  C6  52C d   1      23.305  -6.974  -1.810  0.00  0.00    -0.068 A 
ATOM      7 CL1  52C d   1      23.643  -4.314   1.181  0.00  0.00    -0.083 Cl
ATOM      8  H   52C d   1      21.569  -8.147  -2.314  0.00  0.00     0.083 H 
ATOM      9  H   52C d   1      20.185  -7.228  -0.496  0.00  0.00     0.083 H 
ATOM     10  H   52C d   1      21.129  -5.526   1.044  0.00  0.00     0.086 H 
ATOM     11  H   52C d   1      23.908  -7.388  -2.619  0.00  0.00     0.085 H 
ENDROOT
BRANCH   5  12
ATOM     12  C7  52C d   1      25.252  -5.604  -1.176  0.00  0.00     0.181 A 
ATOM     13  N8  52C d   1      26.139  -5.252  -0.257  0.00  0.00    -0.239 N 
ATOM     14  N9  52C d   1      27.287  -4.963  -0.928  0.00  0.00    -0.046 NA
ATOM     15  H   52C d   1      25.991  -5.207   0.751  0.00  0.00     0.192 HD
ATOM     16  N10 52C d   1      27.123  -5.123  -2.200  0.00  0.00    -0.023 NA
ATOM     17  N11 52C d   1      25.849  -5.528  -2.373  0.00  0.00    -0.108 NA
ENDBRANCH   5  12
TORSDOF 1
