REMARK  5 active torsions:
REMARK  status: ('A' for Active; 'I' for Inactive)
REMARK    1  A    between atoms: N11_15  and  C7_5 
REMARK    2  A    between atoms: C2_7  and  C1_10 
REMARK    3  A    between atoms: C14_11  and  C12_8 
REMARK       I    between atoms: C12_8  and  N11_15 
REMARK       I    between atoms: C17_9  and  N19_14 
REMARK       I    between atoms: N16_16  and  C17_9 
REMARK    4  A    between atoms: C15_12  and  C14_11 
REMARK    5  A    between atoms: C15_12  and  N16_16 
ROOT
ATOM      1  C12 88S d   1      17.433  -6.955   1.579  0.00  0.00     0.223 C 
ATOM      2  N11 88S d   1      18.338  -5.954   1.482  0.00  0.00    -0.327 N 
ATOM      3  O13 88S d   1      17.555  -8.059   1.005  0.00  0.00    -0.273 OA
ATOM      4  H   88S d   1      18.055  -5.054   1.870  0.00  0.00     0.169 HD
ENDROOT
BRANCH   2   5
ATOM      5  C7  88S d   1      19.634  -6.006   0.905  0.00  0.00     0.036 A 
ATOM      6  C6  88S d   1      20.702  -5.343   1.530  0.00  0.00    -0.055 A 
ATOM      7  C5  88S d   1      21.980  -5.394   0.990  0.00  0.00    -0.052 A 
ATOM      8  H   88S d   1      20.526  -4.783   2.448  0.00  0.00     0.087 H 
ATOM      9  C4  88S d   1      22.206  -6.107  -0.195  0.00  0.00     0.075 A 
ATOM     10  H   88S d   1      22.804  -4.881   1.486  0.00  0.00     0.087 H 
ATOM     11  C9  88S d   1      21.129  -6.746  -0.818  0.00  0.00     0.037 A 
ATOM     12  N3  88S d   1      23.420  -6.225  -0.864  0.00  0.00    -0.245 NA
ATOM     13  C8  88S d   1      19.848  -6.714  -0.287  0.00  0.00    -0.038 A 
ATOM     14  S10 88S d   1      21.670  -7.516  -2.274  0.00  0.00    -0.073 SA
ATOM     15  H   88S d   1      19.026  -7.228  -0.785  0.00  0.00     0.089 H 
ATOM     16  C2  88S d   1      23.276  -6.921  -1.967  0.00  0.00     0.072 A 
BRANCH  16  17
ATOM     17  C1  88S d   1      24.410  -7.210  -2.885  0.00  0.00    -0.029 C 
ATOM     18  H   88S d   1      24.830  -6.272  -3.248  0.00  0.00     0.036 H 
ATOM     19  H   88S d   1      25.177  -7.769  -2.349  0.00  0.00     0.036 H 
ATOM     20  H   88S d   1      24.052  -7.800  -3.729  0.00  0.00     0.036 H 
ENDBRANCH  16  17
ENDBRANCH   2   5
BRANCH   1  21
ATOM     21  C14 88S d   1      16.248  -6.618   2.463  0.00  0.00     0.024 C 
ATOM     22  H   88S d   1      15.913  -5.614   2.202  0.00  0.00     0.049 H 
ATOM     23  H   88S d   1      16.572  -6.700   3.500  0.00  0.00     0.049 H 
BRANCH  21  24
ATOM     24  C15 88S d   1      15.084  -7.558   2.268  0.00  0.00     0.005 C 
ATOM     25  H   88S d   1      14.807  -7.558   1.214  0.00  0.00     0.064 H 
ATOM     26  H   88S d   1      14.254  -7.221   2.890  0.00  0.00     0.064 H 
BRANCH  24  27
ATOM     27  N16 88S d   1      15.441  -8.921   2.659  0.00  0.00    -0.343 N 
ATOM     28  C17 88S d   1      14.963  -9.525   3.753  0.00  0.00     0.313 C 
ATOM     29  N19 88S d   1      15.139 -10.854   3.819  0.00  0.00    -0.352 N 
ATOM     30  O18 88S d   1      14.391  -8.885   4.658  0.00  0.00    -0.248 OA
ATOM     31  H   88S d   1      14.800 -11.374   4.629  0.00  0.00     0.160 HD
ATOM     32  H   88S d   1      15.612 -11.344   3.060  0.00  0.00     0.160 HD
ATOM     33  H   88S d   1      16.089  -9.439   2.066  0.00  0.00     0.164 HD
ENDBRANCH  24  27
ENDBRANCH  21  24
ENDBRANCH   1  21
TORSDOF 5
