REMARK  12 active torsions:
REMARK  status: ('A' for Active; 'I' for Inactive)
REMARK    1  A    between atoms: C21_19  and  C22_8 
REMARK    2  A    between atoms: C25_9  and  C28_20 
REMARK    3  A    between atoms: N11_26  and  C7_11 
REMARK    4  A    between atoms: C2_13  and  C1_18 
REMARK    5  A    between atoms: C14_21  and  C12_14 
REMARK       I    between atoms: C12_14  and  N11_26 
REMARK    6  A    between atoms: C29_24  and  C30_15 
REMARK    7  A    between atoms: C29_24  and  C33_16 
REMARK       I    between atoms: C17_17  and  N19_27 
REMARK       I    between atoms: N16_28  and  C17_17 
REMARK    8  A    between atoms: C20_22  and  C21_19 
REMARK    9  A    between atoms: C28_20  and  C29_24 
REMARK   10  A    between atoms: C15_23  and  C14_21 
REMARK   11  A    between atoms: N19_27  and  C20_22 
REMARK   12  A    between atoms: C15_23  and  N16_28 
ROOT
ATOM      1  C17 88V d   1      14.886  -9.904   4.310  0.00  0.00     0.316 C 
ATOM      2  N19 88V d   1      15.014 -11.200   4.632  0.00  0.00    -0.343 N 
ATOM      3  N16 88V d   1      15.206  -9.578   3.048  0.00  0.00    -0.343 N 
ATOM      4  O18 88V d   1      14.454  -9.081   5.111  0.00  0.00    -0.247 OA
ATOM      5  H   88V d   1      15.239 -11.881   3.907  0.00  0.00     0.164 HD
ATOM      6  H   88V d   1      15.644 -10.285   2.458  0.00  0.00     0.164 HD
ENDROOT
BRANCH   2   7
ATOM      7  C20 88V d   1      14.834 -11.645   6.008  0.00  0.00     0.000 C 
ATOM      8  H   88V d   1      15.496 -11.056   6.643  0.00  0.00     0.064 H 
ATOM      9  H   88V d   1      13.784 -11.515   6.271  0.00  0.00     0.064 H 
BRANCH   7  10
ATOM     10  C21 88V d   1      15.184 -13.099   6.190  0.00  0.00    -0.026 C 
ATOM     11  H   88V d   1      14.803 -13.639   5.323  0.00  0.00     0.042 H 
ATOM     12  H   88V d   1      16.266 -13.164   6.301  0.00  0.00     0.042 H 
BRANCH  10  13
ATOM     13  C22 88V d   1      14.562 -13.719   7.422  0.00  0.00    -0.057 A 
ATOM     14  C23 88V d   1      15.359 -14.169   8.460  0.00  0.00    -0.076 A 
ATOM     15  C24 88V d   1      14.804 -14.764   9.577  0.00  0.00    -0.076 A 
ATOM     16  H   88V d   1      16.441 -14.052   8.396  0.00  0.00     0.084 H 
ATOM     17  C25 88V d   1      13.434 -14.927   9.692  0.00  0.00    -0.057 A 
ATOM     18  H   88V d   1      15.455 -15.110  10.380  0.00  0.00     0.084 H 
ATOM     19  C26 88V d   1      12.636 -14.476   8.655  0.00  0.00    -0.076 A 
ATOM     20  C27 88V d   1      13.192 -13.888   7.533  0.00  0.00    -0.076 A 
ATOM     21  H   88V d   1      11.554 -14.586   8.723  0.00  0.00     0.084 H 
ATOM     22  H   88V d   1      12.542 -13.553   6.724  0.00  0.00     0.084 H 
BRANCH  17  23
ATOM     23  C28 88V d   1      12.838 -15.582  10.918  0.00  0.00    -0.019 C 
ATOM     24  H   88V d   1      12.289 -14.816  11.466  0.00  0.00     0.042 H 
ATOM     25  H   88V d   1      13.658 -16.018  11.489  0.00  0.00     0.042 H 
BRANCH  23  26
ATOM     26  C29 88V d   1      11.847 -16.717  10.585  0.00  0.00     0.118 C 
ATOM     27  H   88V d   1      11.056 -16.272   9.981  0.00  0.00     0.074 H 
BRANCH  26  28
ATOM     28  C30 88V d   1      11.227 -17.301  11.845  0.00  0.00     0.188 C 
ATOM     29  O31 88V d   1      11.678 -18.291  12.396  0.00  0.00    -0.647 OA
ATOM     30  O32 88V d   1      10.161 -16.669  12.247  0.00  0.00    -0.647 OA
ENDBRANCH  26  28
BRANCH  26  31
ATOM     31  C33 88V d   1      12.501 -17.821   9.768  0.00  0.00     0.188 C 
ATOM     32  O34 88V d   1      13.515 -18.370  10.162  0.00  0.00    -0.647 OA
ATOM     33  O35 88V d   1      11.906 -18.111   8.641  0.00  0.00    -0.647 OA
ENDBRANCH  26  31
ENDBRANCH  23  26
ENDBRANCH  17  23
ENDBRANCH  10  13
ENDBRANCH   7  10
ENDBRANCH   2   7
BRANCH   3  34
ATOM     34  C15 88V d   1      14.955  -8.256   2.484  0.00  0.00     0.005 C 
ATOM     35  H   88V d   1      14.867  -8.365   1.403  0.00  0.00     0.064 H 
ATOM     36  H   88V d   1      14.048  -7.863   2.943  0.00  0.00     0.064 H 
BRANCH  34  37
ATOM     37  C14 88V d   1      16.077  -7.279   2.763  0.00  0.00     0.024 C 
ATOM     38  H   88V d   1      15.710  -6.277   2.540  0.00  0.00     0.049 H 
ATOM     39  H   88V d   1      16.373  -7.400   3.805  0.00  0.00     0.049 H 
BRANCH  37  40
ATOM     40  C12 88V d   1      17.299  -7.525   1.904  0.00  0.00     0.223 C 
ATOM     41  N11 88V d   1      18.085  -6.440   1.699  0.00  0.00    -0.327 N 
ATOM     42  H   88V d   1      17.709  -5.537   1.986  0.00  0.00     0.169 HD
ATOM     43  O13 88V d   1      17.531  -8.629   1.416  0.00  0.00    -0.273 OA
BRANCH  41  44
ATOM     44  C7  88V d   1      19.379  -6.441   1.124  0.00  0.00     0.036 A 
ATOM     45  C6  88V d   1      20.415  -5.747   1.735  0.00  0.00    -0.055 A 
ATOM     46  C5  88V d   1      21.685  -5.746   1.187  0.00  0.00    -0.052 A 
ATOM     47  H   88V d   1      20.225  -5.197   2.657  0.00  0.00     0.087 H 
ATOM     48  C4  88V d   1      21.936  -6.456   0.013  0.00  0.00     0.075 A 
ATOM     49  H   88V d   1      22.488  -5.191   1.672  0.00  0.00     0.087 H 
ATOM     50  C9  88V d   1      20.889  -7.155  -0.585  0.00  0.00     0.037 A 
ATOM     51  N3  88V d   1      23.158  -6.548  -0.649  0.00  0.00    -0.245 NA
ATOM     52  C8  88V d   1      19.612  -7.154  -0.047  0.00  0.00    -0.038 A 
ATOM     53  S10 88V d   1      21.467  -7.941  -2.026  0.00  0.00    -0.073 SA
ATOM     54  H   88V d   1      18.805  -7.702  -0.533  0.00  0.00     0.089 H 
ATOM     55  C2  88V d   1      23.046  -7.296  -1.720  0.00  0.00     0.072 A 
BRANCH  55  56
ATOM     56  C1  88V d   1      24.213  -7.567  -2.607  0.00  0.00    -0.029 C 
ATOM     57  H   88V d   1      24.595  -6.625  -3.000  0.00  0.00     0.036 H 
ATOM     58  H   88V d   1      24.994  -8.067  -2.035  0.00  0.00     0.036 H 
ATOM     59  H   88V d   1      23.900  -8.206  -3.432  0.00  0.00     0.036 H 
ENDBRANCH  55  56
ENDBRANCH  41  44
ENDBRANCH  37  40
ENDBRANCH  34  37
ENDBRANCH   3  34
TORSDOF 12
