REMARK  13 active torsions:
REMARK  status: ('A' for Active; 'I' for Inactive)
REMARK    1  A    between atoms: C21_19  and  C22_8 
REMARK    2  A    between atoms: C25_9  and  C28_20 
REMARK    3  A    between atoms: N11_27  and  C7_11 
REMARK    4  A    between atoms: C2_13  and  C1_18 
REMARK    5  A    between atoms: C14_21  and  C12_14 
REMARK       I    between atoms: C12_14  and  N11_27 
REMARK    6  A    between atoms: C17_15  and  C19_22 
REMARK       I    between atoms: N16_28  and  C17_15 
REMARK    7  A    between atoms: C29_25  and  C30_16 
REMARK    8  A    between atoms: C29_25  and  C33_17 
REMARK    9  A    between atoms: C20_23  and  C21_19 
REMARK   10  A    between atoms: C28_20  and  C29_25 
REMARK   11  A    between atoms: C15_24  and  C14_21 
REMARK   12  A    between atoms: C19_22  and  C20_23 
REMARK   13  A    between atoms: C15_24  and  N16_28 
ROOT
ATOM      1  C17 88N d   1      14.926  -9.885   4.206  0.00  0.00     0.217 C 
ATOM      2  N16 88N d   1      15.296  -9.488   2.992  0.00  0.00    -0.361 N 
ATOM      3  O18 88N d   1      14.422  -9.132   5.038  0.00  0.00    -0.274 OA
ATOM      4  H   88N d   1      15.838 -10.131   2.415  0.00  0.00     0.162 HD
ENDROOT
BRANCH   1   5
ATOM      5  C19 88N d   1      15.130 -11.350   4.486  0.00  0.00     0.009 C 
ATOM      6  H   88N d   1      16.193 -11.553   4.356  0.00  0.00     0.047 H 
ATOM      7  H   88N d   1      14.476 -11.897   3.807  0.00  0.00     0.047 H 
BRANCH   5   8
ATOM      8  C20 88N d   1      14.767 -11.782   5.892  0.00  0.00    -0.053 C 
ATOM      9  H   88N d   1      15.261 -11.108   6.592  0.00  0.00     0.034 H 
ATOM     10  H   88N d   1      13.681 -11.751   5.986  0.00  0.00     0.034 H 
BRANCH   8  11
ATOM     11  C21 88N d   1      15.225 -13.191   6.194  0.00  0.00    -0.041 C 
ATOM     12  H   88N d   1      14.949 -13.809   5.340  0.00  0.00     0.040 H 
ATOM     13  H   88N d   1      16.297 -13.146   6.386  0.00  0.00     0.040 H 
BRANCH  11  14
ATOM     14  C22 88N d   1      14.580 -13.805   7.414  0.00  0.00    -0.058 A 
ATOM     15  C23 88N d   1      15.358 -14.274   8.456  0.00  0.00    -0.076 A 
ATOM     16  C24 88N d   1      14.779 -14.843   9.574  0.00  0.00    -0.076 A 
ATOM     17  H   88N d   1      16.443 -14.194   8.395  0.00  0.00     0.084 H 
ATOM     18  C25 88N d   1      13.405 -14.954   9.686  0.00  0.00    -0.057 A 
ATOM     19  H   88N d   1      15.415 -15.210  10.380  0.00  0.00     0.084 H 
ATOM     20  C26 88N d   1      12.626 -14.478   8.647  0.00  0.00    -0.076 A 
ATOM     21  C27 88N d   1      13.206 -13.910   7.528  0.00  0.00    -0.076 A 
ATOM     22  H   88N d   1      11.540 -14.552   8.711  0.00  0.00     0.084 H 
ATOM     23  H   88N d   1      12.571 -13.539   6.724  0.00  0.00     0.084 H 
BRANCH  18  24
ATOM     24  C28 88N d   1      12.781 -15.604  10.893  0.00  0.00    -0.019 C 
ATOM     25  H   88N d   1      12.232 -14.837  11.439  0.00  0.00     0.042 H 
ATOM     26  H   88N d   1      13.581 -16.050  11.483  0.00  0.00     0.042 H 
BRANCH  24  27
ATOM     27  C29 88N d   1      11.787 -16.723  10.522  0.00  0.00     0.118 C 
ATOM     28  H   88N d   1      11.008 -16.269   9.909  0.00  0.00     0.074 H 
BRANCH  27  29
ATOM     29  C30 88N d   1      12.421 -17.798   9.653  0.00  0.00     0.188 C 
ATOM     30  O31 88N d   1      11.953 -18.093   8.564  0.00  0.00    -0.647 OA
ATOM     31  O32 88N d   1      13.488 -18.342  10.148  0.00  0.00    -0.647 OA
ENDBRANCH  27  29
BRANCH  27  32
ATOM     32  C33 88N d   1      11.101 -17.289  11.748  0.00  0.00     0.188 C 
ATOM     33  O34 88N d   1      10.177 -16.675  12.253  0.00  0.00    -0.647 OA
ATOM     34  O35 88N d   1      11.557 -18.421  12.204  0.00  0.00    -0.647 OA
ENDBRANCH  27  32
ENDBRANCH  24  27
ENDBRANCH  18  24
ENDBRANCH  11  14
ENDBRANCH   8  11
ENDBRANCH   5   8
ENDBRANCH   1   5
BRANCH   2  35
ATOM     35  C15 88N d   1      14.964  -8.179   2.447  0.00  0.00     0.003 C 
ATOM     36  H   88N d   1      14.830  -8.275   1.369  0.00  0.00     0.064 H 
ATOM     37  H   88N d   1      14.053  -7.823   2.928  0.00  0.00     0.064 H 
BRANCH  35  38
ATOM     38  C14 88N d   1      16.066  -7.184   2.708  0.00  0.00     0.024 C 
ATOM     39  H   88N d   1      15.680  -6.186   2.499  0.00  0.00     0.049 H 
ATOM     40  H   88N d   1      16.383  -7.291   3.745  0.00  0.00     0.049 H 
BRANCH  38  41
ATOM     41  C12 88N d   1      17.266  -7.421   1.822  0.00  0.00     0.223 C 
ATOM     42  N11 88N d   1      18.079  -6.349   1.657  0.00  0.00    -0.327 N 
ATOM     43  H   88N d   1      17.722  -5.446   1.969  0.00  0.00     0.169 HD
ATOM     44  O13 88N d   1      17.463  -8.513   1.293  0.00  0.00    -0.273 OA
BRANCH  42  45
ATOM     45  C7  88N d   1      19.381  -6.365   1.090  0.00  0.00     0.036 A 
ATOM     46  C6  88N d   1      20.431  -5.700   1.708  0.00  0.00    -0.055 A 
ATOM     47  C5  88N d   1      21.701  -5.723   1.162  0.00  0.00    -0.052 A 
ATOM     48  H   88N d   1      20.252  -5.154   2.634  0.00  0.00     0.087 H 
ATOM     49  C4  88N d   1      21.939  -6.425  -0.020  0.00  0.00     0.075 A 
ATOM     50  H   88N d   1      22.516  -5.193   1.655  0.00  0.00     0.087 H 
ATOM     51  C9  88N d   1      20.877  -7.097  -0.625  0.00  0.00     0.037 A 
ATOM     52  N3  88N d   1      23.158  -6.535  -0.687  0.00  0.00    -0.245 NA
ATOM     53  C8  88N d   1      19.604  -7.082  -0.080  0.00  0.00    -0.038 A 
ATOM     54  S10 88N d   1      21.435  -7.879  -2.076  0.00  0.00    -0.073 SA
ATOM     55  H   88N d   1      18.790  -7.624  -0.561  0.00  0.00     0.089 H 
ATOM     56  C2  88N d   1      23.028  -7.270  -1.767  0.00  0.00     0.072 A 
BRANCH  56  57
ATOM     57  C1  88N d   1      24.182  -7.552  -2.674  0.00  0.00    -0.029 C 
ATOM     58  H   88N d   1      24.575  -6.612  -3.063  0.00  0.00     0.036 H 
ATOM     59  H   88N d   1      24.962  -8.071  -2.117  0.00  0.00     0.036 H 
ATOM     60  H   88N d   1      23.848  -8.178  -3.502  0.00  0.00     0.036 H 
ENDBRANCH  56  57
ENDBRANCH  42  45
ENDBRANCH  38  41
ENDBRANCH  35  38
ENDBRANCH   2  35
TORSDOF 13
