REMARK  4 active torsions:
REMARK  status: ('A' for Active; 'I' for Inactive)
REMARK    1  A    between atoms: C1_1  and  N2_2 
REMARK    2  A    between atoms: C9_9  and  C15_15 
REMARK    3  A    between atoms: C15_15  and  C14_14 
REMARK    4  A    between atoms: N16_16  and  C24_24 
ROOT
ATOM      1  C1  VWN d   1      10.072  -4.205   8.763  0.00  0.00     0.133 A 
ATOM      2  N8  VWN d   1      11.158  -4.955   8.431  0.00  0.00    -0.217 NA
ATOM      3  C9  VWN d   1      11.694  -5.739   9.369  0.00  0.00     0.116 A 
ATOM      4  N10 VWN d   1      11.195  -5.828  10.673  0.00  0.00    -0.311 N 
ATOM      5  C11 VWN d   1      10.094  -5.092  11.070  0.00  0.00     0.250 A 
ATOM      6  C12 VWN d   1       9.529  -4.256  10.056  0.00  0.00     0.027 A 
ATOM      7  O13 VWN d   1       9.680  -5.195  12.233  0.00  0.00    -0.268 OA
ATOM      8  H   VWN d   1      11.652  -6.447  11.343  0.00  0.00     0.170 HD
ATOM      9  H   VWN d   1       8.658  -3.645  10.293  0.00  0.00     0.098 H 
ENDROOT
BRANCH   3  10
ATOM     10  C15 VWN d   1      12.906  -6.574   9.008  0.00  0.00     0.045 C 
ATOM     11  H   VWN d   1      13.316  -7.001   9.923  0.00  0.00     0.056 H 
ATOM     12  H   VWN d   1      13.630  -5.932   8.507  0.00  0.00     0.056 H 
BRANCH  10  13
ATOM     13  C14 VWN d   1      12.547  -7.690   8.086  0.00  0.00     0.114 A 
ATOM     14  N16 VWN d   1      13.291  -8.003   6.943  0.00  0.00    -0.337 N 
ATOM     15  C19 VWN d   1      12.649  -9.100   6.376  0.00  0.00     0.064 A 
ATOM     16  C18 VWN d   1      11.564  -9.378   7.203  0.00  0.00     0.085 A 
ATOM     17  C20 VWN d   1      12.927  -9.855   5.245  0.00  0.00    -0.055 A 
ATOM     18  N17 VWN d   1      11.516  -8.482   8.270  0.00  0.00    -0.233 NA
ATOM     19  C23 VWN d   1      10.721 -10.445   6.897  0.00  0.00    -0.053 A 
ATOM     20  C22 VWN d   1      10.991 -11.210   5.767  0.00  0.00    -0.081 A 
ATOM     21  H   VWN d   1       9.866 -10.676   7.532  0.00  0.00     0.087 H 
ATOM     22  C21 VWN d   1      12.081 -10.919   4.951  0.00  0.00    -0.081 A 
ATOM     23  H   VWN d   1      10.341 -12.048   5.517  0.00  0.00     0.083 H 
ATOM     24  H   VWN d   1      12.274 -11.533   4.071  0.00  0.00     0.083 H 
ATOM     25  H   VWN d   1      13.780  -9.622   4.608  0.00  0.00     0.087 H 
BRANCH  14  26
ATOM     26  C24 VWN d   1      14.491  -7.378   6.389  0.00  0.00    -0.012 C 
ATOM     27  H   VWN d   1      14.281  -6.334   6.156  0.00  0.00     0.057 H 
ATOM     28  H   VWN d   1      15.298  -7.433   7.119  0.00  0.00     0.057 H 
ATOM     29  H   VWN d   1      14.785  -7.902   5.480  0.00  0.00     0.057 H 
ENDBRANCH  14  26
ENDBRANCH  10  13
ENDBRANCH   3  10
BRANCH   1  30
ATOM     30  N2  VWN d   1       9.546  -3.390   7.728  0.00  0.00    -0.362 N 
ATOM     31  C3  VWN d   1       8.686  -2.247   8.062  0.00  0.00     0.016 C 
ATOM     32  C4  VWN d   1       7.822  -1.892   6.879  0.00  0.00     0.034 C 
ATOM     33  H   VWN d   1       9.310  -1.391   8.321  0.00  0.00     0.067 H 
ATOM     34  H   VWN d   1       8.049  -2.511   8.906  0.00  0.00     0.067 H 
ATOM     35  O5  VWN d   1       8.602  -1.633   5.717  0.00  0.00    -0.388 OA
ATOM     36  H   VWN d   1       7.259  -0.991   7.123  0.00  0.00     0.076 H 
ATOM     37  H   VWN d   1       7.163  -2.735   6.670  0.00  0.00     0.076 H 
ATOM     38  C6  VWN d   1       9.359  -2.790   5.375  0.00  0.00     0.034 C 
ATOM     39  C7  VWN d   1      10.300  -3.183   6.484  0.00  0.00     0.016 C 
ATOM     40  H   VWN d   1       9.948  -2.566   4.486  0.00  0.00     0.076 H 
ATOM     41  H   VWN d   1       8.668  -3.615   5.200  0.00  0.00     0.076 H 
ATOM     42  H   VWN d   1      10.809  -4.108   6.213  0.00  0.00     0.067 H 
ATOM     43  H   VWN d   1      11.031  -2.389   6.634  0.00  0.00     0.067 H 
ENDBRANCH   1  30
TORSDOF 4
