REMARK  10 active torsions:
REMARK  status: ('A' for Active; 'I' for Inactive)
REMARK    1  A    between atoms: C01_1  and  C02_2 
REMARK    2  A    between atoms: C03_5  and  C04_6 
REMARK    3  A    between atoms: C05_7  and  C06_8 
REMARK    4  A    between atoms: C10_12  and  N02_13 
REMARK    5  A    between atoms: N02_13  and  C11_14 
REMARK    6  A    between atoms: C16_19  and  C17_20 
REMARK    7  A    between atoms: C17_20  and  C18_21 
REMARK    8  A    between atoms: C17_20  and  C19_22 
REMARK    9  A    between atoms: C17_20  and  C20_23 
REMARK   10  A    between atoms: C21_24  and  C1_29 
ROOT
ATOM      1  C06 S5B d   1      19.012  10.024  -9.789  0.00  0.00    -0.019 A 
ATOM      2  C07 S5B d   1      19.558  11.085 -10.502  0.00  0.00    -0.071 A 
ATOM      3  C08 S5B d   1      18.777  11.884 -11.277  0.00  0.00    -0.068 A 
ATOM      4  C09 S5B d   1      17.381  11.665 -11.383  0.00  0.00     0.021 A 
ATOM      5  C10 S5B d   1      16.499  12.477 -12.178  0.00  0.00     0.064 A 
ATOM      6  C21 S5B d   1      15.124  12.130 -12.188  0.00  0.00     0.085 A 
ATOM      7  C22 S5B d   1      14.716  11.031 -11.431  0.00  0.00     0.022 A 
ATOM      8  N1  S5B d   1      15.483  10.277 -10.684  0.00  0.00    -0.259 NA
ATOM      9  C23 S5B d   1      16.818  10.581 -10.656  0.00  0.00     0.070 A 
ATOM     10  C24 S5B d   1      17.662   9.770  -9.863  0.00  0.00    -0.043 A 
ATOM     11  H7  S5B d   1      20.623  11.278 -10.439  0.00  0.00     0.084 H 
ATOM     12  H8  S5B d   1      19.230  12.703 -11.823  0.00  0.00     0.085 H 
ATOM     13  H23 S5B d   1      13.663  10.777 -11.465  0.00  0.00     0.116 H 
ATOM     14  H24 S5B d   1      17.241   8.940  -9.308  0.00  0.00     0.088 H 
ENDROOT
BRANCH   5  15
ATOM     15  N02 S5B d   1      16.979  13.558 -12.889  0.00  0.00    -0.354 N 
ATOM     16  H9  S5B d   1      16.693  13.688 -13.870  0.00  0.00     0.166 HD
BRANCH  15  17
ATOM     17  C11 S5B d   1      17.875  14.509 -12.278  0.00  0.00     0.039 A 
ATOM     18  C12 S5B d   1      17.764  14.813 -10.920  0.00  0.00    -0.057 A 
ATOM     19  C13 S5B d   1      18.644  15.704 -10.331  0.00  0.00    -0.081 A 
ATOM     20  H10 S5B d   1      16.986  14.349 -10.325  0.00  0.00     0.086 H 
ATOM     21  C14 S5B d   1      19.638  16.294 -11.077  0.00  0.00    -0.082 A 
ATOM     22  H11 S5B d   1      18.550  15.938  -9.277  0.00  0.00     0.083 H 
ATOM     23  C15 S5B d   1      19.770  16.005 -12.424  0.00  0.00    -0.074 A 
ATOM     24  H12 S5B d   1      20.323  16.990 -10.606  0.00  0.00     0.083 H 
ATOM     25  C16 S5B d   1      18.908  15.110 -13.053  0.00  0.00    -0.024 A 
ATOM     26  H13 S5B d   1      20.556  16.482 -12.998  0.00  0.00     0.084 H 
BRANCH  25  27
ATOM     27  C17 S5B d   1      19.111  14.827 -14.560  0.00  0.00    -0.022 C 
BRANCH  27  28
ATOM     28  C18 S5B d   1      19.173  13.322 -14.829  0.00  0.00    -0.066 C 
ATOM     29  H14 S5B d   1      19.317  13.148 -15.905  0.00  0.00     0.028 H 
ATOM     30  H15 S5B d   1      18.233  12.852 -14.505  0.00  0.00     0.028 H 
ATOM     31  H16 S5B d   1      20.013  12.884 -14.271  0.00  0.00     0.028 H 
ENDBRANCH  27  28
BRANCH  27  32
ATOM     32  C19 S5B d   1      17.958  15.414 -15.374  0.00  0.00    -0.066 C 
ATOM     33  H17 S5B d   1      17.896  16.497 -15.194  0.00  0.00     0.028 H 
ATOM     34  H18 S5B d   1      17.014  14.938 -15.069  0.00  0.00     0.028 H 
ATOM     35  H19 S5B d   1      18.133  15.229 -16.444  0.00  0.00     0.028 H 
ENDBRANCH  27  32
BRANCH  27  36
ATOM     36  C20 S5B d   1      20.414  15.441 -15.084  0.00  0.00    -0.066 C 
ATOM     37  H20 S5B d   1      21.265  15.036 -14.516  0.00  0.00     0.028 H 
ATOM     38  H21 S5B d   1      20.379  16.534 -14.963  0.00  0.00     0.028 H 
ATOM     39  H22 S5B d   1      20.534  15.193 -16.149  0.00  0.00     0.028 H 
ENDBRANCH  27  36
ENDBRANCH  25  27
ENDBRANCH  15  17
ENDBRANCH   5  15
BRANCH   6  40
ATOM     40  C1  S5B d   1      14.085  12.840 -12.991  0.00  0.00     0.213 C 
ATOM     41  O02 S5B d   1      14.520  13.835 -13.705  0.00  0.00    -0.644 OA
ATOM     42  O1  S5B d   1      12.926  12.452 -13.026  0.00  0.00    -0.644 OA
ENDBRANCH   6  40
BRANCH   1  43
ATOM     43  C05 S5B d   1      19.892   9.159  -8.969  0.00  0.00     0.032 A 
ATOM     44  C02 S5B d   1      19.844   8.908  -7.583  0.00  0.00     0.071 A 
ATOM     45  N01 S5B d   1      20.802   8.096  -7.231  0.00  0.00    -0.133 NA
ATOM     46  O01 S5B d   1      21.521   7.791  -8.419  0.00  0.00    -0.217 OA
ATOM     47  C03 S5B d   1      20.947   8.446  -9.430  0.00  0.00     0.088 A 
BRANCH  44  48
ATOM     48  C01 S5B d   1      18.896   9.419  -6.550  0.00  0.00    -0.033 C 
ATOM     49  H1  S5B d   1      18.161  10.085  -7.025  0.00  0.00     0.035 H 
ATOM     50  H2  S5B d   1      19.454   9.976  -5.783  0.00  0.00     0.035 H 
ATOM     51  H3  S5B d   1      18.374   8.572  -6.081  0.00  0.00     0.035 H 
ENDBRANCH  44  48
BRANCH  47  52
ATOM     52  C04 S5B d   1      21.555   8.255 -10.768  0.00  0.00    -0.028 C 
ATOM     53  H4  S5B d   1      20.997   8.842 -11.512  0.00  0.00     0.036 H 
ATOM     54  H5  S5B d   1      21.518   7.190 -11.039  0.00  0.00     0.036 H 
ATOM     55  H6  S5B d   1      22.602   8.591 -10.746  0.00  0.00     0.036 H 
ENDBRANCH  47  52
ENDBRANCH   1  43
TORSDOF 10
