REMARK  13 active torsions:
REMARK  status: ('A' for Active; 'I' for Inactive)
REMARK    1  A    between atoms: C26_8  and  C29_20 
REMARK    2  A    between atoms: O22_35  and  C23_10 
REMARK    3  A    between atoms: N11_26  and  C7_11 
REMARK    4  A    between atoms: C2_13  and  C1_18 
REMARK    5  A    between atoms: C14_21  and  C12_14 
REMARK       I    between atoms: C12_14  and  N11_26 
REMARK    6  A    between atoms: C30_24  and  C31_15 
REMARK    7  A    between atoms: C30_24  and  C34_16 
REMARK       I    between atoms: C17_17  and  N19_27 
REMARK       I    between atoms: N16_28  and  C17_17 
REMARK    8  A    between atoms: C20_22  and  C21_19 
REMARK    9  A    between atoms: C21_19  and  O22_35 
REMARK   10  A    between atoms: C29_20  and  C30_24 
REMARK   11  A    between atoms: C15_23  and  C14_21 
REMARK   12  A    between atoms: N19_27  and  C20_22 
REMARK   13  A    between atoms: C15_23  and  N16_28 
ROOT
ATOM      1  C17 W7E d   1      14.877  -9.960   4.098  0.00  0.00     0.316 C 
ATOM      2  N19 W7E d   1      15.192 -11.260   4.226  0.00  0.00    -0.341 N 
ATOM      3  N16 W7E d   1      15.032  -9.451   2.865  0.00  0.00    -0.343 N 
ATOM      4  O18 W7E d   1      14.429  -9.297   5.033  0.00  0.00    -0.247 OA
ATOM      5  H   W7E d   1      15.082 -11.876   3.420  0.00  0.00     0.164 HD
ATOM      6  H   W7E d   1      15.355 -10.064   2.117  0.00  0.00     0.164 HD
ENDROOT
BRANCH   2   7
ATOM      7  C20 W7E d   1      15.685 -11.820   5.478  0.00  0.00     0.017 C 
ATOM      8  H   W7E d   1      16.639 -12.308   5.278  0.00  0.00     0.067 H 
ATOM      9  H   W7E d   1      15.780 -11.007   6.198  0.00  0.00     0.067 H 
BRANCH   7  10
ATOM     10  C21 W7E d   1      14.751 -12.841   6.049  0.00  0.00     0.041 C 
ATOM     11  H   W7E d   1      14.481 -13.579   5.293  0.00  0.00     0.077 H 
ATOM     12  H   W7E d   1      13.827 -12.370   6.385  0.00  0.00     0.077 H 
BRANCH  10  13
ATOM     13  O22 W7E d   1      15.426 -13.467   7.146  0.00  0.00    -0.350 OA
BRANCH  13  14
ATOM     14  C23 W7E d   1      14.670 -14.012   8.155  0.00  0.00     0.068 A 
ATOM     15  C28 W7E d   1      13.289 -13.993   8.091  0.00  0.00    -0.050 A 
ATOM     16  C27 W7E d   1      12.550 -14.541   9.123  0.00  0.00    -0.074 A 
ATOM     17  H   W7E d   1      12.786 -13.549   7.232  0.00  0.00     0.087 H 
ATOM     18  C26 W7E d   1      13.174 -15.145  10.203  0.00  0.00    -0.057 A 
ATOM     19  H   W7E d   1      11.461 -14.497   9.087  0.00  0.00     0.084 H 
ATOM     20  C25 W7E d   1      14.555 -15.204  10.219  0.00  0.00    -0.074 A 
ATOM     21  C24 W7E d   1      15.308 -14.627   9.213  0.00  0.00    -0.050 A 
ATOM     22  H   W7E d   1      15.059 -15.714  11.039  0.00  0.00     0.084 H 
ATOM     23  H   W7E d   1      16.397 -14.658   9.255  0.00  0.00     0.087 H 
BRANCH  18  24
ATOM     24  C29 W7E d   1      12.371 -15.817  11.287  0.00  0.00    -0.019 C 
ATOM     25  H   W7E d   1      11.800 -15.044  11.802  0.00  0.00     0.042 H 
ATOM     26  H   W7E d   1      13.070 -16.342  11.938  0.00  0.00     0.042 H 
BRANCH  24  27
ATOM     27  C30 W7E d   1      11.367 -16.856  10.747  0.00  0.00     0.118 C 
ATOM     28  H   W7E d   1      10.601 -16.301  10.206  0.00  0.00     0.074 H 
BRANCH  27  29
ATOM     29  C31 W7E d   1      12.015 -17.817   9.767  0.00  0.00     0.188 C 
ATOM     30  O32 W7E d   1      11.498 -18.069   8.690  0.00  0.00    -0.647 OA
ATOM     31  O33 W7E d   1      13.137 -18.333  10.162  0.00  0.00    -0.647 OA
ENDBRANCH  27  29
BRANCH  27  32
ATOM     32  C34 W7E d   1      10.698 -17.612  11.871  0.00  0.00     0.188 C 
ATOM     33  O35 W7E d   1      11.117 -18.676  12.298  0.00  0.00    -0.647 OA
ATOM     34  O36 W7E d   1       9.662 -16.989  12.343  0.00  0.00    -0.647 OA
ENDBRANCH  27  32
ENDBRANCH  24  27
ENDBRANCH  18  24
ENDBRANCH  13  14
ENDBRANCH  10  13
ENDBRANCH   7  10
ENDBRANCH   2   7
BRANCH   3  35
ATOM     35  C15 W7E d   1      14.755  -8.054   2.558  0.00  0.00     0.005 C 
ATOM     36  H   W7E d   1      14.523  -7.977   1.496  0.00  0.00     0.064 H 
ATOM     37  H   W7E d   1      13.923  -7.726   3.180  0.00  0.00     0.064 H 
BRANCH  35  38
ATOM     38  C14 W7E d   1      15.942  -7.168   2.849  0.00  0.00     0.024 C 
ATOM     39  H   W7E d   1      15.649  -6.136   2.655  0.00  0.00     0.049 H 
ATOM     40  H   W7E d   1      16.236  -7.327   3.887  0.00  0.00     0.049 H 
BRANCH  38  41
ATOM     41  C12 W7E d   1      17.126  -7.491   1.973  0.00  0.00     0.223 C 
ATOM     42  N11 W7E d   1      17.981  -6.460   1.788  0.00  0.00    -0.327 N 
ATOM     43  H   W7E d   1      17.655  -5.546   2.101  0.00  0.00     0.169 HD
ATOM     44  O13 W7E d   1      17.276  -8.602   1.472  0.00  0.00    -0.273 OA
BRANCH  42  45
ATOM     45  C7  W7E d   1      19.273  -6.496   1.213  0.00  0.00     0.036 A 
ATOM     46  C6  W7E d   1      20.328  -5.808   1.802  0.00  0.00    -0.055 A 
ATOM     47  C5  W7E d   1      21.594  -5.844   1.245  0.00  0.00    -0.052 A 
ATOM     48  H   W7E d   1      20.156  -5.234   2.712  0.00  0.00     0.087 H 
ATOM     49  C4  W7E d   1      21.822  -6.565   0.072  0.00  0.00     0.075 A 
ATOM     50  H   W7E d   1      22.414  -5.309   1.723  0.00  0.00     0.087 H 
ATOM     51  C9  W7E d   1      20.749  -7.236  -0.516  0.00  0.00     0.037 A 
ATOM     52  N3  W7E d   1      23.033  -6.695  -0.609  0.00  0.00    -0.245 NA
ATOM     53  C8  W7E d   1      19.478  -7.206   0.035  0.00  0.00    -0.038 A 
ATOM     54  S10 W7E d   1      21.282  -8.030  -1.968  0.00  0.00    -0.073 SA
ATOM     55  H   W7E d   1      18.653  -7.730  -0.447  0.00  0.00     0.089 H 
ATOM     56  C2  W7E d   1      22.889  -7.455  -1.670  0.00  0.00     0.072 A 
BRANCH  56  57
ATOM     57  C1  W7E d   1      24.014  -7.801  -2.585  0.00  0.00    -0.029 C 
ATOM     58  H   W7E d   1      24.430  -6.887  -3.009  0.00  0.00     0.036 H 
ATOM     59  H   W7E d   1      24.787  -8.328  -2.025  0.00  0.00     0.036 H 
ATOM     60  H   W7E d   1      23.645  -8.440  -3.387  0.00  0.00     0.036 H 
ENDBRANCH  56  57
ENDBRANCH  42  45
ENDBRANCH  38  41
ENDBRANCH  35  38
ENDBRANCH   3  35
TORSDOF 13
