REMARK  8 active torsions:
REMARK  status: ('A' for Active; 'I' for Inactive)
REMARK    1  A    between atoms: N1_3  and  C6_4 
REMARK    2  A    between atoms: C6_4  and  C8_5 
REMARK    3  A    between atoms: C6_4  and  C7_11 
REMARK    4  A    between atoms: C18_21  and  C19_25 
REMARK    5  A    between atoms: C2_22  and  O1_23 
REMARK    6  A    between atoms: O1_23  and  C1_24 
REMARK    7  A    between atoms: C22_26  and  C23_27 
REMARK    8  A    between atoms: C20_30  and  C21_31 
ROOT
ATOM      1  O2  1GH d   1       7.898  -7.879  17.007  0.00  0.00    -0.246 OA
ATOM      2  C13 1GH d   1       8.757  -7.050  17.264  0.00  0.00     0.328 A 
ATOM      3  N1  1GH d   1       9.531  -7.013  18.416  0.00  0.00    -0.286 N 
ATOM      4  N3  1GH d   1       9.138  -5.987  16.501  0.00  0.00    -0.305 N 
ATOM      5  C14 1GH d   1      10.151  -5.283  17.131  0.00  0.00     0.082 A 
ATOM      6  C5  1GH d   1      10.429  -5.903  18.354  0.00  0.00     0.080 A 
ATOM      7  C15 1GH d   1      10.833  -4.141  16.725  0.00  0.00     0.031 A 
ATOM      8  N4  1GH d   1      11.784  -3.573  17.427  0.00  0.00    -0.258 NA
ATOM      9  C16 1GH d   1      12.094  -4.136  18.641  0.00  0.00     0.070 A 
ATOM     10  C4  1GH d   1      11.453  -5.292  19.145  0.00  0.00     0.025 A 
ATOM     11  C3  1GH d   1      11.860  -5.795  20.405  0.00  0.00    -0.035 A 
ATOM     12  C17 1GH d   1      13.108  -3.525  19.408  0.00  0.00    -0.041 A 
ATOM     13  C18 1GH d   1      13.473  -4.017  20.636  0.00  0.00     0.014 A 
ATOM     14  C2  1GH d   1      12.845  -5.177  21.122  0.00  0.00     0.080 A 
ATOM     15  H9  1GH d   1       8.743  -5.749  15.614  0.00  0.00     0.171 HD
ATOM     16  H10 1GH d   1      10.563  -3.695  15.774  0.00  0.00     0.118 H 
ATOM     17  H11 1GH d   1      11.383  -6.682  20.806  0.00  0.00     0.089 H 
ATOM     18  H12 1GH d   1      13.610  -2.647  19.019  0.00  0.00     0.088 H 
ENDROOT
BRANCH   3  19
ATOM     19  C6  1GH d   1       9.461  -8.018  19.504  0.00  0.00     0.060 C 
ATOM     20  H1  1GH d   1       8.732  -8.779  19.189  0.00  0.00     0.083 H 
BRANCH  19  21
ATOM     21  C8  1GH d   1      10.796  -8.735  19.644  0.00  0.00     0.057 A 
ATOM     22  N2  1GH d   1      11.104  -9.244  20.847  0.00  0.00    -0.263 NA
ATOM     23  C12 1GH d   1      12.288  -9.880  20.969  0.00  0.00     0.003 A 
ATOM     24  C11 1GH d   1      13.190 -10.016  19.941  0.00  0.00    -0.066 A 
ATOM     25  H2  1GH d   1      12.542 -10.308  21.932  0.00  0.00     0.114 H 
ATOM     26  C10 1GH d   1      12.860  -9.486  18.716  0.00  0.00    -0.080 A 
ATOM     27  H3  1GH d   1      14.134 -10.526  20.092  0.00  0.00     0.085 H 
ATOM     28  C9  1GH d   1      11.650  -8.837  18.555  0.00  0.00    -0.057 A 
ATOM     29  H4  1GH d   1      13.545  -9.577  17.881  0.00  0.00     0.083 H 
ATOM     30  H5  1GH d   1      11.373  -8.415  17.595  0.00  0.00     0.086 H 
ENDBRANCH  19  21
BRANCH  19  31
ATOM     31  C7  1GH d   1       8.919  -7.429  20.803  0.00  0.00    -0.051 C 
ATOM     32  H6  1GH d   1       8.887  -8.212  21.575  0.00  0.00     0.030 H 
ATOM     33  H7  1GH d   1       7.904  -7.039  20.634  0.00  0.00     0.030 H 
ATOM     34  H8  1GH d   1       9.575  -6.611  21.137  0.00  0.00     0.030 H 
ENDBRANCH  19  31
ENDBRANCH   3  19
BRANCH  14  35
ATOM     35  O1  1GH d   1      13.290  -5.601  22.349  0.00  0.00    -0.355 OA
BRANCH  35  36
ATOM     36  C1  1GH d   1      12.426  -6.435  23.112  0.00  0.00     0.010 C 
ATOM     37  H13 1GH d   1      12.912  -6.693  24.064  0.00  0.00     0.066 H 
ATOM     38  H14 1GH d   1      12.212  -7.355  22.548  0.00  0.00     0.066 H 
ATOM     39  H15 1GH d   1      11.485  -5.902  23.314  0.00  0.00     0.066 H 
ENDBRANCH  35  36
ENDBRANCH  14  35
BRANCH  13  40
ATOM     40  C19 1GH d   1      14.558  -3.357  21.391  0.00  0.00     0.035 A 
ATOM     41  C22 1GH d   1      14.528  -2.905  22.662  0.00  0.00     0.088 A 
ATOM     42  O3  1GH d   1      15.723  -2.389  22.984  0.00  0.00    -0.217 OA
ATOM     43  N5  1GH d   1      16.582  -2.533  21.860  0.00  0.00    -0.133 NA
ATOM     44  C20 1GH d   1      15.870  -3.110  20.934  0.00  0.00     0.072 A 
BRANCH  41  45
ATOM     45  C23 1GH d   1      13.481  -2.846  23.709  0.00  0.00    -0.028 C 
ATOM     46  H16 1GH d   1      13.897  -2.388  24.619  0.00  0.00     0.036 H 
ATOM     47  H17 1GH d   1      13.133  -3.864  23.937  0.00  0.00     0.036 H 
ATOM     48  H18 1GH d   1      12.636  -2.242  23.349  0.00  0.00     0.036 H 
ENDBRANCH  41  45
BRANCH  44  49
ATOM     49  C21 1GH d   1      16.493  -3.404  19.611  0.00  0.00    -0.033 C 
ATOM     50  H19 1GH d   1      17.541  -3.069  19.617  0.00  0.00     0.035 H 
ATOM     51  H20 1GH d   1      15.943  -2.873  18.820  0.00  0.00     0.035 H 
ATOM     52  H21 1GH d   1      16.455  -4.487  19.420  0.00  0.00     0.035 H 
ENDBRANCH  44  49
ENDBRANCH  13  40
TORSDOF 8
