REMARK  0 active torsions:
REMARK  status: ('A' for Active; 'I' for Inactive)
ROOT
ATOM      1 CL1  79O d   1      18.572  32.174  -3.543  0.00  0.00    -0.083 Cl
ATOM      2  C9  79O d   1      19.882  31.471  -4.422  0.00  0.00     0.048 A 
ATOM      3  C8  79O d   1      19.658  30.992  -5.713  0.00  0.00    -0.061 A 
ATOM      4  C7  79O d   1      20.701  30.419  -6.439  0.00  0.00    -0.081 A 
ATOM      5  C6  79O d   1      21.970  30.323  -5.873  0.00  0.00    -0.082 A 
ATOM      6  C5  79O d   1      22.194  30.799  -4.582  0.00  0.00    -0.068 A 
ATOM      7  C4  79O d   1      21.153  31.375  -3.852  0.00  0.00     0.032 A 
ATOM      8  C3  79O d   1      21.425  31.848  -2.538  0.00  0.00     0.143 A 
ATOM      9  N2  79O d   1      21.804  33.144  -2.296  0.00  0.00    -0.226 NA
ATOM     10  C10 79O d   1      22.075  33.608  -1.029  0.00  0.00     0.111 A 
ATOM     11  C11 79O d   1      22.479  34.843  -0.516  0.00  0.00     0.031 A 
ATOM     12  C12 79O d   1      22.735  36.055  -1.140  0.00  0.00    -0.051 A 
ATOM     13  C13 79O d   1      23.126  37.134  -0.368  0.00  0.00     0.012 A 
ATOM     14 BR1  79O d   1      23.505  38.828  -1.209  0.00  0.00    -0.051 Br
ATOM     15  C14 79O d   1      23.259  37.008   1.022  0.00  0.00    -0.064 A 
ATOM     16  C15 79O d   1      22.999  35.806   1.644  0.00  0.00    -0.048 A 
ATOM     17  C16 79O d   1      22.618  34.734   0.873  0.00  0.00     0.089 A 
ATOM     18  O2  79O d   1      22.306  33.483   1.239  0.00  0.00    -0.302 OA
ATOM     19  C1  79O d   1      21.980  32.792   0.104  0.00  0.00     0.173 A 
ATOM     20  C2  79O d   1      21.599  31.475  -0.044  0.00  0.00     0.283 A 
ATOM     21  O1  79O d   1      21.543  30.826   1.011  0.00  0.00    -0.265 OA
ATOM     22  N1  79O d   1      21.316  30.975  -1.394  0.00  0.00    -0.305 N 
ATOM     23  H1  79O d   1      18.670  31.066  -6.153  0.00  0.00     0.086 H 
ATOM     24  H2  79O d   1      20.525  30.049  -7.442  0.00  0.00     0.083 H 
ATOM     25  H3  79O d   1      22.783  29.878  -6.436  0.00  0.00     0.083 H 
ATOM     26  H4  79O d   1      23.182  30.721  -4.143  0.00  0.00     0.085 H 
ATOM     27  H5  79O d   1      22.630  36.155  -2.214  0.00  0.00     0.087 H 
ATOM     28  H6  79O d   1      23.569  37.863   1.612  0.00  0.00     0.085 H 
ATOM     29  H7  79O d   1      23.093  35.708   2.720  0.00  0.00     0.087 H 
ATOM     30  H8  79O d   1      21.045  30.021  -1.523  0.00  0.00     0.170 HD
ENDROOT
TORSDOF 0
