REMARK  4 active torsions:
REMARK  status: ('A' for Active; 'I' for Inactive)
REMARK    1  A    between atoms: C12_6  and  C11_7 
REMARK    2  A    between atoms: C11_7  and  N2_8 
REMARK    3  A    between atoms: N2_8  and  C10_9 
REMARK    4  A    between atoms: C7_15  and  C6_16 
ROOT
ATOM      1  C10 R9P d   1     -21.918  30.807   5.443  0.00  0.00     0.029 A 
ATOM      2  C17 R9P d   1     -21.108  31.857   5.052  0.00  0.00    -0.036 A 
ATOM      3  C18 R9P d   1     -21.042  32.325   3.758  0.00  0.00     0.050 A 
ATOM      4 CL1  R9P d   1     -19.986  33.617   3.444  0.00  0.00    -0.083 Cl
ATOM      5  C9  R9P d   1     -22.650  30.174   4.449  0.00  0.00    -0.057 A 
ATOM      6  C8  R9P d   1     -22.571  30.656   3.133  0.00  0.00    -0.066 A 
ATOM      7  C7  R9P d   1     -21.749  31.732   2.762  0.00  0.00     0.032 A 
ATOM      8  H15 R9P d   1     -20.492  32.337   5.804  0.00  0.00     0.089 H 
ATOM      9  H16 R9P d   1     -23.274  29.320   4.685  0.00  0.00     0.086 H 
ATOM     10  H17 R9P d   1     -23.172  30.176   2.369  0.00  0.00     0.085 H 
ENDROOT
BRANCH   1  11
ATOM     11  N2  R9P d   1     -21.825  30.456   6.738  0.00  0.00    -0.389 N 
ATOM     12  H14 R9P d   1     -20.869  30.231   7.047  0.00  0.00     0.159 HD
BRANCH  11  13
ATOM     13  C11 R9P d   1     -22.838  30.336   7.787  0.00  0.00    -0.004 C 
ATOM     14  H12 R9P d   1     -23.688  29.769   7.379  0.00  0.00     0.064 H 
ATOM     15  H13 R9P d   1     -22.396  29.780   8.627  0.00  0.00     0.064 H 
BRANCH  13  16
ATOM     16  C12 R9P d   1     -23.369  31.670   8.325  0.00  0.00    -0.036 C 
ATOM     17  C13 R9P d   1     -22.656  32.919   7.815  0.00  0.00    -0.038 C 
ATOM     18  C14 R9P d   1     -23.523  34.125   8.201  0.00  0.00     0.082 C 
ATOM     19  H1  R9P d   1     -21.663  33.003   8.282  0.00  0.00     0.036 H 
ATOM     20  H2  R9P d   1     -22.544  32.869   6.722  0.00  0.00     0.036 H 
ATOM     21  N3  R9P d   1     -24.638  33.764   9.122  0.00  0.00    -0.075 N 
ATOM     22  H3  R9P d   1     -23.950  34.558   7.285  0.00  0.00     0.075 H 
ATOM     23  H4  R9P d   1     -22.886  34.872   8.697  0.00  0.00     0.075 H 
ATOM     24  C15 R9P d   1     -24.190  32.949  10.294  0.00  0.00     0.082 C 
ATOM     25  H5  R9P d   1     -25.322  33.234   8.605  0.00  0.00     0.277 HD
ATOM     26  H6  R9P d   1     -25.059  34.613   9.464  0.00  0.00     0.277 HD
ATOM     27  C16 R9P d   1     -23.377  31.710   9.851  0.00  0.00    -0.038 C 
ATOM     28  H7  R9P d   1     -25.075  32.613  10.854  0.00  0.00     0.075 H 
ATOM     29  H8  R9P d   1     -23.561  33.575  10.944  0.00  0.00     0.075 H 
ATOM     30  H9  R9P d   1     -23.845  30.796  10.246  0.00  0.00     0.036 H 
ATOM     31  H10 R9P d   1     -22.346  31.786  10.227  0.00  0.00     0.036 H 
ATOM     32  H11 R9P d   1     -24.413  31.740   7.987  0.00  0.00     0.042 H 
ENDBRANCH  13  16
ENDBRANCH  11  13
ENDBRANCH   1  11
BRANCH   7  33
ATOM     33  C6  R9P d   1     -21.741  32.150   1.436  0.00  0.00     0.143 A 
ATOM     34  N4  R9P d   1     -22.043  33.407   1.107  0.00  0.00    -0.226 NA
ATOM     35  C19 R9P d   1     -22.084  33.735  -0.185  0.00  0.00     0.111 A 
ATOM     36  C20 R9P d   1     -22.371  34.890  -0.835  0.00  0.00     0.031 A 
ATOM     37  C4  R9P d   1     -21.840  32.834  -1.202  0.00  0.00     0.173 A 
ATOM     38  C21 R9P d   1     -22.698  36.097  -0.364  0.00  0.00    -0.051 A 
ATOM     39  C3  R9P d   1     -22.284  34.712  -2.190  0.00  0.00     0.089 A 
ATOM     40  C22 R9P d   1     -22.938  37.152  -1.248  0.00  0.00     0.012 A 
ATOM     41  H18 R9P d   1     -22.777  36.258   0.705  0.00  0.00     0.087 H 
ATOM     42 BR1  R9P d   1     -23.385  38.856  -0.440  0.00  0.00    -0.051 Br
ATOM     43  C1  R9P d   1     -22.855  36.989  -2.627  0.00  0.00    -0.064 A 
ATOM     44  C2  R9P d   1     -22.520  35.736  -3.080  0.00  0.00    -0.048 A 
ATOM     45  H19 R9P d   1     -23.045  37.809  -3.310  0.00  0.00     0.085 H 
ATOM     46  H20 R9P d   1     -22.441  35.552  -4.145  0.00  0.00     0.087 H 
ATOM     47  O1  R9P d   1     -21.955  33.436  -2.398  0.00  0.00    -0.302 OA
ATOM     48  C5  R9P d   1     -21.528  31.554  -0.920  0.00  0.00     0.283 A 
ATOM     49  O2  R9P d   1     -21.312  30.807  -1.870  0.00  0.00    -0.265 OA
ATOM     50  N1  R9P d   1     -21.474  31.201   0.429  0.00  0.00    -0.305 N 
ATOM     51  H21 R9P d   1     -21.243  30.262   0.684  0.00  0.00     0.170 HD
ENDBRANCH   7  33
TORSDOF 4
