REMARK  3 active torsions:
REMARK  status: ('A' for Active; 'I' for Inactive)
REMARK    1  A    between atoms: N3_3  and  C7_4 
REMARK    2  A    between atoms: N2_7  and  C4_8 
REMARK    3  A    between atoms: C4_8  and  C3_9 
ROOT
ATOM      1  C4  HY7 d   1      20.831 -31.658   2.600  0.00  0.00     0.137 C 
ATOM      2  H14 HY7 d   1      19.785 -31.434   2.342  0.00  0.00     0.088 H 
ATOM      3  H15 HY7 d   1      20.858 -32.412   3.401  0.00  0.00     0.088 H 
ENDROOT
BRANCH   1   4
ATOM      4  N2  HY7 d   1      21.406 -30.422   3.159  0.00  0.00    -0.061 N 
ATOM      5  C5  HY7 d   1      21.011 -29.247   2.375  0.00  0.00     0.106 C 
ATOM      6  C6  HY7 d   1      21.502 -27.932   3.082  0.00  0.00     0.105 C 
ATOM      7  H1  HY7 d   1      21.461 -29.311   1.373  0.00  0.00     0.078 H 
ATOM      8  H2  HY7 d   1      19.915 -29.223   2.284  0.00  0.00     0.078 H 
ATOM      9  N3  HY7 d   1      22.942 -28.128   3.429  0.00  0.00    -0.072 N 
ATOM     10  H3  HY7 d   1      20.915 -27.753   3.995  0.00  0.00     0.078 H 
ATOM     11  H4  HY7 d   1      21.392 -27.075   2.402  0.00  0.00     0.078 H 
ATOM     12  C8  HY7 d   1      23.248 -29.318   4.280  0.00  0.00     0.105 C 
ATOM     13  H5  HY7 d   1      23.452 -28.200   2.563  0.00  0.00     0.279 HD
ATOM     14  C9  HY7 d   1      22.876 -30.571   3.458  0.00  0.00     0.106 C 
ATOM     15  H9  HY7 d   1      22.654 -29.283   5.205  0.00  0.00     0.078 H 
ATOM     16  H10 HY7 d   1      24.319 -29.336   4.532  0.00  0.00     0.078 H 
ATOM     17  H11 HY7 d   1      23.061 -31.485   4.042  0.00  0.00     0.078 H 
ATOM     18  H12 HY7 d   1      23.458 -30.608   2.525  0.00  0.00     0.078 H 
ATOM     19  H13 HY7 d   1      20.969 -30.295   4.059  0.00  0.00     0.280 HD
BRANCH   9  20
ATOM     20  C7  HY7 d   1      23.487 -26.997   4.252  0.00  0.00     0.066 C 
ATOM     21  H6  HY7 d   1      24.546 -27.187   4.481  0.00  0.00     0.068 H 
ATOM     22  H7  HY7 d   1      22.918 -26.918   5.190  0.00  0.00     0.068 H 
ATOM     23  H8  HY7 d   1      23.397 -26.057   3.688  0.00  0.00     0.068 H 
ENDBRANCH   9  20
ENDBRANCH   1   4
BRANCH   1  24
ATOM     24  C3  HY7 d   1      21.450 -32.287   1.392  0.00  0.00     0.133 C 
ATOM     25  N4  HY7 d   1      21.817 -33.527   1.423  0.00  0.00    -0.230 NA
ATOM     26  C10 HY7 d   1      22.304 -34.156   0.307  0.00  0.00     0.111 A 
ATOM     27  C11 HY7 d   1      22.794 -35.432   0.041  0.00  0.00     0.031 A 
ATOM     28  C1  HY7 d   1      22.373 -33.434  -0.866  0.00  0.00     0.173 A 
ATOM     29  C12 HY7 d   1      22.893 -36.578   0.817  0.00  0.00    -0.051 A 
ATOM     30  C16 HY7 d   1      23.172 -35.457  -1.301  0.00  0.00     0.089 A 
ATOM     31  C13 HY7 d   1      23.435 -37.635   0.123  0.00  0.00     0.012 A 
ATOM     32  H16 HY7 d   1      22.579 -36.634   1.853  0.00  0.00     0.087 H 
ATOM     33 BR1  HY7 d   1      23.732 -39.255   1.085  0.00  0.00    -0.051 Br
ATOM     34  C14 HY7 d   1      23.841 -37.673  -1.244  0.00  0.00    -0.064 A 
ATOM     35  C15 HY7 d   1      23.713 -36.510  -2.002  0.00  0.00    -0.048 A 
ATOM     36  H17 HY7 d   1      24.238 -38.582  -1.682  0.00  0.00     0.085 H 
ATOM     37  H18 HY7 d   1      24.011 -36.442  -3.042  0.00  0.00     0.087 H 
ATOM     38  O2  HY7 d   1      22.949 -34.208  -1.763  0.00  0.00    -0.302 OA
ATOM     39  C2  HY7 d   1      22.012 -32.073  -0.900  0.00  0.00     0.283 C 
ATOM     40  O1  HY7 d   1      22.109 -31.353  -1.906  0.00  0.00    -0.265 OA
ATOM     41  N1  HY7 d   1      21.456 -31.581   0.237  0.00  0.00    -0.308 N 
ATOM     42  H19 HY7 d   1      21.040 -30.672   0.221  0.00  0.00     0.170 HD
ENDBRANCH   1  24
TORSDOF 3
