REMARK  11 active torsions:
REMARK  status: ('A' for Active; 'I' for Inactive)
REMARK    1  A    between atoms: O1B_3  and  C1_1 
REMARK       I    between atoms: C1_1  and  NAC_18 
REMARK    2  A    between atoms: C15_16  and  O1B_3 
REMARK    3  A    between atoms: C12_4  and  C13_5 
REMARK    4  A    between atoms: NAC_18  and  C12_4 
REMARK    5  A    between atoms: C13_5  and  C14_6 
REMARK    6  A    between atoms: C5_7  and  N5_8 
REMARK       I    between atoms: N5_8  and  C10_9 
REMARK    7  A    between atoms: C10_9  and  C11_11 
REMARK    8  A    between atoms: C6_12  and  O6_13 
REMARK    9  A    between atoms: C7_14  and  O7_15 
REMARK   10  A    between atoms: C8_19  and  C9_20 
REMARK   11  A    between atoms: C9_20  and  O9_21 
ROOT
ATOM      1  C5  GYU d   1      -8.440  40.544   6.369  0.00  0.00     0.087 C 
ATOM      2  C6  GYU d   1      -8.787  39.727   5.116  0.00  0.00     0.086 C 
ATOM      3  C7  GYU d   1     -10.007  40.231   4.527  0.00  0.00     0.089 C 
ATOM      4  C15 GYU d   1      -8.301  42.031   5.853  0.00  0.00     0.164 C 
ATOM      5  O8  GYU d   1      -9.431  42.438   5.220  0.00  0.00    -0.348 OA
ATOM      6  C8  GYU d   1      -9.802  41.701   4.042  0.00  0.00     0.089 C 
ATOM      7  H8  GYU d   1      -9.227  40.475   7.134  0.00  0.00     0.084 H 
ATOM      8  H13 GYU d   1      -7.964  39.748   4.387  0.00  0.00     0.090 H 
ATOM      9  H15 GYU d   1     -10.840  40.163   5.242  0.00  0.00     0.091 H 
ATOM     10  H17 GYU d   1      -8.095  42.728   6.679  0.00  0.00     0.133 H 
ATOM     11  H19 GYU d   1      -9.067  41.771   3.227  0.00  0.00     0.090 H 
ENDROOT
BRANCH   4  12
ATOM     12  O1B GYU d   1      -7.139  41.882   5.009  0.00  0.00    -0.270 OA
BRANCH  12  13
ATOM     13  C1  GYU d   1      -6.114  42.968   5.049  0.00  0.00     0.362 C 
ATOM     14  O1A GYU d   1      -6.573  44.080   5.299  0.00  0.00    -0.238 OA
ATOM     15  NAC GYU d   1      -4.943  42.503   4.831  0.00  0.00    -0.337 N 
ATOM     16  H18 GYU d   1      -4.785  41.516   4.802  0.00  0.00     0.164 HD
BRANCH  15  17
ATOM     17  C12 GYU d   1      -3.820  43.456   4.621  0.00  0.00    -0.003 C 
ATOM     18  H1  GYU d   1      -3.088  43.045   3.910  0.00  0.00     0.064 H 
ATOM     19  H2  GYU d   1      -4.192  44.421   4.247  0.00  0.00     0.064 H 
BRANCH  17  20
ATOM     20  C13 GYU d   1      -3.205  43.613   5.994  0.00  0.00    -0.053 C 
ATOM     21  H3  GYU d   1      -3.998  43.873   6.711  0.00  0.00     0.034 H 
ATOM     22  H4  GYU d   1      -2.461  44.423   5.960  0.00  0.00     0.034 H 
BRANCH  20  23
ATOM     23  C14 GYU d   1      -2.521  42.337   6.460  0.00  0.00    -0.075 C 
ATOM     24  H5  GYU d   1      -2.090  42.496   7.459  0.00  0.00     0.027 H 
ATOM     25  H6  GYU d   1      -1.721  42.071   5.753  0.00  0.00     0.027 H 
ATOM     26  H7  GYU d   1      -3.258  41.521   6.505  0.00  0.00     0.027 H 
ENDBRANCH  20  23
ENDBRANCH  17  20
ENDBRANCH  15  17
ENDBRANCH  12  13
ENDBRANCH   4  12
BRANCH   1  27
ATOM     27  N5  GYU d   1      -7.239  40.019   6.864  0.00  0.00    -0.349 N 
ATOM     28  C10 GYU d   1      -7.002  39.684   8.206  0.00  0.00     0.214 C 
ATOM     29  O10 GYU d   1      -7.955  39.830   8.950  0.00  0.00    -0.274 OA
ATOM     30  H9  GYU d   1      -6.495  39.872   6.212  0.00  0.00     0.163 HD
BRANCH  28  31
ATOM     31  C11 GYU d   1      -5.633  39.205   8.619  0.00  0.00    -0.003 C 
ATOM     32  H10 GYU d   1      -5.630  38.990   9.698  0.00  0.00     0.040 H 
ATOM     33  H11 GYU d   1      -4.890  39.985   8.398  0.00  0.00     0.040 H 
ATOM     34  H12 GYU d   1      -5.381  38.290   8.062  0.00  0.00     0.040 H 
ENDBRANCH  28  31
ENDBRANCH   1  27
BRANCH   2  35
ATOM     35  O6  GYU d   1      -9.060  38.327   5.607  0.00  0.00    -0.391 OA
ATOM     36  H14 GYU d   1      -9.282  37.772   4.869  0.00  0.00     0.210 HD
ENDBRANCH   2  35
BRANCH   6  37
ATOM     37  C9  GYU d   1     -11.122  42.305   3.683  0.00  0.00     0.043 C 
ATOM     38  H20 GYU d   1     -11.775  42.251   4.566  0.00  0.00     0.078 H 
ATOM     39  H21 GYU d   1     -11.559  41.712   2.866  0.00  0.00     0.078 H 
BRANCH  37  40
ATOM     40  O9  GYU d   1     -11.058  43.725   3.241  0.00  0.00    -0.398 OA
ATOM     41  H22 GYU d   1     -10.693  44.257   3.939  0.00  0.00     0.209 HD
ENDBRANCH  37  40
ENDBRANCH   6  37
BRANCH   3  42
ATOM     42  O7  GYU d   1     -10.271  39.451   3.316  0.00  0.00    -0.390 OA
ATOM     43  H16 GYU d   1      -9.545  39.552   2.711  0.00  0.00     0.210 HD
ENDBRANCH   3  42
TORSDOF 11
