REMARK  5 active torsions:
REMARK  status: ('A' for Active; 'I' for Inactive)
REMARK    1  A    between atoms: C2_2  and  O2_3 
REMARK    2  A    between atoms: C3_4  and  O3_5 
REMARK    3  A    between atoms: C4_6  and  O4_7 
REMARK    4  A    between atoms: C5_8  and  C6_10 
REMARK    5  A    between atoms: C6_10  and  O6_11 
ROOT
ATOM      1  C1  MOL d   1      52.957  25.427  42.152  0.00  0.00     0.047 C 
ATOM      2  C2  MOL d   1      53.367  24.767  41.058  0.00  0.00     0.096 C 
ATOM      3  C3  MOL d   1      53.867  23.363  41.214  0.00  0.00     0.113 C 
ATOM      4  C4  MOL d   1      54.661  23.231  42.515  0.00  0.00     0.127 C 
ATOM      5  C5  MOL d   1      53.862  23.695  43.752  0.00  0.00     0.259 C 
ATOM      6  O5  MOL d   1      53.245  24.952  43.503  0.00  0.00    -0.315 OA
ATOM      7  F1  MOL d   1      54.641  23.872  44.798  0.00  0.00    -0.206 F 
ATOM      8  H1  MOL d   1      52.390  26.349  42.028  0.00  0.00     0.127 H 
ATOM      9  H3  MOL d   1      53.006  22.680  41.258  0.00  0.00     0.098 H 
ATOM     10  H5  MOL d   1      55.559  23.862  42.447  0.00  0.00     0.096 H 
ENDROOT
BRANCH   5  11
ATOM     11  C6  MOL d   1      52.775  22.727  44.207  0.00  0.00     0.076 C 
ATOM     12  H7  MOL d   1      52.390  23.069  45.179  0.00  0.00     0.083 H 
ATOM     13  H8  MOL d   1      53.224  21.730  44.321  0.00  0.00     0.083 H 
BRANCH  11  14
ATOM     14  O6  MOL d   1      51.671  22.625  43.292  0.00  0.00    -0.395 OA
ATOM     15  H9  MOL d   1      51.266  23.478  43.190  0.00  0.00     0.209 HD
ENDBRANCH  11  14
ENDBRANCH   5  11
BRANCH   4  16
ATOM     16  O4  MOL d   1      55.065  21.867  42.599  0.00  0.00    -0.387 OA
ATOM     17  H6  MOL d   1      55.565  21.734  43.396  0.00  0.00     0.210 HD
ENDBRANCH   4  16
BRANCH   3  18
ATOM     18  O3  MOL d   1      54.672  23.016  40.080  0.00  0.00    -0.386 OA
ATOM     19  H4  MOL d   1      54.149  23.081  39.290  0.00  0.00     0.210 HD
ENDBRANCH   3  18
BRANCH   2  20
ATOM     20  O2  MOL d   1      53.309  25.354  39.861  0.00  0.00    -0.360 OA
ATOM     21  H2  MOL d   1      53.634  24.755  39.200  0.00  0.00     0.217 HD
ENDBRANCH   2  20
TORSDOF 5
