REMARK  13 active torsions:
REMARK  status: ('A' for Active; 'I' for Inactive)
REMARK    1  A    between atoms: C23_1  and  C24_2 
REMARK    2  A    between atoms: C21_10  and  C23_1 
REMARK    3  A    between atoms: C24_2  and  C25_3 
REMARK    4  A    between atoms: C25_3  and  C26_4 
REMARK       I    between atoms: N20_22  and  C21_10 
REMARK    5  A    between atoms: C10_12  and  C12_14 
REMARK       I    between atoms: N9_31  and  C10_12 
REMARK    6  A    between atoms: C15_17  and  C16_18 
REMARK    7  A    between atoms: C16_18  and  C17_19 
REMARK    8  A    between atoms: C16_18  and  C18_20 
REMARK    9  A    between atoms: C16_18  and  C19_21 
REMARK   10  A    between atoms: C1_23  and  O2_24 
REMARK   11  A    between atoms: C1_23  and  C3_25 
REMARK   12  A    between atoms: C5_27  and  C1_23 
REMARK   13  A    between atoms: C3_25  and  O4_26 
ROOT
ATOM      1  C21 2P2 d   1      41.895  37.499  85.445  0.00  0.00     0.221 C 
ATOM      2  O22 2P2 d   1      42.213  37.703  84.286  0.00  0.00    -0.273 OA
ATOM      3  C12 2P2 d   1      39.734  36.860  84.651  0.00  0.00     0.092 C 
ATOM      4  C13 2P2 d   1      38.548  36.174  85.348  0.00  0.00    -0.036 C 
ATOM      5  C14 2P2 d   1      39.075  35.748  86.725  0.00  0.00    -0.043 C 
ATOM      6  C15 2P2 d   1      40.159  36.795  87.086  0.00  0.00     0.022 C 
ATOM      7  N20 2P2 d   1      40.653  37.117  85.747  0.00  0.00    -0.333 N 
ATOM      8  H   2P2 d   1      40.225  36.255  83.889  0.00  0.00     0.087 H 
ATOM      9  H   2P2 d   1      38.187  35.319  84.776  0.00  0.00     0.036 H 
ATOM     10  H   2P2 d   1      37.693  36.845  85.437  0.00  0.00     0.036 H 
ATOM     11  H   2P2 d   1      39.483  34.737  86.705  0.00  0.00     0.036 H 
ATOM     12  H   2P2 d   1      38.279  35.720  87.469  0.00  0.00     0.036 H 
ATOM     13  H   2P2 d   1      40.951  36.449  87.751  0.00  0.00     0.074 H 
ENDROOT
BRANCH   3  14
ATOM     14  C10 2P2 d   1      39.328  38.019  83.801  0.00  0.00     0.243 C 
ATOM     15  O11 2P2 d   1      39.516  39.201  84.141  0.00  0.00    -0.271 OA
ATOM     16  N9  2P2 d   1      38.754  37.637  82.655  0.00  0.00    -0.343 N 
ATOM     17  C5  2P2 d   1      38.252  38.621  81.688  0.00  0.00     0.041 C 
ATOM     18  C8  2P2 d   1      38.563  36.248  82.209  0.00  0.00    -0.002 C 
ATOM     19  C6  2P2 d   1      38.255  37.825  80.377  0.00  0.00    -0.042 C 
ATOM     20  H   2P2 d   1      38.842  39.536  81.638  0.00  0.00     0.076 H 
ATOM     21  C7  2P2 d   1      38.295  36.352  80.704  0.00  0.00    -0.048 C 
ATOM     22  H   2P2 d   1      39.127  38.096  79.782  0.00  0.00     0.036 H 
ATOM     23  H   2P2 d   1      37.356  38.052  79.804  0.00  0.00     0.036 H 
ATOM     24  H   2P2 d   1      39.074  35.846  80.133  0.00  0.00     0.035 H 
ATOM     25  H   2P2 d   1      37.355  35.868  80.441  0.00  0.00     0.035 H 
ATOM     26  H   2P2 d   1      39.435  35.630  82.424  0.00  0.00     0.064 H 
ATOM     27  H   2P2 d   1      37.740  35.763  82.735  0.00  0.00     0.064 H 
BRANCH  17  28
ATOM     28  C1  2P2 d   1      36.817  39.066  82.068  0.00  0.00     0.075 C 
ATOM     29  H   2P2 d   1      36.676  39.892  81.371  0.00  0.00     0.089 H 
BRANCH  28  30
ATOM     30  O2  2P2 d   1      35.899  37.978  81.963  0.00  0.00    -0.391 OA
ATOM     31  H   2P2 d   1      36.110  37.317  82.627  0.00  0.00     0.210 HD
ENDBRANCH  28  30
BRANCH  28  32
ATOM     32  C3  2P2 d   1      36.573  39.557  83.505  0.00  0.00     0.042 C 
ATOM     33  H   2P2 d   1      37.005  38.829  84.192  0.00  0.00     0.077 H 
ATOM     34  H   2P2 d   1      35.498  39.667  83.650  0.00  0.00     0.077 H 
BRANCH  32  35
ATOM     35  O4  2P2 d   1      37.185  40.816  83.749  0.00  0.00    -0.398 OA
ATOM     36  H   2P2 d   1      36.825  41.468  83.144  0.00  0.00     0.209 HD
ENDBRANCH  32  35
ENDBRANCH  28  32
ENDBRANCH  17  28
ENDBRANCH   3  14
BRANCH   1  37
ATOM     37  C23 2P2 d   1      42.914  37.721  86.556  0.00  0.00     0.010 C 
ATOM     38  H   2P2 d   1      42.637  38.619  87.108  0.00  0.00     0.047 H 
ATOM     39  H   2P2 d   1      42.918  36.845  87.205  0.00  0.00     0.047 H 
BRANCH  37  40
ATOM     40  C24 2P2 d   1      44.312  37.911  85.989  0.00  0.00    -0.053 C 
ATOM     41  H   2P2 d   1      44.340  38.904  85.539  0.00  0.00     0.034 H 
ATOM     42  H   2P2 d   1      44.486  37.090  85.293  0.00  0.00     0.034 H 
BRANCH  40  43
ATOM     43  C25 2P2 d   1      45.437  37.861  87.028  0.00  0.00    -0.041 C 
ATOM     44  H   2P2 d   1      45.285  38.675  87.737  0.00  0.00     0.040 H 
ATOM     45  H   2P2 d   1      46.390  37.952  86.506  0.00  0.00     0.040 H 
BRANCH  43  46
ATOM     46  C26 2P2 d   1      45.436  36.562  87.790  0.00  0.00    -0.058 A 
ATOM     47  C27 2P2 d   1      45.815  35.385  87.158  0.00  0.00    -0.077 A 
ATOM     48  C28 2P2 d   1      45.797  34.194  87.884  0.00  0.00    -0.082 A 
ATOM     49  H   2P2 d   1      46.121  35.392  86.112  0.00  0.00     0.084 H 
ATOM     50  C29 2P2 d   1      45.402  34.183  89.225  0.00  0.00    -0.083 A 
ATOM     51  H   2P2 d   1      46.094  33.263  87.401  0.00  0.00     0.083 H 
ATOM     52  C20 2P2 d   1      45.027  35.364  89.860  0.00  0.00    -0.082 A 
ATOM     53  H   2P2 d   1      45.388  33.243  89.777  0.00  0.00     0.083 H 
ATOM     54  C31 2P2 d   1      45.045  36.557  89.131  0.00  0.00    -0.077 A 
ATOM     55  H   2P2 d   1      44.725  35.359  90.907  0.00  0.00     0.083 H 
ATOM     56  H   2P2 d   1      44.752  37.490  89.613  0.00  0.00     0.084 H 
ENDBRANCH  43  46
ENDBRANCH  40  43
ENDBRANCH  37  40
ENDBRANCH   1  37
BRANCH   6  57
ATOM     57  C16 2P2 d   1      39.667  37.970  87.994  0.00  0.00    -0.031 C 
BRANCH  57  58
ATOM     58  C17 2P2 d   1      39.434  37.362  89.384  0.00  0.00    -0.068 C 
ATOM     59  H   2P2 d   1      38.682  36.576  89.314  0.00  0.00     0.028 H 
ATOM     60  H   2P2 d   1      40.368  36.941  89.756  0.00  0.00     0.028 H 
ATOM     61  H   2P2 d   1      39.087  38.139  90.066  0.00  0.00     0.028 H 
ENDBRANCH  57  58
BRANCH  57  62
ATOM     62  C18 2P2 d   1      38.398  38.720  87.517  0.00  0.00    -0.068 C 
ATOM     63  H   2P2 d   1      38.583  39.156  86.535  0.00  0.00     0.028 H 
ATOM     64  H   2P2 d   1      37.565  38.019  87.454  0.00  0.00     0.028 H 
ATOM     65  H   2P2 d   1      38.156  39.511  88.227  0.00  0.00     0.028 H 
ENDBRANCH  57  62
BRANCH  57  66
ATOM     66  C19 2P2 d   1      40.739  39.027  88.219  0.00  0.00    -0.068 C 
ATOM     67  H   2P2 d   1      41.602  38.570  88.702  0.00  0.00     0.028 H 
ATOM     68  H   2P2 d   1      41.039  39.449  87.260  0.00  0.00     0.028 H 
ATOM     69  H   2P2 d   1      40.341  39.817  88.856  0.00  0.00     0.028 H 
ENDBRANCH  57  66
ENDBRANCH   6  57
TORSDOF 13
