REMARK  8 active torsions:
REMARK  status: ('A' for Active; 'I' for Inactive)
REMARK    1  A    between atoms: C10_1  and  C12_3 
REMARK       I    between atoms: N9_16  and  C10_1 
REMARK    2  A    between atoms: C16_7  and  C17_17 
REMARK    3  A    between atoms: C1_8  and  O2_9 
REMARK    4  A    between atoms: C1_8  and  C3_10 
REMARK    5  A    between atoms: C5_12  and  C1_8 
REMARK    6  A    between atoms: C3_10  and  O4_11 
REMARK       I    between atoms: C17_17  and  N19_19 
REMARK    7  A    between atoms: N19_19  and  C20_20 
REMARK    8  A    between atoms: C20_20  and  C21_21 
ROOT
ATOM      1  C12 2P4 d   1      39.744  36.774  84.632  0.00  0.00     0.054 C 
ATOM      2  C13 2P4 d   1      38.472  36.411  85.404  0.00  0.00    -0.047 C 
ATOM      3  C14 2P4 d   1      38.822  36.405  86.896  0.00  0.00    -0.048 C 
ATOM      4  C15 2P4 d   1      40.219  37.000  86.939  0.00  0.00    -0.091 C 
ATOM      5  C16 2P4 d   1      40.711  37.148  85.709  0.00  0.00     0.019 C 
ATOM      6  H   2P4 d   1      40.164  35.987  84.006  0.00  0.00     0.062 H 
ATOM      7  H   2P4 d   1      38.106  35.432  85.095  0.00  0.00     0.035 H 
ATOM      8  H   2P4 d   1      37.684  37.136  85.201  0.00  0.00     0.035 H 
ATOM      9  H   2P4 d   1      38.782  35.406  87.329  0.00  0.00     0.038 H 
ATOM     10  H   2P4 d   1      38.109  36.973  87.493  0.00  0.00     0.038 H 
ATOM     11  H   2P4 d   1      40.748  37.270  87.853  0.00  0.00     0.077 H 
ENDROOT
BRANCH   1  12
ATOM     12  C10 2P4 d   1      39.402  37.912  83.715  0.00  0.00     0.229 C 
ATOM     13  O11 2P4 d   1      39.699  39.082  84.027  0.00  0.00    -0.273 OA
ATOM     14  N9  2P4 d   1      38.731  37.537  82.603  0.00  0.00    -0.344 N 
ATOM     15  C5  2P4 d   1      38.281  38.522  81.621  0.00  0.00     0.041 C 
ATOM     16  C8  2P4 d   1      38.387  36.164  82.206  0.00  0.00    -0.002 C 
ATOM     17  C6  2P4 d   1      38.306  37.729  80.311  0.00  0.00    -0.042 C 
ATOM     18  H   2P4 d   1      38.899  39.419  81.581  0.00  0.00     0.076 H 
ATOM     19  C7  2P4 d   1      38.249  36.254  80.690  0.00  0.00    -0.048 C 
ATOM     20  H   2P4 d   1      39.209  37.949  79.741  0.00  0.00     0.036 H 
ATOM     21  H   2P4 d   1      37.462  38.000  79.677  0.00  0.00     0.036 H 
ATOM     22  H   2P4 d   1      39.053  35.704  80.201  0.00  0.00     0.035 H 
ATOM     23  H   2P4 d   1      37.306  35.814  80.367  0.00  0.00     0.035 H 
ATOM     24  H   2P4 d   1      39.141  35.439  82.514  0.00  0.00     0.064 H 
ATOM     25  H   2P4 d   1      37.477  35.806  82.687  0.00  0.00     0.064 H 
BRANCH  15  26
ATOM     26  C1  2P4 d   1      36.859  39.033  81.965  0.00  0.00     0.075 C 
ATOM     27  H   2P4 d   1      36.705  39.820  81.226  0.00  0.00     0.089 H 
BRANCH  26  28
ATOM     28  O2  2P4 d   1      35.926  37.961  81.894  0.00  0.00    -0.391 OA
ATOM     29  H   2P4 d   1      36.108  37.332  82.596  0.00  0.00     0.210 HD
ENDBRANCH  26  28
BRANCH  26  30
ATOM     30  C3  2P4 d   1      36.656  39.675  83.367  0.00  0.00     0.042 C 
ATOM     31  H   2P4 d   1      36.809  38.914  84.133  0.00  0.00     0.077 H 
ATOM     32  H   2P4 d   1      35.645  40.077  83.431  0.00  0.00     0.077 H 
BRANCH  30  33
ATOM     33  O4  2P4 d   1      37.590  40.730  83.566  0.00  0.00    -0.398 OA
ATOM     34  H   2P4 d   1      37.454  41.117  84.434  0.00  0.00     0.209 HD
ENDBRANCH  30  33
ENDBRANCH  26  30
ENDBRANCH  15  26
ENDBRANCH   1  12
BRANCH   5  35
ATOM     35  C17 2P4 d   1      42.087  37.575  85.420  0.00  0.00     0.248 C 
ATOM     36  O18 2P4 d   1      42.520  37.428  84.294  0.00  0.00    -0.268 OA
ATOM     37  N19 2P4 d   1      42.816  38.107  86.418  0.00  0.00    -0.353 N 
ATOM     38  H   2P4 d   1      42.339  38.236  87.310  0.00  0.00     0.163 HD
BRANCH  37  39
ATOM     39  C20 2P4 d   1      44.215  38.519  86.362  0.00  0.00     0.019 C 
ATOM     40  H   2P4 d   1      44.389  39.503  86.797  0.00  0.00     0.071 H 
ATOM     41  H   2P4 d   1      44.584  38.644  85.344  0.00  0.00     0.071 H 
BRANCH  39  42
ATOM     42  C21 2P4 d   1      44.911  37.407  87.113  0.00  0.00    -0.041 A 
ATOM     43  C22 2P4 d   1      44.968  36.112  86.592  0.00  0.00    -0.075 A 
ATOM     44  C23 2P4 d   1      45.592  35.092  87.326  0.00  0.00    -0.082 A 
ATOM     45  H   2P4 d   1      44.529  35.895  85.618  0.00  0.00     0.084 H 
ATOM     46  C24 2P4 d   1      46.146  35.338  88.589  0.00  0.00    -0.083 A 
ATOM     47  H   2P4 d   1      45.647  34.088  86.905  0.00  0.00     0.083 H 
ATOM     48  C25 2P4 d   1      46.071  36.624  89.119  0.00  0.00    -0.082 A 
ATOM     49  H   2P4 d   1      46.628  34.536  89.148  0.00  0.00     0.083 H 
ATOM     50  C26 2P4 d   1      45.460  37.650  88.384  0.00  0.00    -0.075 A 
ATOM     51  H   2P4 d   1      46.487  36.833  90.105  0.00  0.00     0.083 H 
ATOM     52  H   2P4 d   1      45.410  38.654  88.806  0.00  0.00     0.084 H 
ENDBRANCH  39  42
ENDBRANCH  37  39
ENDBRANCH   5  35
TORSDOF 8
