REMARK  6 active torsions:
REMARK  status: ('A' for Active; 'I' for Inactive)
REMARK    1  A    between atoms: C17_1  and  C18_2 
REMARK    2  A    between atoms: C15_10  and  C17_1 
REMARK    3  A    between atoms: C18_2  and  C19_3 
REMARK    4  A    between atoms: C19_3  and  C20_4 
REMARK       I    between atoms: N14_12  and  C15_10 
REMARK    5  A    between atoms: C8_14  and  C10_13 
REMARK       I    between atoms: N7_25  and  C8_14 
REMARK    6  A    between atoms: C3_21  and  C1_19 
ROOT
ATOM      1  C15 2P6 d   1      42.019  37.757  85.686  0.00  0.00     0.220 C 
ATOM      2  O16 2P6 d   1      42.448  37.794  84.546  0.00  0.00    -0.273 OA
ATOM      3  N14 2P6 d   1      40.749  37.407  85.983  0.00  0.00    -0.339 N 
ATOM      4  C10 2P6 d   1      39.815  37.039  84.927  0.00  0.00     0.092 C 
ATOM      5  C11 2P6 d   1      38.533  36.620  85.633  0.00  0.00    -0.036 C 
ATOM      6  C12 2P6 d   1      38.886  36.500  87.091  0.00  0.00    -0.048 C 
ATOM      7  C13 2P6 d   1      40.155  37.313  87.323  0.00  0.00    -0.001 C 
ATOM      8  H   2P6 d   1      40.259  36.247  84.323  0.00  0.00     0.087 H 
ATOM      9  H   2P6 d   1      38.154  35.677  85.239  0.00  0.00     0.036 H 
ATOM     10  H   2P6 d   1      37.739  37.350  85.477  0.00  0.00     0.036 H 
ATOM     11  H   2P6 d   1      39.047  35.456  87.360  0.00  0.00     0.035 H 
ATOM     12  H   2P6 d   1      38.073  36.876  87.712  0.00  0.00     0.035 H 
ATOM     13  H   2P6 d   1      39.952  38.291  87.760  0.00  0.00     0.064 H 
ATOM     14  H   2P6 d   1      40.825  36.847  88.046  0.00  0.00     0.064 H 
ENDROOT
BRANCH   1  15
ATOM     15  C17 2P6 d   1      42.931  38.109  86.857  0.00  0.00     0.010 C 
ATOM     16  H   2P6 d   1      42.546  39.009  87.337  0.00  0.00     0.047 H 
ATOM     17  H   2P6 d   1      42.949  37.265  87.547  0.00  0.00     0.047 H 
BRANCH  15  18
ATOM     18  C18 2P6 d   1      44.361  38.383  86.390  0.00  0.00    -0.053 C 
ATOM     19  H   2P6 d   1      44.392  39.410  86.025  0.00  0.00     0.034 H 
ATOM     20  H   2P6 d   1      44.603  37.639  85.632  0.00  0.00     0.034 H 
BRANCH  18  21
ATOM     21  C19 2P6 d   1      45.399  38.262  87.490  0.00  0.00    -0.041 C 
ATOM     22  H   2P6 d   1      45.108  38.953  88.282  0.00  0.00     0.040 H 
ATOM     23  H   2P6 d   1      46.369  38.476  87.040  0.00  0.00     0.040 H 
BRANCH  21  24
ATOM     24  C20 2P6 d   1      45.492  36.880  88.115  0.00  0.00    -0.058 A 
ATOM     25  C21 2P6 d   1      45.735  35.739  87.341  0.00  0.00    -0.077 A 
ATOM     26  C22 2P6 d   1      45.861  34.484  87.949  0.00  0.00    -0.082 A 
ATOM     27  H   2P6 d   1      45.827  35.828  86.258  0.00  0.00     0.084 H 
ATOM     28  C23 2P6 d   1      45.722  34.358  89.329  0.00  0.00    -0.083 A 
ATOM     29  H   2P6 d   1      46.068  33.604  87.341  0.00  0.00     0.083 H 
ATOM     30  C24 2P6 d   1      45.475  35.490  90.106  0.00  0.00    -0.082 A 
ATOM     31  H   2P6 d   1      45.806  33.379  89.800  0.00  0.00     0.083 H 
ATOM     32  C25 2P6 d   1      45.372  36.746  89.504  0.00  0.00    -0.077 A 
ATOM     33  H   2P6 d   1      45.362  35.394  91.186  0.00  0.00     0.083 H 
ATOM     34  H   2P6 d   1      45.197  37.628  90.120  0.00  0.00     0.084 H 
ENDBRANCH  21  24
ENDBRANCH  18  21
ENDBRANCH  15  18
ENDBRANCH   1  15
BRANCH   4  35
ATOM     35  C8  2P6 d   1      39.510  38.162  83.955  0.00  0.00     0.243 C 
ATOM     36  O9  2P6 d   1      39.600  39.332  84.296  0.00  0.00    -0.271 OA
ATOM     37  N7  2P6 d   1      39.138  37.781  82.729  0.00  0.00    -0.333 N 
ATOM     38  C3  2P6 d   1      38.778  38.751  81.693  0.00  0.00     0.098 C 
ATOM     39  C6  2P6 d   1      38.991  36.385  82.294  0.00  0.00    -0.001 C 
ATOM     40  C4  2P6 d   1      38.958  37.900  80.441  0.00  0.00    -0.032 C 
ATOM     41  H   2P6 d   1      39.286  39.713  81.625  0.00  0.00     0.096 H 
ATOM     42  C5  2P6 d   1      38.573  36.494  80.844  0.00  0.00    -0.047 C 
ATOM     43  H   2P6 d   1      39.984  37.942  80.075  0.00  0.00     0.037 H 
ATOM     44  H   2P6 d   1      38.338  38.263  79.621  0.00  0.00     0.037 H 
ATOM     45  H   2P6 d   1      39.061  35.744  80.222  0.00  0.00     0.035 H 
ATOM     46  H   2P6 d   1      37.507  36.310  80.712  0.00  0.00     0.035 H 
ATOM     47  H   2P6 d   1      39.912  35.816  82.416  0.00  0.00     0.064 H 
ATOM     48  H   2P6 d   1      38.262  35.840  82.894  0.00  0.00     0.064 H 
BRANCH  38  49
ATOM     49  C1  2P6 d   1      37.342  38.835  81.980  0.00  0.00     0.084 C 
ATOM     50  N2  2P6 d   1      36.226  38.650  82.303  0.00  0.00    -0.195 NA
ENDBRANCH  38  49
ENDBRANCH   4  35
TORSDOF 6
