REMARK  7 active torsions:
REMARK  status: ('A' for Active; 'I' for Inactive)
REMARK       I    between atoms: C17_1  and  N19_3 
REMARK       I    between atoms: N16_11  and  C17_1 
REMARK    1  A    between atoms: N19_3  and  C20_4 
REMARK    2  A    between atoms: C20_4  and  C21_5 
REMARK    3  A    between atoms: C10_13  and  C12_12 
REMARK       I    between atoms: N9_26  and  C10_13 
REMARK    4  A    between atoms: C1_18  and  O2_19 
REMARK    5  A    between atoms: C1_18  and  C3_20 
REMARK    6  A    between atoms: C5_22  and  C1_18 
REMARK    7  A    between atoms: C3_20  and  O4_21 
ROOT
ATOM      1  C17 2P8 d   1      41.570  37.333  84.026  0.00  0.00     0.319 C 
ATOM      2  O18 2P8 d   1      42.059  37.219  82.904  0.00  0.00    -0.247 OA
ATOM      3  N19 2P8 d   1      42.330  37.792  85.022  0.00  0.00    -0.339 N 
ATOM      4  N16 2P8 d   1      40.294  37.037  84.301  0.00  0.00    -0.321 N 
ATOM      5  C12 2P8 d   1      39.366  36.537  83.302  0.00  0.00     0.093 C 
ATOM      6  C13 2P8 d   1      38.147  36.042  84.086  0.00  0.00    -0.036 C 
ATOM      7  C14 2P8 d   1      38.186  36.939  85.308  0.00  0.00    -0.048 C 
ATOM      8  C15 2P8 d   1      39.653  37.196  85.603  0.00  0.00     0.000 C 
ATOM      9  H   2P8 d   1      41.901  37.886  85.943  0.00  0.00     0.164 HD
ATOM     10  H   2P8 d   1      39.830  35.757  82.699  0.00  0.00     0.087 H 
ATOM     11  H   2P8 d   1      38.185  34.979  84.325  0.00  0.00     0.036 H 
ATOM     12  H   2P8 d   1      37.214  36.108  83.527  0.00  0.00     0.036 H 
ATOM     13  H   2P8 d   1      37.693  36.466  86.157  0.00  0.00     0.035 H 
ATOM     14  H   2P8 d   1      37.654  37.873  85.126  0.00  0.00     0.035 H 
ATOM     15  H   2P8 d   1      39.826  38.181  86.037  0.00  0.00     0.064 H 
ATOM     16  H   2P8 d   1      40.054  36.514  86.353  0.00  0.00     0.064 H 
ENDROOT
BRANCH   5  17
ATOM     17  C10 2P8 d   1      38.933  37.628  82.377  0.00  0.00     0.243 C 
ATOM     18  O11 2P8 d   1      39.165  38.812  82.617  0.00  0.00    -0.271 OA
ATOM     19  N9  2P8 d   1      38.263  37.232  81.302  0.00  0.00    -0.343 N 
ATOM     20  C5  2P8 d   1      37.804  38.220  80.320  0.00  0.00     0.041 C 
ATOM     21  C8  2P8 d   1      37.984  35.845  80.914  0.00  0.00    -0.002 C 
ATOM     22  C6  2P8 d   1      37.773  37.380  79.033  0.00  0.00    -0.042 C 
ATOM     23  H   2P8 d   1      38.427  39.112  80.258  0.00  0.00     0.076 H 
ATOM     24  C7  2P8 d   1      37.643  35.920  79.425  0.00  0.00    -0.048 C 
ATOM     25  H   2P8 d   1      38.688  37.535  78.461  0.00  0.00     0.036 H 
ATOM     26  H   2P8 d   1      36.929  37.678  78.410  0.00  0.00     0.036 H 
ATOM     27  H   2P8 d   1      38.314  35.294  78.837  0.00  0.00     0.035 H 
ATOM     28  H   2P8 d   1      36.636  35.550  79.234  0.00  0.00     0.035 H 
ATOM     29  H   2P8 d   1      38.835  35.190  81.104  0.00  0.00     0.064 H 
ATOM     30  H   2P8 d   1      37.169  35.416  81.497  0.00  0.00     0.064 H 
BRANCH  20  31
ATOM     31  C1  2P8 d   1      36.381  38.723  80.676  0.00  0.00     0.075 C 
ATOM     32  H   2P8 d   1      36.202  39.492  79.924  0.00  0.00     0.089 H 
BRANCH  31  33
ATOM     33  O2  2P8 d   1      35.499  37.627  80.738  0.00  0.00    -0.391 OA
ATOM     34  H   2P8 d   1      35.794  37.019  81.420  0.00  0.00     0.210 HD
ENDBRANCH  31  33
BRANCH  31  35
ATOM     35  C3  2P8 d   1      36.208  39.236  82.105  0.00  0.00     0.042 C 
ATOM     36  H   2P8 d   1      36.495  38.447  82.800  0.00  0.00     0.077 H 
ATOM     37  H   2P8 d   1      35.166  39.519  82.255  0.00  0.00     0.077 H 
BRANCH  35  38
ATOM     38  O4  2P8 d   1      37.025  40.363  82.330  0.00  0.00    -0.398 OA
ATOM     39  H   2P8 d   1      36.903  40.670  83.231  0.00  0.00     0.209 HD
ENDBRANCH  35  38
ENDBRANCH  31  35
ENDBRANCH  20  31
ENDBRANCH   5  17
BRANCH   3  40
ATOM     40  C20 2P8 d   1      43.740  38.170  84.882  0.00  0.00     0.021 C 
ATOM     41  H   2P8 d   1      43.942  39.157  85.297  0.00  0.00     0.071 H 
ATOM     42  H   2P8 d   1      44.041  38.248  83.837  0.00  0.00     0.071 H 
BRANCH  40  43
ATOM     43  C21 2P8 d   1      44.499  37.079  85.613  0.00  0.00    -0.040 A 
ATOM     44  C22 2P8 d   1      44.542  35.794  85.098  0.00  0.00    -0.075 A 
ATOM     45  C23 2P8 d   1      45.202  34.770  85.771  0.00  0.00    -0.082 A 
ATOM     46  H   2P8 d   1      44.050  35.581  84.149  0.00  0.00     0.084 H 
ATOM     47  C24 2P8 d   1      45.859  35.033  86.974  0.00  0.00    -0.083 A 
ATOM     48  H   2P8 d   1      45.206  33.761  85.358  0.00  0.00     0.083 H 
ATOM     49  C25 2P8 d   1      45.825  36.334  87.491  0.00  0.00    -0.082 A 
ATOM     50  H   2P8 d   1      46.389  34.240  87.502  0.00  0.00     0.083 H 
ATOM     51  C26 2P8 d   1      45.134  37.352  86.813  0.00  0.00    -0.075 A 
ATOM     52  H   2P8 d   1      46.338  36.558  88.426  0.00  0.00     0.083 H 
ATOM     53  H   2P8 d   1      45.098  38.358  87.232  0.00  0.00     0.084 H 
ENDBRANCH  40  43
ENDBRANCH   3  40
TORSDOF 7
