REMARK  5 active torsions:
REMARK  status: ('A' for Active; 'I' for Inactive)
REMARK    1  A    between atoms: C18_2  and  C15_3 
REMARK       I    between atoms: C18_2  and  N19_20 
REMARK    2  A    between atoms: C10_10  and  N9_11 
REMARK    3  A    between atoms: N9_11  and  C5_12 
REMARK    4  A    between atoms: C22_22  and  O24_24 
REMARK    5  A    between atoms: C22_22  and  C25_25 
ROOT
ATOM      1  O20 EUI d   1     -31.158  12.871  -6.292  0.00  0.00    -0.267 OA
ATOM      2  C18 EUI d   1     -30.674  12.729  -5.176  0.00  0.00     0.256 C 
ATOM      3  N19 EUI d   1     -29.650  13.537  -4.842  0.00  0.00    -0.342 N 
ATOM      4  C23 EUI d   1     -28.925  13.676  -3.590  0.00  0.00     0.030 A 
ATOM      5  C22 EUI d   1     -28.225  14.824  -4.433  0.00  0.00     0.118 A 
ATOM      6  C21 EUI d   1     -29.066  14.539  -5.728  0.00  0.00     0.030 A 
ATOM      7  H   EUI d   1     -28.413  12.874  -3.058  0.00  0.00     0.069 H 
ATOM      8  H   EUI d   1     -29.374  13.794  -2.604  0.00  0.00     0.069 H 
ATOM      9  H   EUI d   1     -29.623  15.283  -6.297  0.00  0.00     0.069 H 
ATOM     10  H   EUI d   1     -28.656  14.346  -6.719  0.00  0.00     0.069 H 
ENDROOT
BRANCH   2  11
ATOM     11  C15 EUI d   1     -31.196  11.701  -4.224  0.00  0.00     0.062 A 
ATOM     12  C14 EUI d   1     -30.289  11.038  -3.331  0.00  0.00    -0.062 A 
ATOM     13  C13 EUI d   1     -30.747  10.044  -2.452  0.00  0.00    -0.042 A 
ATOM     14  H   EUI d   1     -29.233  11.309  -3.335  0.00  0.00     0.085 H 
ATOM     15  C12 EUI d   1     -32.119   9.739  -2.513  0.00  0.00     0.157 A 
ATOM     16  H   EUI d   1     -30.076   9.536  -1.760  0.00  0.00     0.088 H 
ATOM     17  F17 EUI d   1     -32.778   8.872  -1.790  0.00  0.00    -0.203 F 
ATOM     18  C11 EUI d   1     -32.978  10.355  -3.391  0.00  0.00     0.182 A 
ATOM     19  F16 EUI d   1     -34.242  10.039  -3.339  0.00  0.00    -0.200 F 
ATOM     20  C10 EUI d   1     -32.558  11.332  -4.263  0.00  0.00     0.090 A 
BRANCH  20  21
ATOM     21  N9  EUI d   1     -33.547  11.897  -5.044  0.00  0.00    -0.350 N 
ATOM     22  H   EUI d   1     -33.312  11.927  -6.036  0.00  0.00     0.166 HD
BRANCH  21  23
ATOM     23  C5  EUI d   1     -34.810  12.439  -4.753  0.00  0.00     0.071 A 
ATOM     24  C4  EUI d   1     -35.332  12.423  -3.435  0.00  0.00    -0.053 A 
ATOM     25  C3  EUI d   1     -36.609  12.983  -3.152  0.00  0.00    -0.065 A 
ATOM     26  H   EUI d   1     -34.749  11.977  -2.630  0.00  0.00     0.087 H 
ATOM     27  C2  EUI d   1     -37.347  13.577  -4.178  0.00  0.00     0.009 A 
ATOM     28  H   EUI d   1     -37.010  12.948  -2.139  0.00  0.00     0.085 H 
ATOM     29  I8  EUI d   1     -39.331  14.455  -3.889  0.00  0.00    -0.044 I 
ATOM     30  C1  EUI d   1     -36.832  13.595  -5.459  0.00  0.00    -0.027 A 
ATOM     31  C6  EUI d   1     -35.570  13.036  -5.755  0.00  0.00     0.144 A 
ATOM     32  H   EUI d   1     -37.413  14.051  -6.260  0.00  0.00     0.090 H 
ATOM     33  F7  EUI d   1     -35.106  13.062  -7.010  0.00  0.00    -0.204 F 
ENDBRANCH  21  23
ENDBRANCH  20  21
ENDBRANCH   2  11
BRANCH   5  34
ATOM     34  O24 EUI d   1     -28.598  16.142  -4.024  0.00  0.00    -0.384 OA
ATOM     35  H   EUI d   1     -28.114  16.378  -3.229  0.00  0.00     0.210 HD
ENDBRANCH   5  34
BRANCH   5  36
ATOM     36  C25 EUI d   1     -26.713  14.760  -4.630  0.00  0.00     0.134 C 
ATOM     37  C30 EUI d   1     -26.189  13.301  -4.785  0.00  0.00    -0.035 C 
ATOM     38  C29 EUI d   1     -24.657  13.301  -4.625  0.00  0.00    -0.062 C 
ATOM     39  H   EUI d   1     -26.456  12.916  -5.769  0.00  0.00     0.036 H 
ATOM     40  H   EUI d   1     -26.639  12.665  -4.023  0.00  0.00     0.036 H 
ATOM     41  C28 EUI d   1     -24.286  13.799  -3.203  0.00  0.00    -0.042 C 
ATOM     42  H   EUI d   1     -24.214  13.963  -5.369  0.00  0.00     0.033 H 
ATOM     43  H   EUI d   1     -24.277  12.289  -4.767  0.00  0.00     0.033 H 
ATOM     44  C27 EUI d   1     -24.817  15.245  -3.051  0.00  0.00     0.082 C 
ATOM     45  H   EUI d   1     -23.205  13.778  -3.066  0.00  0.00     0.035 H 
ATOM     46  H   EUI d   1     -24.733  13.152  -2.448  0.00  0.00     0.035 H 
ATOM     47  N26 EUI d   1     -26.247  15.403  -3.392  0.00  0.00    -0.068 N 
ATOM     48  H   EUI d   1     -24.250  15.870  -3.741  0.00  0.00     0.075 H 
ATOM     49  H   EUI d   1     -24.703  15.521  -2.003  0.00  0.00     0.075 H 
ATOM     50  H   EUI d   1     -26.765  14.957  -2.635  0.00  0.00     0.277 HD
ATOM     51  H   EUI d   1     -26.392  16.404  -3.526  0.00  0.00     0.277 HD
ATOM     52  H   EUI d   1     -26.359  15.239  -5.543  0.00  0.00     0.089 H 
ENDBRANCH   5  36
TORSDOF 5
