REMARK  9 active torsions:
REMARK  status: ('A' for Active; 'I' for Inactive)
REMARK    1  A    between atoms: N9_7  and  C13_1 
REMARK    2  A    between atoms: C5_8  and  N9_7 
REMARK    3  A    between atoms: C10_14  and  C6_9 
REMARK       I    between atoms: N12_15  and  C10_14 
REMARK    4  A    between atoms: O21_17  and  N12_15 
REMARK    5  A    between atoms: C22_18  and  O21_17 
REMARK    6  A    between atoms: C25_22  and  C22_18 
REMARK    7  A    between atoms: C24_19  and  O23_21 
REMARK    8  A    between atoms: C24_19  and  C25_22 
REMARK    9  A    between atoms: C25_22  and  O26_20 
ROOT
ATOM      1  C5  5Y0 d   1       5.860  34.217   4.145  0.00  0.00     0.090 A 
ATOM      2  C6  5Y0 d   1       4.815  33.280   4.230  0.00  0.00     0.064 A 
ATOM      3  C1  5Y0 d   1       4.728  32.234   3.285  0.00  0.00    -0.062 A 
ATOM      4  C2  5Y0 d   1       5.704  32.104   2.272  0.00  0.00    -0.042 A 
ATOM      5  C3  5Y0 d   1       6.761  33.020   2.227  0.00  0.00     0.157 A 
ATOM      6  C4  5Y0 d   1       6.803  34.055   3.129  0.00  0.00     0.182 A 
ATOM      7  F7  5Y0 d   1       7.825  34.909   3.017  0.00  0.00    -0.200 F 
ATOM      8  F8  5Y0 d   1       7.756  32.983   1.306  0.00  0.00    -0.203 F 
ATOM      9  H   5Y0 d   1       3.903  31.523   3.338  0.00  0.00     0.085 H 
ATOM     10  H   5Y0 d   1       5.635  31.302   1.537  0.00  0.00     0.088 H 
ENDROOT
BRANCH   2  11
ATOM     11  C10 5Y0 d   1       3.790  33.349   5.294  0.00  0.00     0.277 C 
ATOM     12  N12 5Y0 d   1       2.672  32.627   5.234  0.00  0.00    -0.231 N 
ATOM     13  H   5Y0 d   1       2.358  32.225   4.351  0.00  0.00     0.197 HD
ATOM     14  O11 5Y0 d   1       4.146  33.808   6.381  0.00  0.00    -0.265 OA
BRANCH  12  15
ATOM     15  O21 5Y0 d   1       1.931  32.431   6.420  0.00  0.00    -0.275 OA
BRANCH  15  16
ATOM     16  C22 5Y0 d   1       0.731  31.642   6.505  0.00  0.00     0.071 C 
ATOM     17  H   5Y0 d   1       0.789  30.841   5.768  0.00  0.00     0.082 H 
ATOM     18  H   5Y0 d   1      -0.125  32.290   6.318  0.00  0.00     0.082 H 
BRANCH  16  19
ATOM     19  C25 5Y0 d   1       0.574  31.013   7.902  0.00  0.00     0.078 C 
ATOM     20  H   5Y0 d   1      -0.162  31.603   8.449  0.00  0.00     0.089 H 
BRANCH  19  21
ATOM     21  C24 5Y0 d   1       1.889  31.065   8.656  0.00  0.00     0.043 C 
ATOM     22  H   5Y0 d   1       1.986  30.321   9.447  0.00  0.00     0.078 H 
ATOM     23  H   5Y0 d   1       2.764  30.815   8.056  0.00  0.00     0.078 H 
BRANCH  21  24
ATOM     24  O23 5Y0 d   1       1.854  32.407   9.113  0.00  0.00    -0.398 OA
ATOM     25  H   5Y0 d   1       1.811  33.000   8.359  0.00  0.00     0.209 HD
ENDBRANCH  21  24
ENDBRANCH  19  21
BRANCH  19  26
ATOM     26  O26 5Y0 d   1       0.060  29.671   7.838  0.00  0.00    -0.391 OA
ATOM     27  H   5Y0 d   1      -0.770  29.670   7.356  0.00  0.00     0.210 HD
ENDBRANCH  19  26
ENDBRANCH  16  19
ENDBRANCH  15  16
ENDBRANCH  12  15
ENDBRANCH   2  11
BRANCH   1  28
ATOM     28  N9  5Y0 d   1       6.059  35.260   5.013  0.00  0.00    -0.350 N 
ATOM     29  H   5Y0 d   1       6.096  35.008   6.001  0.00  0.00     0.166 HD
BRANCH  28  30
ATOM     30  C13 5Y0 d   1       6.215  36.594   4.737  0.00  0.00     0.071 A 
ATOM     31  C14 5Y0 d   1       6.451  37.064   3.427  0.00  0.00    -0.053 A 
ATOM     32  C15 5Y0 d   1       6.559  38.407   3.216  0.00  0.00    -0.065 A 
ATOM     33  H   5Y0 d   1       6.545  36.364   2.597  0.00  0.00     0.087 H 
ATOM     34  C16 5Y0 d   1       6.460  39.362   4.238  0.00  0.00     0.009 A 
ATOM     35  H   5Y0 d   1       6.732  38.757   2.198  0.00  0.00     0.085 H 
ATOM     36  C17 5Y0 d   1       6.199  38.858   5.530  0.00  0.00    -0.027 A 
ATOM     37  I20 5Y0 d   1       6.661  41.476   3.996  0.00  0.00    -0.044 I 
ATOM     38  C18 5Y0 d   1       6.088  37.505   5.762  0.00  0.00     0.144 A 
ATOM     39  H   5Y0 d   1       6.083  39.554   6.361  0.00  0.00     0.090 H 
ATOM     40  F19 5Y0 d   1       5.847  37.086   7.034  0.00  0.00    -0.204 F 
ENDBRANCH  28  30
ENDBRANCH   1  28
TORSDOF 9
