REMARK  4 active torsions:
REMARK  status: ('A' for Active; 'I' for Inactive)
REMARK    1  A    between atoms: C5_1  and  N8_7 
REMARK    2  A    between atoms: N8_7  and  C9_8 
REMARK    3  A    between atoms: C14_9  and  C15_14 
REMARK       I    between atoms: C15_14  and  N17_15 
REMARK    4  A    between atoms: C19_17  and  O21_19 
ROOT
ATOM      1  C9  2P7 d   1     -26.513 -22.367  -4.049  0.00  0.00     0.090 A 
ATOM      2  C14 2P7 d   1     -26.071 -21.015  -3.973  0.00  0.00     0.062 A 
ATOM      3  C13 2P7 d   1     -25.124 -20.625  -3.046  0.00  0.00    -0.062 A 
ATOM      4  C12 2P7 d   1     -24.569 -21.580  -2.197  0.00  0.00    -0.042 A 
ATOM      5  C11 2P7 d   1     -24.964 -22.919  -2.270  0.00  0.00     0.157 A 
ATOM      6  C10 2P7 d   1     -25.940 -23.288  -3.208  0.00  0.00     0.182 A 
ATOM      7  F23 2P7 d   1     -26.362 -24.551  -3.345  0.00  0.00    -0.200 F 
ATOM      8  F22 2P7 d   1     -24.393 -23.824  -1.425  0.00  0.00    -0.203 F 
ATOM      9  H   2P7 d   1     -24.814 -19.582  -2.980  0.00  0.00     0.085 H 
ATOM     10  H   2P7 d   1     -23.818 -21.279  -1.467  0.00  0.00     0.088 H 
ENDROOT
BRANCH   1  11
ATOM     11  N8  2P7 d   1     -27.448 -22.836  -4.954  0.00  0.00    -0.350 N 
ATOM     12  H   2P7 d   1     -27.305 -22.558  -5.925  0.00  0.00     0.166 HD
BRANCH  11  13
ATOM     13  C5  2P7 d   1     -28.553 -23.634  -4.712  0.00  0.00     0.071 A 
ATOM     14  C6  2P7 d   1     -28.873 -24.117  -3.441  0.00  0.00    -0.053 A 
ATOM     15  C7  2P7 d   1     -30.003 -24.920  -3.236  0.00  0.00    -0.065 A 
ATOM     16  H   2P7 d   1     -28.233 -23.865  -2.595  0.00  0.00     0.087 H 
ATOM     17  C2  2P7 d   1     -30.863 -25.250  -4.283  0.00  0.00     0.009 A 
ATOM     18  H   2P7 d   1     -30.215 -25.295  -2.235  0.00  0.00     0.085 H 
ATOM     19  C3  2P7 d   1     -30.540 -24.765  -5.534  0.00  0.00    -0.027 A 
ATOM     20  I1  2P7 d   1     -32.584 -26.495  -4.005  0.00  0.00    -0.044 I 
ATOM     21  C4  2P7 d   1     -29.422 -23.985  -5.752  0.00  0.00     0.144 A 
ATOM     22  H   2P7 d   1     -31.188 -25.005  -6.377  0.00  0.00     0.090 H 
ATOM     23  F24 2P7 d   1     -29.208 -23.565  -7.014  0.00  0.00    -0.204 F 
ENDBRANCH  11  13
ENDBRANCH   1  11
BRANCH   2  24
ATOM     24  C15 2P7 d   1     -26.658 -19.961  -4.869  0.00  0.00     0.256 C 
ATOM     25  N17 2P7 d   1     -26.815 -18.634  -4.461  0.00  0.00    -0.343 N 
ATOM     26  C20 2P7 d   1     -26.482 -17.986  -3.191  0.00  0.00     0.023 A 
ATOM     27  C18 2P7 d   1     -27.377 -17.428  -5.124  0.00  0.00     0.023 A 
ATOM     28  C19 2P7 d   1     -27.093 -16.721  -3.800  0.00  0.00     0.066 A 
ATOM     29  H   2P7 d   1     -25.476 -18.005  -2.773  0.00  0.00     0.068 H 
ATOM     30  H   2P7 d   1     -26.806 -18.386  -2.230  0.00  0.00     0.068 H 
ATOM     31  H   2P7 d   1     -26.551 -15.778  -3.864  0.00  0.00     0.087 H 
ATOM     32  H   2P7 d   1     -28.358 -17.419  -5.598  0.00  0.00     0.068 H 
ATOM     33  H   2P7 d   1     -27.010 -17.057  -6.081  0.00  0.00     0.068 H 
ATOM     34  O16 2P7 d   1     -26.996 -20.431  -5.967  0.00  0.00    -0.267 OA
BRANCH  28  35
ATOM     35  O21 2P7 d   1     -28.246 -16.331  -3.024  0.00  0.00    -0.392 OA
ATOM     36  H   2P7 d   1     -28.632 -15.538  -3.403  0.00  0.00     0.210 HD
ENDBRANCH  28  35
ENDBRANCH   2  24
TORSDOF 4
