REMARK  6 active torsions:
REMARK  status: ('A' for Active; 'I' for Inactive)
REMARK    1  A    between atoms: C13_7  and  C16_8 
REMARK       I    between atoms: C16_8  and  N17_10 
REMARK    2  A    between atoms: C20_12  and  O23_13 
REMARK    3  A    between atoms: C20_12  and  C24_14 
REMARK    4  A    between atoms: C24_14  and  N25_15 
REMARK    5  A    between atoms: C8_17  and  N7_18 
REMARK    6  A    between atoms: N7_18  and  C5_19 
ROOT
ATOM      1  F26 YQY d   1      25.924 -24.912   3.057  0.00  0.00    -0.200 F 
ATOM      2  C9  YQY d   1      25.567 -23.658   3.175  0.00  0.00     0.182 A 
ATOM      3  C10 YQY d   1      24.601 -23.255   2.317  0.00  0.00     0.157 A 
ATOM      4  F22 YQY d   1      24.144 -24.227   1.534  0.00  0.00    -0.203 F 
ATOM      5  C11 YQY d   1      24.143 -21.959   2.296  0.00  0.00    -0.042 A 
ATOM      6  C12 YQY d   1      24.719 -21.065   3.180  0.00  0.00    -0.062 A 
ATOM      7  C13 YQY d   1      25.759 -21.467   4.017  0.00  0.00     0.062 A 
ATOM      8  C8  YQY d   1      26.221 -22.786   3.994  0.00  0.00     0.090 A 
ATOM      9  H   YQY d   1      23.356 -21.648   1.609  0.00  0.00     0.088 H 
ATOM     10  H   YQY d   1      24.357 -20.038   3.223  0.00  0.00     0.085 H 
ENDROOT
BRANCH   7  11
ATOM     11  C16 YQY d   1      26.377 -20.466   4.929  0.00  0.00     0.256 C 
ATOM     12  O18 YQY d   1      26.851 -20.809   6.012  0.00  0.00    -0.267 OA
ATOM     13  N17 YQY d   1      26.456 -19.186   4.593  0.00  0.00    -0.342 N 
ATOM     14  C21 YQY d   1      26.112 -18.446   3.386  0.00  0.00     0.030 A 
ATOM     15  C19 YQY d   1      27.004 -18.082   5.367  0.00  0.00     0.030 A 
ATOM     16  C20 YQY d   1      26.753 -17.270   4.128  0.00  0.00     0.113 A 
ATOM     17  H   YQY d   1      25.110 -18.418   2.959  0.00  0.00     0.069 H 
ATOM     18  H   YQY d   1      26.401 -18.758   2.382  0.00  0.00     0.069 H 
ATOM     19  H   YQY d   1      27.974 -18.127   5.863  0.00  0.00     0.069 H 
ATOM     20  H   YQY d   1      26.627 -17.800   6.350  0.00  0.00     0.069 H 
BRANCH  16  21
ATOM     21  O23 YQY d   1      28.059 -16.846   3.745  0.00  0.00    -0.385 OA
ATOM     22  H   YQY d   1      28.049 -16.576   2.824  0.00  0.00     0.210 HD
ENDBRANCH  16  21
BRANCH  16  23
ATOM     23  C24 YQY d   1      25.776 -16.111   4.193  0.00  0.00     0.111 C 
ATOM     24  H   YQY d   1      24.792 -16.442   4.524  0.00  0.00     0.080 H 
ATOM     25  H   YQY d   1      25.627 -15.665   3.210  0.00  0.00     0.080 H 
BRANCH  23  26
ATOM     26  N25 YQY d   1      26.338 -15.175   5.104  0.00  0.00    -0.076 N 
ATOM     27  H   YQY d   1      25.718 -14.369   5.187  0.00  0.00     0.274 HD
ATOM     28  H   YQY d   1      26.449 -15.616   6.017  0.00  0.00     0.274 HD
ATOM     29  H   YQY d   1      27.248 -14.871   4.759  0.00  0.00     0.274 HD
ENDBRANCH  23  26
ENDBRANCH  16  23
ENDBRANCH   7  11
BRANCH   8  30
ATOM     30  N7  YQY d   1      27.240 -23.214   4.788  0.00  0.00    -0.350 N 
ATOM     31  H   YQY d   1      27.207 -22.944   5.771  0.00  0.00     0.166 HD
BRANCH  30  32
ATOM     32  C5  YQY d   1      28.334 -23.995   4.374  0.00  0.00     0.071 A 
ATOM     33  C6  YQY d   1      29.254 -24.368   5.351  0.00  0.00     0.144 A 
ATOM     34  F15 YQY d   1      29.024 -23.920   6.564  0.00  0.00    -0.204 F 
ATOM     35  C1  YQY d   1      30.399 -25.157   5.146  0.00  0.00    -0.027 A 
ATOM     36  C2  YQY d   1      30.663 -25.625   3.902  0.00  0.00     0.009 A 
ATOM     37  H   YQY d   1      31.066 -25.389   5.976  0.00  0.00     0.090 H 
ATOM     38  C3  YQY d   1      29.749 -25.308   2.898  0.00  0.00    -0.065 A 
ATOM     39  I14 YQY d   1      32.390 -26.913   3.663  0.00  0.00    -0.044 I 
ATOM     40  C4  YQY d   1      28.596 -24.489   3.087  0.00  0.00    -0.053 A 
ATOM     41  H   YQY d   1      29.927 -25.713   1.902  0.00  0.00     0.085 H 
ATOM     42  H   YQY d   1      27.935 -24.253   2.253  0.00  0.00     0.087 H 
ENDBRANCH  30  32
ENDBRANCH   8  30
TORSDOF 6
