REMARK  3 active torsions:
REMARK  status: ('A' for Active; 'I' for Inactive)
REMARK    1  A    between atoms: C14_1  and  O3_3 
REMARK    2  A    between atoms: C5_9  and  N3_2 
REMARK    3  A    between atoms: C3_10  and  C5_9 
ROOT
ATOM      1  N1  WUL d   1      24.360   6.900  18.099  0.00  0.00    -0.230 NA
ATOM      2  O1  WUL d   1      25.143   7.834  14.283  0.00  0.00    -0.265 OA
ATOM      3  N2  WUL d   1      25.476   6.435  16.069  0.00  0.00    -0.308 N 
ATOM      4  C3  WUL d   1      25.212   6.157  17.372  0.00  0.00     0.133 A 
ATOM      5  C2  WUL d   1      23.817   8.020  17.580  0.00  0.00     0.111 A 
ATOM      6  C7  WUL d   1      22.943   8.953  18.093  0.00  0.00     0.031 A 
ATOM      7 BR1  WUL d   1      20.335  10.499  20.978  0.00  0.00    -0.051 Br
ATOM      8  C11 WUL d   1      22.249   9.128  19.310  0.00  0.00    -0.051 A 
ATOM      9  C10 WUL d   1      21.361  10.210  19.318  0.00  0.00     0.012 A 
ATOM     10  C9  WUL d   1      21.156  11.141  18.370  0.00  0.00    -0.064 A 
ATOM     11  C8  WUL d   1      21.868  10.909  17.174  0.00  0.00    -0.048 A 
ATOM     12  O2  WUL d   1      23.450   9.448  15.987  0.00  0.00    -0.302 OA
ATOM     13  C6  WUL d   1      22.692   9.850  17.078  0.00  0.00     0.089 A 
ATOM     14  C1  WUL d   1      24.102   8.359  16.265  0.00  0.00     0.173 A 
ATOM     15  C4  WUL d   1      24.957   7.563  15.501  0.00  0.00     0.283 A 
ATOM     16  H8  WUL d   1      26.047   5.817  15.529  0.00  0.00     0.170 HD
ATOM     17  H11 WUL d   1      22.392   8.479  20.166  0.00  0.00     0.087 H 
ATOM     18  H12 WUL d   1      20.502  11.994  18.512  0.00  0.00     0.085 H 
ATOM     19  H13 WUL d   1      21.751  11.583  16.333  0.00  0.00     0.087 H 
ENDROOT
BRANCH   4  20
ATOM     20  C5  WUL d   1      25.877   5.006  17.932  0.00  0.00     0.137 C 
ATOM     21  H9  WUL d   1      26.955   5.101  17.735  0.00  0.00     0.088 H 
ATOM     22  H10 WUL d   1      25.702   5.000  19.018  0.00  0.00     0.088 H 
BRANCH  20  23
ATOM     23  N3  WUL d   1      25.408   3.690  17.371  0.00  0.00    -0.062 N 
ATOM     24  C12 WUL d   1      26.177   2.520  17.674  0.00  0.00     0.086 C 
ATOM     25  C13 WUL d   1      25.205   2.035  18.793  0.00  0.00    -0.017 C 
ATOM     26  H6  WUL d   1      27.186   2.750  18.047  0.00  0.00     0.076 H 
ATOM     27  H7  WUL d   1      26.249   1.819  16.830  0.00  0.00     0.076 H 
ATOM     28  C14 WUL d   1      23.827   2.159  18.140  0.00  0.00     0.060 C 
ATOM     29  H4  WUL d   1      25.416   0.993  19.073  0.00  0.00     0.039 H 
ATOM     30  H5  WUL d   1      25.278   2.676  19.684  0.00  0.00     0.039 H 
ATOM     31  C15 WUL d   1      23.952   3.482  17.450  0.00  0.00     0.107 C 
ATOM     32  H1  WUL d   1      22.989   2.113  18.851  0.00  0.00     0.085 H 
ATOM     33  H14 WUL d   1      23.472   4.279  18.037  0.00  0.00     0.080 H 
ATOM     34  H15 WUL d   1      23.505   3.446  16.446  0.00  0.00     0.080 H 
ATOM     35  H2  WUL d   1      25.570   3.807  16.383  0.00  0.00     0.280 HD
BRANCH  28  36
ATOM     36  O3  WUL d   1      23.755   1.088  17.104  0.00  0.00    -0.394 OA
ATOM     37  H3  WUL d   1      22.911   1.126  16.669  0.00  0.00     0.210 HD
ENDBRANCH  28  36
ENDBRANCH  20  23
ENDBRANCH   4  20
TORSDOF 3
