REMARK  7 active torsions:
REMARK  status: ('A' for Active; 'I' for Inactive)
REMARK    1  A    between atoms: C17_7  and  C21_10 
REMARK    2  A    between atoms: C21_10  and  C1_11 
REMARK    3  A    between atoms: C21_10  and  O27_12 
REMARK    4  A    between atoms: O27_12  and  C15_13 
REMARK    5  A    between atoms: C19_15  and  N22_16 
REMARK    6  A    between atoms: C14_19  and  C16_20 
REMARK    7  A    between atoms: N26_23  and  C20_25 
ROOT
ATOM      1  C15 VGH d   1      29.716  44.867   8.915  0.00  0.00     0.116 A 
ATOM      2  C4  VGH d   1      29.614  46.101   8.185  0.00  0.00    -0.035 A 
ATOM      3  C19 VGH d   1      28.668  44.614   9.863  0.00  0.00     0.154 A 
ATOM      4  N23 VGH d   1      27.625  45.455  10.094  0.00  0.00    -0.240 NA
ATOM      5  C5  VGH d   1      27.556  46.622   9.383  0.00  0.00     0.015 A 
ATOM      6  C14 VGH d   1      28.529  47.006   8.408  0.00  0.00    -0.003 A 
ATOM      7  H7  VGH d   1      30.373  46.350   7.452  0.00  0.00     0.089 H 
ATOM      8  H10 VGH d   1      26.722  47.289   9.568  0.00  0.00     0.116 H 
ENDROOT
BRANCH   6   9
ATOM      9  C16 VGH d   1      28.448  48.304   7.626  0.00  0.00     0.012 A 
ATOM     10  C6  VGH d   1      29.515  48.918   6.834  0.00  0.00     0.034 A 
ATOM     11  N24 VGH d   1      29.084  50.006   6.319  0.00  0.00    -0.184 NA
ATOM     12  H11 VGH d   1      30.517  48.512   6.704  0.00  0.00     0.118 H 
ATOM     13  N26 VGH d   1      27.863  50.202   6.663  0.00  0.00    -0.276 N 
ATOM     14  C7  VGH d   1      27.365  49.172   7.496  0.00  0.00     0.011 A 
ATOM     15  H12 VGH d   1      26.371  49.080   7.932  0.00  0.00     0.115 H 
BRANCH  13  16
ATOM     16  C20 VGH d   1      27.119  51.397   6.200  0.00  0.00     0.037 C 
ATOM     17  C8  VGH d   1      26.724  52.290   7.397  0.00  0.00    -0.022 C 
ATOM     18  C10 VGH d   1      25.955  53.530   6.883  0.00  0.00     0.084 C 
ATOM     19  H14 VGH d   1      27.631  52.615   7.927  0.00  0.00     0.038 H 
ATOM     20  H15 VGH d   1      26.082  51.719   8.084  0.00  0.00     0.038 H 
ATOM     21  N25 VGH d   1      24.776  53.161   6.045  0.00  0.00    -0.075 N 
ATOM     22  H16 VGH d   1      26.639  54.145   6.279  0.00  0.00     0.075 H 
ATOM     23  H17 VGH d   1      25.605  54.112   7.748  0.00  0.00     0.075 H 
ATOM     24  C11 VGH d   1      25.129  52.257   4.912  0.00  0.00     0.084 C 
ATOM     25  H18 VGH d   1      24.372  54.005   5.669  0.00  0.00     0.277 HD
ATOM     26  H19 VGH d   1      24.099  52.695   6.629  0.00  0.00     0.277 HD
ATOM     27  C9  VGH d   1      25.875  50.987   5.381  0.00  0.00    -0.022 C 
ATOM     28  H20 VGH d   1      25.773  52.806   4.210  0.00  0.00     0.075 H 
ATOM     29  H21 VGH d   1      24.204  51.954   4.400  0.00  0.00     0.075 H 
ATOM     30  H22 VGH d   1      25.206  50.379   6.008  0.00  0.00     0.038 H 
ATOM     31  H23 VGH d   1      26.189  50.401   4.505  0.00  0.00     0.038 H 
ATOM     32  H13 VGH d   1      27.782  51.980   5.544  0.00  0.00     0.076 H 
ENDBRANCH  13  16
ENDBRANCH   6   9
BRANCH   1  33
ATOM     33  O27 VGH d   1      30.729  43.908   8.750  0.00  0.00    -0.338 OA
BRANCH  33  34
ATOM     34  C21 VGH d   1      32.012  44.104   8.052  0.00  0.00     0.070 C 
ATOM     35  H3  VGH d   1      31.806  44.413   7.017  0.00  0.00     0.091 H 
BRANCH  34  36
ATOM     36  C17 VGH d   1      32.955  45.190   8.697  0.00  0.00     0.017 A 
ATOM     37  C13 VGH d   1      33.336  46.375   7.931  0.00  0.00     0.044 A 
ATOM     38 CL   VGH d   1      32.806  46.685   6.305  0.00  0.00    -0.084 Cl
ATOM     39  C3  VGH d   1      34.191  47.358   8.508  0.00  0.00    -0.058 A 
ATOM     40  C2  VGH d   1      34.689  47.214   9.827  0.00  0.00    -0.042 A 
ATOM     41  H1  VGH d   1      34.465  48.231   7.928  0.00  0.00     0.086 H 
ATOM     42  C12 VGH d   1      34.346  46.079  10.606  0.00  0.00     0.138 A 
ATOM     43  H2  VGH d   1      35.337  47.977  10.244  0.00  0.00     0.088 H 
ATOM     44  F   VGH d   1      34.843  45.984  11.846  0.00  0.00    -0.204 F 
ATOM     45  C18 VGH d   1      33.482  45.058  10.066  0.00  0.00     0.083 A 
ATOM     46 CL2  VGH d   1      33.113  43.691  11.107  0.00  0.00    -0.080 Cl
ENDBRANCH  34  36
BRANCH  34  47
ATOM     47  C1  VGH d   1      32.693  42.727   8.051  0.00  0.00    -0.048 C 
ATOM     48  H4  VGH d   1      32.019  41.985   7.598  0.00  0.00     0.031 H 
ATOM     49  H5  VGH d   1      32.922  42.430   9.085  0.00  0.00     0.031 H 
ATOM     50  H6  VGH d   1      33.625  42.779   7.470  0.00  0.00     0.031 H 
ENDBRANCH  34  47
ENDBRANCH  33  34
ENDBRANCH   1  33
BRANCH   3  51
ATOM     51  N22 VGH d   1      28.701  43.422  10.612  0.00  0.00    -0.382 N 
ATOM     52  H8  VGH d   1      27.958  43.223  11.297  0.00  0.00     0.157 HD
ATOM     53  H9  VGH d   1      29.468  42.749  10.475  0.00  0.00     0.157 HD
ENDBRANCH   3  51
TORSDOF 7
