REMARK  9 active torsions:
REMARK  status: ('A' for Active; 'I' for Inactive)
REMARK    1  A    between atoms: C28_1  and  O4_2 
REMARK    2  A    between atoms: O4_2  and  C25_3 
REMARK    3  A    between atoms: C22_8  and  C18_9 
REMARK    4  A    between atoms: C16_14  and  S1_15 
REMARK    5  A    between atoms: S1_15  and  N1_18 
REMARK    6  A    between atoms: N2_23  and  C5_24 
REMARK    7  A    between atoms: C8_29  and  C9_30 
REMARK    8  A    between atoms: C12_33  and  O3_34 
REMARK    9  A    between atoms: O3_34  and  C15_35 
ROOT
ATOM      1  N1  751 d   1      42.088  14.035  34.443  0.00  0.00    -0.203 NA
ATOM      2  C4  751 d   1      43.126  14.574  35.302  0.00  0.00     0.008 C 
ATOM      3  C3  751 d   1      43.456  15.975  34.871  0.00  0.00     0.008 C 
ATOM      4  C1  751 d   1      40.842  14.796  34.369  0.00  0.00     0.008 C 
ATOM      5  C2  751 d   1      41.106  16.110  33.675  0.00  0.00     0.008 C 
ATOM      6  N2  751 d   1      42.359  16.714  34.191  0.00  0.00    -0.362 N 
ATOM      7  H12 751 d   1      44.026  13.946  35.228  0.00  0.00     0.059 H 
ATOM      8  H13 751 d   1      42.771  14.585  36.343  0.00  0.00     0.059 H 
ATOM      9  H14 751 d   1      44.309  15.924  34.179  0.00  0.00     0.066 H 
ATOM     10  H15 751 d   1      43.744  16.546  35.766  0.00  0.00     0.066 H 
ATOM     11  H16 751 d   1      40.465  14.985  35.385  0.00  0.00     0.059 H 
ATOM     12  H17 751 d   1      40.094  14.223  33.801  0.00  0.00     0.059 H 
ATOM     13  H18 751 d   1      40.267  16.796  33.863  0.00  0.00     0.066 H 
ATOM     14  H19 751 d   1      41.204  15.937  32.593  0.00  0.00     0.066 H 
ENDROOT
BRANCH   1  15
ATOM     15  S1  751 d   1      41.711  12.440  34.773  0.00  0.00     0.243 S 
ATOM     16  O1  751 d   1      42.697  11.793  35.632  0.00  0.00    -0.206 OA
ATOM     17  O2  751 d   1      40.282  12.402  35.209  0.00  0.00    -0.206 OA
BRANCH  15  18
ATOM     18  C16 751 d   1      41.932  11.733  33.037  0.00  0.00     0.075 A 
ATOM     19  C17 751 d   1      43.193  11.806  32.435  0.00  0.00    -0.050 A 
ATOM     20  C18 751 d   1      43.420  11.346  31.124  0.00  0.00    -0.025 A 
ATOM     21  H8  751 d   1      44.019  12.229  32.995  0.00  0.00     0.087 H 
ATOM     22  C19 751 d   1      42.365  10.801  30.410  0.00  0.00    -0.072 A 
ATOM     23  C20 751 d   1      41.100  10.739  30.971  0.00  0.00    -0.081 A 
ATOM     24  H9  751 d   1      42.530  10.421  29.408  0.00  0.00     0.084 H 
ATOM     25  C21 751 d   1      40.893  11.209  32.263  0.00  0.00    -0.061 A 
ATOM     26  H10 751 d   1      40.274  10.325  30.404  0.00  0.00     0.083 H 
ATOM     27  H11 751 d   1      39.895  11.168  32.683  0.00  0.00     0.085 H 
BRANCH  20  28
ATOM     28  C22 751 d   1      44.718  11.405  30.594  0.00  0.00    -0.026 A 
ATOM     29  C27 751 d   1      45.218  10.400  29.740  0.00  0.00    -0.070 A 
ATOM     30  C26 751 d   1      46.510  10.449  29.231  0.00  0.00    -0.050 A 
ATOM     31  H5  751 d   1      44.577   9.567  29.474  0.00  0.00     0.085 H 
ATOM     32  C25 751 d   1      47.354  11.516  29.616  0.00  0.00     0.068 A 
ATOM     33  H4  751 d   1      46.864   9.683  28.551  0.00  0.00     0.087 H 
ATOM     34  C24 751 d   1      46.877  12.509  30.498  0.00  0.00    -0.050 A 
ATOM     35  C23 751 d   1      45.561  12.473  30.975  0.00  0.00    -0.070 A 
ATOM     36  H6  751 d   1      47.538  13.310  30.810  0.00  0.00     0.087 H 
ATOM     37  H7  751 d   1      45.193  13.255  31.629  0.00  0.00     0.085 H 
BRANCH  32  38
ATOM     38  O4  751 d   1      48.632  11.574  29.146  0.00  0.00    -0.356 OA
BRANCH  38  39
ATOM     39  C28 751 d   1      49.519  12.153  30.119  0.00  0.00     0.010 C 
ATOM     40  H1  751 d   1      50.540  12.186  29.711  0.00  0.00     0.066 H 
ATOM     41  H2  751 d   1      49.509  11.542  31.034  0.00  0.00     0.066 H 
ATOM     42  H3  751 d   1      49.186  13.174  30.357  0.00  0.00     0.066 H 
ENDBRANCH  38  39
ENDBRANCH  32  38
ENDBRANCH  20  28
ENDBRANCH  15  18
ENDBRANCH   1  15
BRANCH   6  43
ATOM     43  C5  751 d   1      42.556  18.113  34.058  0.00  0.00     0.155 A 
ATOM     44  N3  751 d   1      41.561  18.959  34.408  0.00  0.00    -0.240 NA
ATOM     45  C6  751 d   1      41.712  20.277  34.345  0.00  0.00     0.021 A 
ATOM     46  C7  751 d   1      42.921  20.803  33.916  0.00  0.00     0.020 A 
ATOM     47  H20 751 d   1      40.898  20.935  34.626  0.00  0.00     0.117 H 
ATOM     48  N4  751 d   1      43.900  19.975  33.546  0.00  0.00    -0.255 NA
ATOM     49  H21 751 d   1      43.069  21.876  33.882  0.00  0.00     0.117 H 
ATOM     50  C8  751 d   1      43.781  18.631  33.633  0.00  0.00     0.112 A 
BRANCH  50  51
ATOM     51  C9  751 d   1      44.884  17.854  33.202  0.00  0.00    -0.003 A 
ATOM     52  C10 751 d   1      46.176  18.111  33.671  0.00  0.00    -0.068 A 
ATOM     53  C11 751 d   1      47.270  17.390  33.186  0.00  0.00    -0.050 A 
ATOM     54  H22 751 d   1      46.331  18.879  34.420  0.00  0.00     0.085 H 
ATOM     55  C12 751 d   1      47.088  16.411  32.203  0.00  0.00     0.068 A 
ATOM     56  H23 751 d   1      48.263  17.590  33.572  0.00  0.00     0.087 H 
ATOM     57  C13 751 d   1      45.809  16.155  31.713  0.00  0.00    -0.050 A 
ATOM     58  C14 751 d   1      44.722  16.891  32.183  0.00  0.00    -0.068 A 
ATOM     59  H27 751 d   1      45.659  15.384  30.966  0.00  0.00     0.087 H 
ATOM     60  H28 751 d   1      43.739  16.721  31.760  0.00  0.00     0.085 H 
BRANCH  55  61
ATOM     61  O3  751 d   1      48.116  15.671  31.713  0.00  0.00    -0.356 OA
BRANCH  61  62
ATOM     62  C15 751 d   1      49.474  16.146  31.671  0.00  0.00     0.010 C 
ATOM     63  H24 751 d   1      50.120  15.371  31.234  0.00  0.00     0.066 H 
ATOM     64  H25 751 d   1      49.814  16.374  32.692  0.00  0.00     0.066 H 
ATOM     65  H26 751 d   1      49.525  17.056  31.055  0.00  0.00     0.066 H 
ENDBRANCH  61  62
ENDBRANCH  55  61
ENDBRANCH  50  51
ENDBRANCH   6  43
TORSDOF 9
