REMARK  7 active torsions:
REMARK  status: ('A' for Active; 'I' for Inactive)
REMARK    1  A    between atoms: C12_1  and  N3_2 
REMARK       I    between atoms: N3_2  and  C6_3 
REMARK    2  A    between atoms: C6_3  and  C4_5 
REMARK    3  A    between atoms: C3_7  and  N4_8 
REMARK    4  A    between atoms: C1_11  and  C5_12 
REMARK    5  A    between atoms: C10_18  and  S1_19 
REMARK    6  A    between atoms: S1_19  and  N5_22 
REMARK    7  A    between atoms: N5_22  and  C14_23 
ROOT
ATOM      1  C5  O92 d   1      44.436  12.638  30.869  0.00  0.00    -0.004 A 
ATOM      2  C11 O92 d   1      43.875  13.205  32.026  0.00  0.00    -0.046 A 
ATOM      3  C7  O92 d   1      43.637  11.923  29.985  0.00  0.00    -0.069 A 
ATOM      4  C8  O92 d   1      42.288  11.784  30.272  0.00  0.00    -0.059 A 
ATOM      5  C9  O92 d   1      41.729  12.342  31.424  0.00  0.00     0.057 A 
ATOM      6 CL1  O92 d   1      40.055  12.114  31.698  0.00  0.00    -0.083 Cl
ATOM      7  C10 O92 d   1      42.515  13.073  32.332  0.00  0.00     0.102 A 
ATOM      8  H8  O92 d   1      44.514  13.761  32.702  0.00  0.00     0.087 H 
ATOM      9  H9  O92 d   1      44.060  11.483  29.089  0.00  0.00     0.085 H 
ATOM     10  H10 O92 d   1      41.654  11.231  29.588  0.00  0.00     0.086 H 
ENDROOT
BRANCH   1  11
ATOM     11  C1  O92 d   1      45.801  12.809  30.617  0.00  0.00     0.085 A 
ATOM     12  N2  O92 d   1      46.342  13.973  31.011  0.00  0.00    -0.237 NA
ATOM     13  C4  O92 d   1      47.643  14.235  30.834  0.00  0.00     0.170 A 
ATOM     14  C3  O92 d   1      48.450  13.270  30.202  0.00  0.00     0.155 A 
ATOM     15  N1  O92 d   1      47.899  12.094  29.805  0.00  0.00    -0.239 NA
ATOM     16  C2  O92 d   1      46.612  11.842  29.997  0.00  0.00     0.033 A 
ATOM     17  H7  O92 d   1      46.188  10.897  29.678  0.00  0.00     0.118 H 
BRANCH  13  18
ATOM     18  C6  O92 d   1      48.162  15.606  31.323  0.00  0.00     0.273 C 
ATOM     19  N3  O92 d   1      47.249  16.318  32.022  0.00  0.00    -0.360 N 
ATOM     20  H4  O92 d   1      46.338  15.935  32.175  0.00  0.00     0.162 HD
ATOM     21  O1  O92 d   1      49.312  15.966  31.055  0.00  0.00    -0.266 OA
BRANCH  19  22
ATOM     22  C12 O92 d   1      47.578  17.652  32.563  0.00  0.00    -0.018 C 
ATOM     23  H1  O92 d   1      46.705  18.058  33.094  0.00  0.00     0.056 H 
ATOM     24  H2  O92 d   1      47.850  18.326  31.737  0.00  0.00     0.056 H 
ATOM     25  H3  O92 d   1      48.424  17.566  33.261  0.00  0.00     0.056 H 
ENDBRANCH  19  22
ENDBRANCH  13  18
BRANCH  14  26
ATOM     26  N4  O92 d   1      49.752  13.499  30.003  0.00  0.00    -0.382 N 
ATOM     27  H5  O92 d   1      50.335  12.787  29.540  0.00  0.00     0.157 HD
ATOM     28  H6  O92 d   1      50.172  14.387  30.313  0.00  0.00     0.157 HD
ENDBRANCH  14  26
ENDBRANCH   1  11
BRANCH   7  29
ATOM     29  S1  O92 d   1      41.848  13.840  33.857  0.00  0.00     0.265 S 
ATOM     30  O2  O92 d   1      40.899  14.974  33.516  0.00  0.00    -0.200 OA
ATOM     31  O3  O92 d   1      41.105  12.837  34.669  0.00  0.00    -0.200 OA
BRANCH  29  32
ATOM     32  N5  O92 d   1      43.130  14.394  34.674  0.00  0.00    -0.277 N 
ATOM     33  H11 O92 d   1      43.656  13.754  35.233  0.00  0.00     0.179 HD
BRANCH  32  34
ATOM     34  C14 O92 d   1      43.516  15.684  34.630  0.00  0.00     0.084 A 
ATOM     35  C17 O92 d   1      44.087  16.210  35.831  0.00  0.00    -0.053 A 
ATOM     36  C18 O92 d   1      44.575  17.588  35.952  0.00  0.00    -0.078 A 
ATOM     37  H12 O92 d   1      44.163  15.559  36.694  0.00  0.00     0.087 H 
ATOM     38  C15 O92 d   1      44.426  18.389  34.826  0.00  0.00    -0.042 A 
ATOM     39  H13 O92 d   1      45.025  17.960  36.865  0.00  0.00     0.083 H 
ATOM     40  C16 O92 d   1      43.856  17.886  33.648  0.00  0.00     0.157 A 
ATOM     41  H14 O92 d   1      44.756  19.421  34.859  0.00  0.00     0.088 H 
ATOM     42  F2  O92 d   1      43.716  18.690  32.567  0.00  0.00    -0.203 F 
ATOM     43  C13 O92 d   1      43.418  16.569  33.546  0.00  0.00     0.181 A 
ATOM     44  F1  O92 d   1      42.876  16.212  32.370  0.00  0.00    -0.200 F 
ENDBRANCH  32  34
ENDBRANCH  29  32
ENDBRANCH   7  29
TORSDOF 7
