REMARK  9 active torsions:
REMARK  status: ('A' for Active; 'I' for Inactive)
REMARK    1  A    between atoms: C26_1  and  C25_2 
REMARK    2  A    between atoms: C25_2  and  C27_3 
REMARK    3  A    between atoms: C25_2  and  C12_4 
REMARK    4  A    between atoms: C5_9  and  C3_10 
REMARK    5  A    between atoms: C4_15  and  N3_16 
REMARK    6  A    between atoms: N4_21  and  S1_22 
REMARK    7  A    between atoms: S1_22  and  C15_25 
REMARK    8  A    between atoms: C19_30  and  C21_31 
REMARK    9  A    between atoms: C23_34  and  N7_35 
ROOT
ATOM      1  N3  534 d   1      41.955  16.620  33.884  0.00  0.00    -0.362 N 
ATOM      2  C9  534 d   1      43.079  15.958  34.613  0.00  0.00     0.008 C 
ATOM      3  C8  534 d   1      42.798  14.499  34.994  0.00  0.00     0.008 C 
ATOM      4  C6  534 d   1      40.878  15.835  33.197  0.00  0.00     0.008 C 
ATOM      5  C7  534 d   1      40.680  14.477  33.822  0.00  0.00     0.008 C 
ATOM      6  N4  534 d   1      42.008  13.862  33.923  0.00  0.00    -0.203 NA
ATOM      7  H   534 d   1      43.235  16.511  35.539  0.00  0.00     0.066 H 
ATOM      8  H   534 d   1      43.942  15.959  33.948  0.00  0.00     0.066 H 
ATOM      9  H   534 d   1      42.240  14.466  35.930  0.00  0.00     0.059 H 
ATOM     10  H   534 d   1      43.740  13.966  35.120  0.00  0.00     0.059 H 
ATOM     11  H   534 d   1      41.172  15.691  32.157  0.00  0.00     0.066 H 
ATOM     12  H   534 d   1      39.944  16.390  33.285  0.00  0.00     0.066 H 
ATOM     13  H   534 d   1      40.013  13.864  33.216  0.00  0.00     0.059 H 
ATOM     14  H   534 d   1      40.217  14.566  34.805  0.00  0.00     0.059 H 
ENDROOT
BRANCH   1  15
ATOM     15  C4  534 d   1      41.866  18.039  33.780  0.00  0.00     0.155 A 
ATOM     16  C3  534 d   1      42.956  18.853  33.495  0.00  0.00     0.112 A 
ATOM     17  N1  534 d   1      42.774  20.170  33.389  0.00  0.00    -0.255 NA
ATOM     18  C2  534 d   1      41.591  20.732  33.540  0.00  0.00     0.020 A 
ATOM     19  C1  534 d   1      40.486  19.946  33.797  0.00  0.00     0.021 A 
ATOM     20  H   534 d   1      41.486  21.814  33.462  0.00  0.00     0.117 H 
ATOM     21  N2  534 d   1      40.658  18.637  33.909  0.00  0.00    -0.240 NA
ATOM     22  H   534 d   1      39.497  20.391  33.905  0.00  0.00     0.117 H 
BRANCH  16  23
ATOM     23  C5  534 d   1      44.247  18.399  33.328  0.00  0.00    -0.004 A 
ATOM     24  C14 534 d   1      45.175  18.638  34.332  0.00  0.00    -0.070 A 
ATOM     25  C13 534 d   1      46.498  18.208  34.201  0.00  0.00    -0.076 A 
ATOM     26  H   534 d   1      44.868  19.168  35.234  0.00  0.00     0.084 H 
ATOM     27  C12 534 d   1      46.931  17.545  33.054  0.00  0.00    -0.055 A 
ATOM     28  H   534 d   1      47.204  18.394  35.010  0.00  0.00     0.084 H 
ATOM     29  C11 534 d   1      45.989  17.316  32.045  0.00  0.00    -0.076 A 
ATOM     30  C10 534 d   1      44.656  17.736  32.180  0.00  0.00    -0.070 A 
ATOM     31  H   534 d   1      46.297  16.801  31.135  0.00  0.00     0.084 H 
ATOM     32  H   534 d   1      43.941  17.541  31.381  0.00  0.00     0.084 H 
BRANCH  27  33
ATOM     33  C25 534 d   1      48.399  17.073  32.909  0.00  0.00    -0.036 C 
ATOM     34  H   534 d   1      48.978  17.476  33.740  0.00  0.00     0.046 H 
BRANCH  33  35
ATOM     35  C26 534 d   1      48.434  15.552  32.929  0.00  0.00    -0.069 C 
ATOM     36  H   534 d   1      48.023  15.193  33.873  0.00  0.00     0.028 H 
ATOM     37  H   534 d   1      47.839  15.165  32.102  0.00  0.00     0.028 H 
ATOM     38  H   534 d   1      49.465  15.212  32.827  0.00  0.00     0.028 H 
ENDBRANCH  33  35
BRANCH  33  39
ATOM     39  C27 534 d   1      49.024  17.586  31.606  0.00  0.00    -0.069 C 
ATOM     40  H   534 d   1      48.453  17.209  30.758  0.00  0.00     0.028 H 
ATOM     41  H   534 d   1      49.008  18.676  31.601  0.00  0.00     0.028 H 
ATOM     42  H   534 d   1      50.054  17.236  31.536  0.00  0.00     0.028 H 
ENDBRANCH  33  39
ENDBRANCH  27  33
ENDBRANCH  16  23
ENDBRANCH   1  15
BRANCH   6  43
ATOM     43  S1  534 d   1      41.923  12.207  34.042  0.00  0.00     0.243 S 
ATOM     44  O1  534 d   1      42.823  11.673  35.117  0.00  0.00    -0.206 OA
ATOM     45  O2  534 d   1      40.500  11.757  34.263  0.00  0.00    -0.206 OA
BRANCH  43  46
ATOM     46  C15 534 d   1      42.529  11.763  32.468  0.00  0.00     0.075 A 
ATOM     47  C20 534 d   1      43.906  11.905  32.188  0.00  0.00    -0.050 A 
ATOM     48  C19 534 d   1      44.408  11.580  30.922  0.00  0.00    -0.022 A 
ATOM     49  H   534 d   1      44.582  12.270  32.962  0.00  0.00     0.087 H 
ATOM     50  C18 534 d   1      43.517  11.120  29.941  0.00  0.00    -0.072 A 
ATOM     51  C17 534 d   1      42.140  10.998  30.229  0.00  0.00    -0.081 A 
ATOM     52  H   534 d   1      43.889  10.855  28.951  0.00  0.00     0.084 H 
ATOM     53  C16 534 d   1      41.634  11.328  31.485  0.00  0.00    -0.061 A 
ATOM     54  H   534 d   1      41.461  10.639  29.456  0.00  0.00     0.083 H 
ATOM     55  H   534 d   1      40.568  11.249  31.696  0.00  0.00     0.085 H 
BRANCH  48  56
ATOM     56  C21 534 d   1      45.770  11.698  30.636  0.00  0.00     0.010 A 
ATOM     57  C22 534 d   1      46.447  12.901  30.805  0.00  0.00     0.033 A 
ATOM     58  N5  534 d   1      47.738  13.000  30.519  0.00  0.00    -0.075 NA
ATOM     59  H   534 d   1      45.910  13.773  31.177  0.00  0.00     0.117 H 
ATOM     60  C23 534 d   1      48.415  11.928  30.067  0.00  0.00     0.719 A 
ATOM     61  N6  534 d   1      47.788  10.750  29.886  0.00  0.00    -0.075 NA
ATOM     62  C24 534 d   1      46.501  10.615  30.160  0.00  0.00     0.033 A 
ATOM     63  H   534 d   1      46.012   9.652  30.012  0.00  0.00     0.117 H 
BRANCH  60  64
ATOM     64  N7  534 d   1      49.711  12.033  29.785  0.00  0.00    -0.231 N 
ATOM     65  H   534 d   1      50.190  12.925  29.911  0.00  0.00     0.174 HD
ATOM     66  H   534 d   1      50.226  11.222  29.442  0.00  0.00     0.174 HD
ENDBRANCH  60  64
ENDBRANCH  48  56
ENDBRANCH  43  46
ENDBRANCH   6  43
TORSDOF 9
