REMARK  5 active torsions:
REMARK  status: ('A' for Active; 'I' for Inactive)
REMARK    1  A    between atoms: CAV_1  and  CAU_2 
REMARK       I    between atoms: CAU_2  and  NAT_4 
REMARK    2  A    between atoms: NAT_4  and  CAN_5 
REMARK    3  A    between atoms: CAB_13  and  CAA_14 
REMARK    4  A    between atoms: CAK_19  and  SAP_20 
REMARK    5  A    between atoms: SAP_20  and  CAQ_21 
ROOT
ATOM      1  CAN 7L0 d   1      48.758  13.568  29.443  0.00  0.00     0.748 A 
ATOM      2  NAO 7L0 d   1      48.144  12.544  28.847  0.00  0.00    -0.042 NA
ATOM      3  NAM 7L0 d   1      47.939  14.143  30.329  0.00  0.00     0.027 NA
ATOM      4  NAD 7L0 d   1      46.858  13.549  30.325  0.00  0.00    -0.210 N 
ATOM      5  CAC 7L0 d   1      45.675  13.762  31.066  0.00  0.00     0.017 A 
ATOM      6  CAE 7L0 d   1      46.935  12.510  29.385  0.00  0.00     0.170 A 
ATOM      7  CAF 7L0 d   1      45.841  11.689  29.183  0.00  0.00    -0.035 A 
ATOM      8  CAG 7L0 d   1      44.678  11.899  29.918  0.00  0.00    -0.067 A 
ATOM      9  CAB 7L0 d   1      44.576  12.934  30.855  0.00  0.00    -0.007 A 
ATOM     10  H   7L0 d   1      45.623  14.568  31.797  0.00  0.00     0.116 H 
ATOM     11  H   7L0 d   1      45.889  10.882  28.452  0.00  0.00     0.089 H 
ATOM     12  H   7L0 d   1      43.824  11.240  29.760  0.00  0.00     0.085 H 
ENDROOT
BRANCH   9  13
ATOM     13  CAA 7L0 d   1      43.391  13.074  31.580  0.00  0.00    -0.005 A 
ATOM     14  CAL 7L0 d   1      43.394  13.591  32.876  0.00  0.00    -0.049 A 
ATOM     15  CAK 7L0 d   1      42.180  13.670  33.556  0.00  0.00     0.077 A 
ATOM     16  H   7L0 d   1      44.321  13.924  33.344  0.00  0.00     0.087 H 
ATOM     17  CAJ 7L0 d   1      41.022  13.212  32.931  0.00  0.00     0.023 A 
ATOM     18  NAI 7L0 d   1      41.056  12.705  31.711  0.00  0.00    -0.271 NA
ATOM     19  H   7L0 d   1      40.070  13.273  33.458  0.00  0.00     0.117 H 
ATOM     20  CAH 7L0 d   1      42.188  12.625  31.033  0.00  0.00     0.013 A 
ATOM     21  H   7L0 d   1      42.182  12.201  30.029  0.00  0.00     0.116 H 
BRANCH  15  22
ATOM     22  SAP 7L0 d   1      42.062  14.336  35.187  0.00  0.00     0.173 S 
ATOM     23  OAS 7L0 d   1      40.861  13.779  35.898  0.00  0.00    -0.223 OA
ATOM     24  OAR 7L0 d   1      41.887  15.831  35.126  0.00  0.00    -0.223 OA
BRANCH  22  25
ATOM     25  CAQ 7L0 d   1      43.517  13.902  36.111  0.00  0.00     0.020 C 
ATOM     26  H   7L0 d   1      43.449  14.324  37.114  0.00  0.00     0.049 H 
ATOM     27  H   7L0 d   1      43.594  12.817  36.177  0.00  0.00     0.049 H 
ATOM     28  H   7L0 d   1      44.398  14.300  35.607  0.00  0.00     0.049 H 
ENDBRANCH  22  25
ENDBRANCH  15  22
ENDBRANCH   9  13
BRANCH   1  29
ATOM     29  NAT 7L0 d   1      50.025  13.955  29.179  0.00  0.00    -0.155 N 
ATOM     30  CAU 7L0 d   1      50.757  14.805  29.915  0.00  0.00     0.232 C 
ATOM     31  OAW 7L0 d   1      50.370  15.363  30.943  0.00  0.00    -0.273 OA
ATOM     32  H   7L0 d   1      50.465  13.566  28.345  0.00  0.00     0.187 HD
BRANCH  30  33
ATOM     33  CAV 7L0 d   1      52.174  15.053  29.379  0.00  0.00    -0.002 C 
ATOM     34  H   7L0 d   1      52.298  16.114  29.160  0.00  0.00     0.040 H 
ATOM     35  H   7L0 d   1      52.903  14.748  30.129  0.00  0.00     0.040 H 
ATOM     36  H   7L0 d   1      52.323  14.473  28.468  0.00  0.00     0.040 H 
ENDBRANCH  30  33
ENDBRANCH   1  29
TORSDOF 5
