REMARK WARNING: 32 MAX_TORS EXCEEDED!!!
REMARK  94 active torsions:
REMARK  status: ('A' for Active; 'I' for Inactive)
REMARK    1  A    between atoms: N_1  and  CA_2 
REMARK    2  A    between atoms: CA_2  and  C_3 
REMARK    3  A    between atoms: CA_2  and  CB_5 
REMARK       I    between atoms: C_3  and  N_10 
REMARK    4  A    between atoms: CB_5  and  CG_6 
REMARK    5  A    between atoms: CG_6  and  CD_7 
REMARK    6  A    between atoms: CD_7  and  CE_8 
REMARK    7  A    between atoms: CE_8  and  NZ_9 
REMARK    8  A    between atoms: N_10  and  CA_11 
REMARK    9  A    between atoms: CA_11  and  C_12 
REMARK   10  A    between atoms: CA_11  and  CB_14 
REMARK       I    between atoms: C_12  and  N_18 
REMARK   11  A    between atoms: CB_14  and  CG_15 
REMARK       I    between atoms: CG_15  and  ND2_17 
REMARK   12  A    between atoms: N_18  and  CA_19 
REMARK   13  A    between atoms: CA_19  and  C_20 
REMARK   14  A    between atoms: CA_19  and  CB_22 
REMARK       I    between atoms: C_20  and  N_26 
REMARK   15  A    between atoms: CB_22  and  CG1_23 
REMARK   16  A    between atoms: CB_22  and  CG2_24 
REMARK   17  A    between atoms: CG1_23  and  CD1_25 
REMARK   18  A    between atoms: CA_27  and  C_28 
REMARK       I    between atoms: C_28  and  N_33 
REMARK   19  A    between atoms: N_33  and  CA_34 
REMARK   20  A    between atoms: CA_34  and  C_35 
REMARK   21  A    between atoms: CA_34  and  CB_37 
REMARK       I    between atoms: C_35  and  N_39 
REMARK   22  A    between atoms: CB_37  and  OG_38 
REMARK   23  A    between atoms: N_39  and  CA_40 
REMARK   24  A    between atoms: CA_40  and  C_41 
REMARK   25  A    between atoms: CA_40  and  CB_43 
REMARK       I    between atoms: C_41  and  N_47 
REMARK   26  A    between atoms: CB_43  and  CG_44 
REMARK   27  A    between atoms: CG_44  and  CD1_45 
REMARK   28  A    between atoms: CG_44  and  CD2_46 
REMARK   29  A    between atoms: N_47  and  CA_48 
REMARK   30  A    between atoms: CA_48  and  C_49 
REMARK   31  A    between atoms: CA_48  and  CB_51 
REMARK       I    between atoms: C_49  and  N_55 
REMARK   32  A    between atoms: CB_51  and  CG_52 
REMARK   33  A    between atoms: CG_52  and  CD1_53 
REMARK   34  A    between atoms: CG_52  and  CD2_54 
REMARK   35  A    between atoms: N_55  and  CA_56 
REMARK   36  A    between atoms: CA_56  and  C_57 
REMARK   37  A    between atoms: CA_56  and  CB_59 
REMARK       I    between atoms: C_57  and  N_66 
REMARK   38  A    between atoms: CB_59  and  CG_60 
REMARK   39  A    between atoms: CG_60  and  CD_61 
REMARK   40  A    between atoms: CD_61  and  NE_62 
REMARK       I    between atoms: NE_62  and  CZ_63 
REMARK       I    between atoms: CZ_63  and  NH1_64 
REMARK       I    between atoms: CZ_63  and  NH2_65 
REMARK   41  A    between atoms: N_66  and  CA_67 
REMARK   42  A    between atoms: CA_67  and  C_68 
REMARK   43  A    between atoms: CA_67  and  CB_70 
REMARK       I    between atoms: C_68  and  N_73 
REMARK   44  A    between atoms: CB_70  and  CG1_71 
REMARK   45  A    between atoms: CB_70  and  CG2_72 
REMARK   46  A    between atoms: N_73  and  CA_74 
REMARK   47  A    between atoms: CA_74  and  C_75 
REMARK   48  A    between atoms: CA_74  and  CB_77 
REMARK       I    between atoms: C_75  and  N_82 
REMARK   49  A    between atoms: CB_77  and  CG_78 
REMARK   50  A    between atoms: CG_78  and  CD_79 
REMARK       I    between atoms: CD_79  and  NE2_81 
REMARK   51  A    between atoms: N_82  and  CA_83 
REMARK   52  A    between atoms: CA_83  and  C_84 
REMARK   53  A    between atoms: CA_83  and  CB_86 
REMARK       I    between atoms: C_84  and  N_87 
REMARK   54  A    between atoms: N_87  and  CA_88 
REMARK   55  A    between atoms: CA_88  and  C_89 
REMARK   56  A    between atoms: CA_88  and  CB_91 
REMARK       I    between atoms: C_89  and  N_97 
REMARK   57  A    between atoms: CB_91  and  CG_92 
REMARK   58  A    between atoms: N_97  and  CA_98 
REMARK   59  A    between atoms: CA_98  and  C_99 
REMARK   60  A    between atoms: CA_98  and  CB_101 
REMARK       I    between atoms: C_99  and  N_105 
REMARK   61  A    between atoms: CB_101  and  CG1_102 
REMARK   62  A    between atoms: CB_101  and  CG2_103 
REMARK   63  A    between atoms: CG1_102  and  CD1_104 
REMARK   64  A    between atoms: N_105  and  CA_106 
REMARK   65  A    between atoms: CA_106  and  C_107 
REMARK   66  A    between atoms: CA_106  and  CB_109 
REMARK       I    between atoms: C_107  and  N_116 
REMARK   67  A    between atoms: CB_109  and  CG_110 
REMARK   68  A    between atoms: CG_110  and  CD_111 
REMARK   69  A    between atoms: CD_111  and  NE_112 
REMARK       I    between atoms: NE_112  and  CZ_113 
REMARK       I    between atoms: CZ_113  and  NH1_114 
REMARK   70  A    between atoms: N_116  and  CA_117 
REMARK   71  A    between atoms: CA_117  and  C_118 
REMARK   72  A    between atoms: CA_117  and  CB_120 
REMARK       I    between atoms: C_118  and  N_125 
REMARK   73  A    between atoms: CB_120  and  CG_121 
REMARK   74  A    between atoms: CG_121  and  CD_122 
REMARK   75  A    between atoms: CD_122  and  CE_123 
REMARK   76  A    between atoms: CE_123  and  NZ_124 
REMARK   77  A    between atoms: N_125  and  CA_126 
REMARK   78  A    between atoms: CA_126  and  C_127 
REMARK   79  A    between atoms: CA_126  and  CB_129 
REMARK       I    between atoms: C_127  and  N_134 
REMARK   80  A    between atoms: CB_129  and  CG_130 
REMARK   81  A    between atoms: CG_130  and  CD_131 
REMARK   82  A    between atoms: CD_131  and  CE_132 
REMARK   83  A    between atoms: CE_132  and  NZ_133 
REMARK   84  A    between atoms: N_134  and  CA_135 
REMARK   85  A    between atoms: CA_135  and  C_136 
REMARK   86  A    between atoms: CA_135  and  CB_138 
REMARK       I    between atoms: C_136  and  N_142 
REMARK   87  A    between atoms: CB_138  and  CG_139 
REMARK   88  A    between atoms: CG_139  and  SD_140 
REMARK   89  A    between atoms: SD_140  and  CE_141 
REMARK   90  A    between atoms: N_142  and  CA_143 
REMARK   91  A    between atoms: CA_143  and  C_144 
REMARK   92  A    between atoms: CA_143  and  CB_146 
REMARK   93  A    between atoms: CB_146  and  CG1_147 
REMARK   94  A    between atoms: CB_146  and  CG2_148 
ROOT
ATOM      1  CA  GLN d   1     -11.984  -8.165  13.470  0.00  0.00     0.090 C 
ATOM      2  H90 GLN d   1     -11.415  -8.979  12.999  0.00  0.00     0.087 H 
ENDROOT
BRANCH   1   3
ATOM      3  N   GLN d   1     -11.142  -7.525  14.472  0.00  0.00    -0.346 N 
ATOM      4  C   VAL d   1      -9.949  -7.039  14.157  0.00  0.00     0.241 C 
ATOM      5  O   VAL d   1      -9.487  -7.079  13.009  0.00  0.00    -0.271 OA
ATOM      6  H89 GLN d   1     -11.470  -7.451  15.414  0.00  0.00     0.163 HD
BRANCH   4   7
ATOM      7  CA  VAL d   1      -9.159  -6.417  15.303  0.00  0.00     0.092 C 
ATOM      8  H81 VAL d   1      -8.273  -5.911  14.892  0.00  0.00     0.088 H 
BRANCH   7   9
ATOM      9  N   VAL d   1      -9.977  -5.429  16.002  0.00  0.00    -0.346 N 
ATOM     10  C   ARG d   1     -10.500  -4.381  15.371  0.00  0.00     0.241 C 
ATOM     11  O   ARG d   1     -10.282  -4.135  14.180  0.00  0.00    -0.271 OA
ATOM     12  H80 VAL d   1     -10.148  -5.543  16.980  0.00  0.00     0.163 HD
BRANCH  10  13
ATOM     13  CA  ARG d   1     -11.412  -3.469  16.198  0.00  0.00     0.089 C 
ATOM     14  H68 ARG d   1     -12.044  -2.907  15.495  0.00  0.00     0.087 H 
BRANCH  13  15
ATOM     15  N   ARG d   1     -12.302  -4.236  17.072  0.00  0.00    -0.346 N 
ATOM     16  C   LEU d   1     -13.277  -4.992  16.565  0.00  0.00     0.241 C 
ATOM     17  O   LEU d   1     -13.469  -5.116  15.359  0.00  0.00    -0.271 OA
ATOM     18  H67 ARG d   1     -12.177  -4.192  18.063  0.00  0.00     0.163 HD
BRANCH  16  19
ATOM     19  CA  LEU d   1     -14.161  -5.747  17.556  0.00  0.00     0.089 C 
ATOM     20  H57 LEU d   1     -14.592  -6.614  17.034  0.00  0.00     0.087 H 
BRANCH  19  21
ATOM     21  N   LEU d   1     -13.376  -6.248  18.679  0.00  0.00    -0.346 N 
ATOM     22  C   LEU d   1     -12.349  -7.079  18.472  0.00  0.00     0.241 C 
ATOM     23  O   LEU d   1     -12.018  -7.476  17.350  0.00  0.00    -0.271 OA
ATOM     24  H56 LEU d   1     -13.608  -5.968  19.611  0.00  0.00     0.163 HD
BRANCH  22  25
ATOM     25  CA  LEU d   1     -11.578  -7.539  19.701  0.00  0.00     0.089 C 
ATOM     26  H46 LEU d   1     -10.599  -7.925  19.381  0.00  0.00     0.087 H 
BRANCH  25  27
ATOM     27  N   LEU d   1     -11.355  -6.412  20.606  0.00  0.00    -0.346 N 
ATOM     28  C   SER d   1     -10.661  -5.352  20.195  0.00  0.00     0.243 C 
ATOM     29  O   SER d   1     -10.093  -5.322  19.091  0.00  0.00    -0.271 OA
ATOM     30  H45 LEU d   1     -11.724  -6.437  21.535  0.00  0.00     0.163 HD
BRANCH  28  31
ATOM     31  CA  SER d   1     -10.599  -4.144  21.144  0.00  0.00     0.109 C 
ATOM     32  H41 SER d   1     -10.498  -3.241  20.524  0.00  0.00     0.090 H 
BRANCH  31  33
ATOM     33  N   SER d   1     -11.825  -4.011  21.923  0.00  0.00    -0.344 N 
ATOM     34  C   PRO d   1     -12.972  -3.661  21.336  0.00  0.00     0.241 C 
ATOM     35  O   PRO d   1     -13.068  -3.422  20.134  0.00  0.00    -0.271 OA
ATOM     36  H40 SER d   1     -11.806  -4.184  22.908  0.00  0.00     0.163 HD
BRANCH  34  37
ATOM     37  CA  PRO d   1     -14.240  -3.591  22.190  0.00  0.00     0.091 C 
ATOM     38  N   PRO d   1     -14.342  -4.685  23.166  0.00  0.00    -0.337 N 
ATOM     39  C   ILE d   1     -14.378  -5.933  22.643  0.00  0.00     0.243 C 
ATOM     40  CD  PRO d   1     -14.652  -4.177  24.520  0.00  0.00    -0.001 C 
ATOM     41  O   ILE d   1     -14.306  -6.144  21.427  0.00  0.00    -0.271 OA
ATOM     42  CG  PRO d   1     -15.066  -2.741  24.268  0.00  0.00    -0.048 C 
ATOM     43  H38 PRO d   1     -13.766  -4.223  25.171  0.00  0.00     0.064 H 
ATOM     44  H39 PRO d   1     -15.473  -4.749  24.977  0.00  0.00     0.064 H 
ATOM     45  CB  PRO d   1     -14.251  -2.337  23.064  0.00  0.00    -0.036 C 
ATOM     46  H36 PRO d   1     -16.143  -2.676  24.052  0.00  0.00     0.035 H 
ATOM     47  H37 PRO d   1     -14.826  -2.107  25.134  0.00  0.00     0.035 H 
ATOM     48  H34 PRO d   1     -14.724  -1.496  22.536  0.00  0.00     0.036 H 
ATOM     49  H35 PRO d   1     -13.229  -2.057  23.359  0.00  0.00     0.036 H 
ATOM     50  H33 PRO d   1     -15.113  -3.600  21.520  0.00  0.00     0.087 H 
BRANCH  39  51
ATOM     51  CA  ILE d   1     -14.507  -7.127  23.605  0.00  0.00     0.092 C 
ATOM     52  H23 ILE d   1     -14.159  -8.005  23.042  0.00  0.00     0.088 H 
BRANCH  51  53
ATOM     53  N   ILE d   1     -13.653  -7.046  24.790  0.00  0.00    -0.346 N 
ATOM     54  C   ASN d   1     -12.327  -7.030  24.701  0.00  0.00     0.241 C 
ATOM     55  O   ASN d   1     -11.714  -6.981  23.623  0.00  0.00    -0.271 OA
ATOM     56  H22 ILE d   1     -14.079  -7.001  25.693  0.00  0.00     0.163 HD
BRANCH  54  57
ATOM     57  CA  ASN d   1     -11.570  -7.090  26.025  0.00  0.00     0.097 C 
ATOM     58  H17 ASN d   1     -11.583  -6.084  26.470  0.00  0.00     0.088 H 
BRANCH  57  59
ATOM     59  N   ASN d   1     -12.203  -8.009  26.985  0.00  0.00    -0.346 N 
ATOM     60  C   LYS d   1     -12.494  -9.282  26.682  0.00  0.00     0.249 C 
ATOM     61  O   LYS d   1     -12.253  -9.783  25.577  0.00  0.00    -0.271 OA
ATOM     62  H16 ASN d   1     -12.425  -7.670  27.899  0.00  0.00     0.163 HD
BRANCH  60  63
ATOM     63  CA  LYS d   1     -13.164 -10.135  27.778  0.00  0.00     0.176 C 
ATOM     64  H4  LYS d   1     -13.893  -9.500  28.303  0.00  0.00     0.099 H 
BRANCH  63  65
ATOM     65  N   LYS d   1     -13.881 -11.285  27.211  0.00  0.00    -0.067 N 
ATOM     66  H1  LYS d   1     -14.304 -11.817  27.955  0.00  0.00     0.275 HD
ATOM     67  H2  LYS d   1     -13.233 -11.870  26.707  0.00  0.00     0.275 HD
ATOM     68  H3  LYS d   1     -14.598 -10.957  26.582  0.00  0.00     0.275 HD
ENDBRANCH  63  65
BRANCH  63  69
ATOM     69  CB  LYS d   1     -12.131 -10.626  28.795  0.00  0.00    -0.030 C 
ATOM     70  H5  LYS d   1     -11.261 -11.014  28.246  0.00  0.00     0.036 H 
ATOM     71  H6  LYS d   1     -12.583 -11.436  29.385  0.00  0.00     0.036 H 
BRANCH  69  72
ATOM     72  CG  LYS d   1     -11.655  -9.555  29.744  0.00  0.00    -0.061 C 
ATOM     73  H7  LYS d   1     -12.523  -9.147  30.282  0.00  0.00     0.033 H 
ATOM     74  H8  LYS d   1     -11.175  -8.754  29.162  0.00  0.00     0.033 H 
BRANCH  72  75
ATOM     75  CD  LYS d   1     -10.657 -10.089  30.758  0.00  0.00    -0.043 C 
ATOM     76  H9  LYS d   1      -9.925 -10.736  30.252  0.00  0.00     0.035 H 
ATOM     77  H10 LYS d   1     -11.187 -10.668  31.529  0.00  0.00     0.035 H 
BRANCH  75  78
ATOM     78  CE  LYS d   1      -9.941  -8.914  31.402  0.00  0.00     0.080 C 
ATOM     79  H11 LYS d   1     -10.601  -8.035  31.367  0.00  0.00     0.075 H 
ATOM     80  H12 LYS d   1      -9.022  -8.705  30.835  0.00  0.00     0.075 H 
BRANCH  78  81
ATOM     81  NZ  LYS d   1      -9.581  -9.183  32.809  0.00  0.00    -0.079 N 
ATOM     82  H13 LYS d   1      -9.110  -8.380  33.195  0.00  0.00     0.274 HD
ATOM     83  H14 LYS d   1      -8.970  -9.984  32.852  0.00  0.00     0.274 HD
ATOM     84  H15 LYS d   1     -10.417  -9.369  33.340  0.00  0.00     0.274 HD
ENDBRANCH  78  81
ENDBRANCH  75  78
ENDBRANCH  72  75
ENDBRANCH  69  72
ENDBRANCH  63  69
ENDBRANCH  60  63
ENDBRANCH  57  59
BRANCH  57  85
ATOM     85  CB  ASN d   1     -10.111  -7.473  25.756  0.00  0.00     0.036 C 
ATOM     86  H18 ASN d   1      -9.691  -6.767  25.025  0.00  0.00     0.051 H 
ATOM     87  H19 ASN d   1     -10.085  -8.491  25.339  0.00  0.00     0.051 H 
BRANCH  85  88
ATOM     88  CG  ASN d   1      -9.257  -7.440  27.009  0.00  0.00     0.217 C 
ATOM     89  OD1 ASN d   1      -9.455  -6.600  27.891  0.00  0.00    -0.274 OA
ATOM     90  ND2 ASN d   1      -8.307  -8.361  27.099  0.00  0.00    -0.370 N 
ATOM     91  H20 ASN d   1      -7.712  -8.389  27.902  0.00  0.00     0.159 HD
ATOM     92  H21 ASN d   1      -8.185  -9.027  26.363  0.00  0.00     0.159 HD
ENDBRANCH  85  88
ENDBRANCH  57  85
ENDBRANCH  54  57
ENDBRANCH  51  53
BRANCH  51  93
ATOM     93  CB  ILE d   1     -15.982  -7.408  23.985  0.00  0.00    -0.030 C 
ATOM     94  H24 ILE d   1     -16.316  -6.620  24.675  0.00  0.00     0.043 H 
BRANCH  93  95
ATOM     95  CG1 ILE d   1     -16.087  -8.755  24.705  0.00  0.00    -0.063 C 
ATOM     96  H25 ILE d   1     -17.131  -8.897  25.023  0.00  0.00     0.033 H 
ATOM     97  H26 ILE d   1     -15.435  -8.725  25.590  0.00  0.00     0.033 H 
BRANCH  95  98
ATOM     98  CD1 ILE d   1     -15.675  -9.966  23.839  0.00  0.00    -0.076 C 
ATOM     99  H30 ILE d   1     -15.779 -10.890  24.427  0.00  0.00     0.027 H 
ATOM    100  H31 ILE d   1     -14.629  -9.850  23.520  0.00  0.00     0.027 H 
ATOM    101  H32 ILE d   1     -16.324 -10.021  22.953  0.00  0.00     0.027 H 
ENDBRANCH  95  98
ENDBRANCH  93  95
BRANCH  93 102
ATOM    102  CG2 ILE d   1     -16.894  -7.376  22.746  0.00  0.00    -0.071 C 
ATOM    103  H27 ILE d   1     -16.801  -6.400  22.247  0.00  0.00     0.028 H 
ATOM    104  H28 ILE d   1     -17.938  -7.532  23.055  0.00  0.00     0.028 H 
ATOM    105  H29 ILE d   1     -16.595  -8.174  22.050  0.00  0.00     0.028 H 
ENDBRANCH  93 102
ENDBRANCH  51  93
ENDBRANCH  39  51
ENDBRANCH  34  37
ENDBRANCH  31  33
BRANCH  31 106
ATOM    106  CB  SER d   1      -9.378  -4.217  22.060  0.00  0.00     0.044 C 
ATOM    107  H42 SER d   1      -9.391  -3.356  22.745  0.00  0.00     0.077 H 
ATOM    108  H43 SER d   1      -8.466  -4.183  21.446  0.00  0.00     0.077 H 
BRANCH 106 109
ATOM    109  OG  SER d   1      -9.378  -5.418  22.824  0.00  0.00    -0.398 OA
ATOM    110  H44 SER d   1      -8.610  -5.436  23.383  0.00  0.00     0.209 HD
ENDBRANCH 106 109
ENDBRANCH  31 106
ENDBRANCH  28  31
ENDBRANCH  25  27
BRANCH  25 111
ATOM    111  CB  LEU d   1     -12.344  -8.671  20.391  0.00  0.00    -0.035 C 
ATOM    112  H47 LEU d   1     -13.278  -8.255  20.797  0.00  0.00     0.037 H 
ATOM    113  H48 LEU d   1     -11.723  -9.051  21.216  0.00  0.00     0.037 H 
BRANCH 111 114
ATOM    114  CG  LEU d   1     -12.704  -9.853  19.481  0.00  0.00    -0.059 C 
ATOM    115  H49 LEU d   1     -13.361  -9.474  18.684  0.00  0.00     0.038 H 
BRANCH 114 116
ATOM    116  CD1 LEU d   1     -11.458 -10.468  18.814  0.00  0.00    -0.073 C 
ATOM    117  H50 LEU d   1     -11.762 -11.309  18.173  0.00  0.00     0.028 H 
ATOM    118  H51 LEU d   1     -10.768 -10.830  19.590  0.00  0.00     0.028 H 
ATOM    119  H52 LEU d   1     -10.955  -9.704  18.203  0.00  0.00     0.028 H 
ENDBRANCH 114 116
BRANCH 114 120
ATOM    120  CD2 LEU d   1     -13.468 -10.925  20.256  0.00  0.00    -0.073 C 
ATOM    121  H53 LEU d   1     -14.354 -10.475  20.727  0.00  0.00     0.028 H 
ATOM    122  H54 LEU d   1     -12.816 -11.351  21.033  0.00  0.00     0.028 H 
ATOM    123  H55 LEU d   1     -13.784 -11.721  19.566  0.00  0.00     0.028 H 
ENDBRANCH 114 120
ENDBRANCH 111 114
ENDBRANCH  25 111
ENDBRANCH  22  25
ENDBRANCH  19  21
BRANCH  19 124
ATOM    124  CB  LEU d   1     -15.318  -4.863  18.032  0.00  0.00    -0.035 C 
ATOM    125  H58 LEU d   1     -15.444  -4.053  17.298  0.00  0.00     0.037 H 
ATOM    126  H59 LEU d   1     -15.034  -4.435  19.005  0.00  0.00     0.037 H 
BRANCH 124 127
ATOM    127  CG  LEU d   1     -16.676  -5.551  18.205  0.00  0.00    -0.059 C 
ATOM    128  H60 LEU d   1     -17.117  -5.674  17.205  0.00  0.00     0.038 H 
BRANCH 127 129
ATOM    129  CD1 LEU d   1     -16.549  -6.924  18.826  0.00  0.00    -0.073 C 
ATOM    130  H61 LEU d   1     -17.548  -7.374  18.928  0.00  0.00     0.028 H 
ATOM    131  H62 LEU d   1     -16.083  -6.836  19.819  0.00  0.00     0.028 H 
ATOM    132  H63 LEU d   1     -15.924  -7.561  18.183  0.00  0.00     0.028 H 
ENDBRANCH 127 129
BRANCH 127 133
ATOM    133  CD2 LEU d   1     -17.620  -4.687  19.035  0.00  0.00    -0.073 C 
ATOM    134  H64 LEU d   1     -17.705  -3.691  18.575  0.00  0.00     0.028 H 
ATOM    135  H65 LEU d   1     -17.223  -4.587  20.056  0.00  0.00     0.028 H 
ATOM    136  H66 LEU d   1     -18.612  -5.160  19.072  0.00  0.00     0.028 H 
ENDBRANCH 127 133
ENDBRANCH 124 127
ENDBRANCH  19 124
ENDBRANCH  16  19
ENDBRANCH  13  15
BRANCH  13 137
ATOM    137  CB  ARG d   1     -10.582  -2.449  16.998  0.00  0.00    -0.036 C 
ATOM    138  H69 ARG d   1      -9.957  -1.887  16.288  0.00  0.00     0.036 H 
ATOM    139  H70 ARG d   1      -9.937  -3.006  17.694  0.00  0.00     0.036 H 
BRANCH 137 140
ATOM    140  CG  ARG d   1     -11.409  -1.426  17.824  0.00  0.00    -0.048 C 
ATOM    141  H71 ARG d   1     -10.730  -0.643  18.194  0.00  0.00     0.035 H 
ATOM    142  H72 ARG d   1     -11.864  -1.950  18.677  0.00  0.00     0.035 H 
BRANCH 140 143
ATOM    143  CD  ARG d   1     -12.520  -0.763  17.011  0.00  0.00     0.009 C 
ATOM    144  H73 ARG d   1     -12.960   0.052  17.605  0.00  0.00     0.064 H 
ATOM    145  H74 ARG d   1     -13.294  -1.512  16.786  0.00  0.00     0.064 H 
BRANCH 143 146
ATOM    146  NE  ARG d   1     -12.011  -0.214  15.754  0.00  0.00    -0.227 N 
ATOM    147  CZ  ARG d   1     -12.683  -0.224  14.606  0.00  0.00     0.665 C 
ATOM    148  NH1 ARG d   1     -13.919  -0.732  14.550  0.00  0.00    -0.235 N 
ATOM    149  NH2 ARG d   1     -12.124   0.277  13.508  0.00  0.00    -0.235 N 
ATOM    150  H76 ARG d   1     -14.434  -0.737  13.658  0.00  0.00     0.174 HD
ATOM    151  H77 ARG d   1     -14.356  -1.119  15.399  0.00  0.00     0.174 HD
ATOM    152  H78 ARG d   1     -11.172   0.669  13.547  0.00  0.00     0.174 HD
ATOM    153  H79 ARG d   1     -12.643   0.273  12.618  0.00  0.00     0.174 HD
ATOM    154  H75 ARG d   1     -11.071   0.208  15.758  0.00  0.00     0.177 HD
ENDBRANCH 143 146
ENDBRANCH 140 143
ENDBRANCH 137 140
ENDBRANCH  13 137
ENDBRANCH  10  13
ENDBRANCH   7   9
BRANCH   7 155
ATOM    155  CB  VAL d   1      -8.693  -7.530  16.264  0.00  0.00    -0.033 C 
ATOM    156  H82 VAL d   1      -9.566  -7.871  16.840  0.00  0.00     0.042 H 
BRANCH 155 157
ATOM    157  CG1 VAL d   1      -8.136  -8.726  15.497  0.00  0.00    -0.071 C 
ATOM    158  H83 VAL d   1      -7.813  -9.500  16.209  0.00  0.00     0.028 H 
ATOM    159  H84 VAL d   1      -7.277  -8.405  14.890  0.00  0.00     0.028 H 
ATOM    160  H85 VAL d   1      -8.917  -9.136  14.839  0.00  0.00     0.028 H 
ENDBRANCH 155 157
BRANCH 155 161
ATOM    161  CG2 VAL d   1      -7.647  -6.985  17.252  0.00  0.00    -0.071 C 
ATOM    162  H86 VAL d   1      -8.068  -6.125  17.794  0.00  0.00     0.028 H 
ATOM    163  H87 VAL d   1      -6.751  -6.667  16.699  0.00  0.00     0.028 H 
ATOM    164  H88 VAL d   1      -7.375  -7.773  17.970  0.00  0.00     0.028 H 
ENDBRANCH 155 161
ENDBRANCH   7 155
ENDBRANCH   4   7
ENDBRANCH   1   3
BRANCH   1 165
ATOM    165  C   GLN d   1     -12.379  -7.163  12.391  0.00  0.00     0.241 C 
ATOM    166  O   GLN d   1     -12.489  -7.513  11.221  0.00  0.00    -0.271 OA
ATOM    167  N   ALA d   1     -12.585  -5.914  12.801  0.00  0.00    -0.346 N 
ATOM    168  H97 ALA d   1     -12.486  -5.696  13.772  0.00  0.00     0.163 HD
BRANCH 167 169
ATOM    169  CA  ALA d   1     -12.951  -4.858  11.869  0.00  0.00     0.086 C 
ATOM    170  H98 ALA d   1     -13.853  -5.167  11.320  0.00  0.00     0.086 H 
BRANCH 169 171
ATOM    171  C   ALA d   1     -11.823  -4.648  10.872  0.00  0.00     0.240 C 
ATOM    172  O   ALA d   1     -12.054  -4.595   9.668  0.00  0.00    -0.271 OA
ATOM    173  N   HIS d   1     -10.595  -4.549  11.362  0.00  0.00    -0.346 N 
ATOM    174 2H10 HIS d   1     -10.441  -4.641  12.346  0.00  0.00     0.163 HD
BRANCH 173 175
ATOM    175  CA  HIS d   1      -9.466  -4.305  10.467  0.00  0.00     0.094 C 
ATOM    176 3H10 HIS d   1      -9.763  -3.492   9.788  0.00  0.00     0.088 H 
BRANCH 175 177
ATOM    177  C   HIS d   1      -9.130  -5.515   9.595  0.00  0.00     0.241 C 
ATOM    178  O   HIS d   1      -8.653  -5.353   8.468  0.00  0.00    -0.271 OA
ATOM    179  N   ILE d   1      -9.389  -6.719  10.110  0.00  0.00    -0.346 N 
ATOM    180 9H10 ILE d   1      -9.693  -6.790  11.060  0.00  0.00     0.163 HD
BRANCH 179 181
ATOM    181  CA  ILE d   1      -9.237  -7.944   9.309  0.00  0.00     0.092 C 
ATOM    182 0H11 ILE d   1      -8.213  -7.954   8.908  0.00  0.00     0.088 H 
BRANCH 181 183
ATOM    183  C   ILE d   1     -10.207  -7.944   8.120  0.00  0.00     0.241 C 
ATOM    184  O   ILE d   1      -9.804  -8.211   6.982  0.00  0.00    -0.271 OA
ATOM    185  N   ARG d   1     -11.472  -7.623   8.372  0.00  0.00    -0.346 N 
ATOM    186 0H12 ARG d   1     -11.755  -7.458   9.317  0.00  0.00     0.163 HD
BRANCH 185 187
ATOM    187  CA  ARG d   1     -12.460  -7.506   7.298  0.00  0.00     0.089 C 
ATOM    188 1H12 ARG d   1     -12.454  -8.454   6.740  0.00  0.00     0.087 H 
BRANCH 187 189
ATOM    189  C   ARG d   1     -12.106  -6.397   6.311  0.00  0.00     0.241 C 
ATOM    190  O   ARG d   1     -12.331  -6.546   5.106  0.00  0.00    -0.271 OA
ATOM    191  N   LYS d   1     -11.549  -5.296   6.818  0.00  0.00    -0.346 N 
ATOM    192 3H13 LYS d   1     -11.449  -5.214   7.810  0.00  0.00     0.163 HD
BRANCH 191 193
ATOM    193  CA  LYS d   1     -11.080  -4.206   5.963  0.00  0.00     0.089 C 
ATOM    194 4H13 LYS d   1     -11.917  -3.850   5.344  0.00  0.00     0.087 H 
BRANCH 193 195
ATOM    195  C   LYS d   1      -9.970  -4.724   5.054  0.00  0.00     0.241 C 
ATOM    196  O   LYS d   1     -10.030  -4.553   3.837  0.00  0.00    -0.271 OA
ATOM    197  N   LYS d   1      -8.964  -5.362   5.650  0.00  0.00    -0.346 N 
ATOM    198 6H14 LYS d   1      -8.980  -5.469   6.644  0.00  0.00     0.163 HD
BRANCH 197 199
ATOM    199  CA  LYS d   1      -7.834  -5.913   4.896  0.00  0.00     0.089 C 
ATOM    200 7H14 LYS d   1      -7.331  -5.072   4.396  0.00  0.00     0.087 H 
BRANCH 199 201
ATOM    201  C   LYS d   1      -8.258  -6.912   3.815  0.00  0.00     0.241 C 
ATOM    202  O   LYS d   1      -7.686  -6.921   2.725  0.00  0.00    -0.271 OA
ATOM    203  N   MET d   1      -9.254  -7.747   4.112  0.00  0.00    -0.346 N 
ATOM    204 9H15 MET d   1      -9.755  -7.631   4.970  0.00  0.00     0.163 HD
BRANCH 203 205
ATOM    205  CA  MET d   1      -9.625  -8.828   3.203  0.00  0.00     0.090 C 
ATOM    206 0H16 MET d   1      -8.725  -9.105   2.635  0.00  0.00     0.087 H 
BRANCH 205 207
ATOM    207  C   MET d   1     -10.707  -8.422   2.203  0.00  0.00     0.241 C 
ATOM    208  O   MET d   1     -11.225  -9.272   1.475  0.00  0.00    -0.271 OA
ATOM    209  N   VAL d   1     -11.033  -7.133   2.148  0.00  0.00    -0.344 N 
ATOM    210 8H16 VAL d   1     -10.471  -6.461   2.630  0.00  0.00     0.163 HD
BRANCH 209 211
ATOM    211  CA  VAL d   1     -12.204  -6.684   1.391  0.00  0.00     0.099 C 
ATOM    212 9H16 VAL d   1     -13.064  -7.247   1.782  0.00  0.00     0.090 H 
BRANCH 211 213
ATOM    213  C   VAL d   1     -12.125  -6.978  -0.114  0.00  0.00     0.197 C 
ATOM    214  O   VAL d   1     -11.016  -7.066  -0.706  0.00  0.00    -0.646 OA
ATOM    215  O   VAL d   1     -13.189  -7.135  -0.770  0.00  0.00    -0.646 OA
ENDBRANCH 211 213
BRANCH 211 216
ATOM    216  CB  VAL d   1     -12.493  -5.190   1.618  0.00  0.00    -0.032 C 
ATOM    217 0H17 VAL d   1     -12.429  -4.978   2.696  0.00  0.00     0.042 H 
BRANCH 216 218
ATOM    218  CG1 VAL d   1     -11.479  -4.335   0.892  0.00  0.00    -0.071 C 
ATOM    219 1H17 VAL d   1     -11.703  -3.272   1.067  0.00  0.00     0.028 H 
ATOM    220 2H17 VAL d   1     -11.526  -4.547  -0.186  0.00  0.00     0.028 H 
ATOM    221 3H17 VAL d   1     -10.471  -4.564   1.267  0.00  0.00     0.028 H 
ENDBRANCH 216 218
BRANCH 216 222
ATOM    222  CG2 VAL d   1     -13.877  -4.850   1.135  0.00  0.00    -0.071 C 
ATOM    223 4H17 VAL d   1     -14.613  -5.473   1.664  0.00  0.00     0.028 H 
ATOM    224 5H17 VAL d   1     -13.945  -5.040   0.054  0.00  0.00     0.028 H 
ATOM    225 6H17 VAL d   1     -14.084  -3.788   1.334  0.00  0.00     0.028 H 
ENDBRANCH 216 222
ENDBRANCH 211 216
ENDBRANCH 209 211
ENDBRANCH 205 207
BRANCH 205 226
ATOM    226  CB  MET d   1     -10.106 -10.064   3.979  0.00  0.00    -0.030 C 
ATOM    227 1H16 MET d   1     -10.185 -10.900   3.269  0.00  0.00     0.037 H 
ATOM    228 2H16 MET d   1     -11.100  -9.839   4.392  0.00  0.00     0.037 H 
BRANCH 226 229
ATOM    229  CG  MET d   1      -9.209 -10.507   5.129  0.00  0.00    -0.021 C 
ATOM    230 3H16 MET d   1      -9.292 -11.600   5.227  0.00  0.00     0.049 H 
ATOM    231 4H16 MET d   1      -9.571 -10.028   6.051  0.00  0.00     0.049 H 
BRANCH 229 232
ATOM    232  SD  MET d   1      -7.474 -10.093   4.927  0.00  0.00    -0.173 SA
BRANCH 232 233
ATOM    233  CE  MET d   1      -6.935 -11.382   3.823  0.00  0.00    -0.035 C 
ATOM    234 5H16 MET d   1      -5.864 -11.254   3.605  0.00  0.00     0.041 H 
ATOM    235 6H16 MET d   1      -7.509 -11.327   2.886  0.00  0.00     0.041 H 
ATOM    236 7H16 MET d   1      -7.098 -12.362   4.296  0.00  0.00     0.041 H 
ENDBRANCH 232 233
ENDBRANCH 229 232
ENDBRANCH 226 229
ENDBRANCH 205 226
ENDBRANCH 203 205
ENDBRANCH 199 201
BRANCH 199 237
ATOM    237  CB  LYS d   1      -6.821  -6.587   5.836  0.00  0.00    -0.038 C 
ATOM    238 8H14 LYS d   1      -6.299  -7.372   5.270  0.00  0.00     0.036 H 
ATOM    239 9H14 LYS d   1      -7.378  -7.043   6.668  0.00  0.00     0.036 H 
BRANCH 237 240
ATOM    240  CG  LYS d   1      -5.766  -5.646   6.428  0.00  0.00    -0.061 C 
ATOM    241 0H15 LYS d   1      -4.957  -6.244   6.872  0.00  0.00     0.033 H 
ATOM    242 1H15 LYS d   1      -6.232  -5.025   7.207  0.00  0.00     0.033 H 
BRANCH 240 243
ATOM    243  CD  LYS d   1      -5.183  -4.738   5.342  0.00  0.00    -0.043 C 
ATOM    244 2H15 LYS d   1      -5.852  -3.874   5.212  0.00  0.00     0.035 H 
ATOM    245 3H15 LYS d   1      -5.131  -5.306   4.402  0.00  0.00     0.035 H 
BRANCH 243 246
ATOM    246  CE  LYS d   1      -3.789  -4.225   5.676  0.00  0.00     0.080 C 
ATOM    247 4H15 LYS d   1      -3.752  -3.955   6.742  0.00  0.00     0.075 H 
ATOM    248 5H15 LYS d   1      -3.578  -3.335   5.064  0.00  0.00     0.075 H 
BRANCH 246 249
ATOM    249  NZ  LYS d   1      -2.757  -5.257   5.402  0.00  0.00    -0.079 N 
ATOM    250 6H15 LYS d   1      -1.846  -4.891   5.632  0.00  0.00     0.274 HD
ATOM    251 7H15 LYS d   1      -2.782  -5.507   4.426  0.00  0.00     0.274 HD
ATOM    252 8H15 LYS d   1      -2.942  -6.074   5.963  0.00  0.00     0.274 HD
ENDBRANCH 246 249
ENDBRANCH 243 246
ENDBRANCH 240 243
ENDBRANCH 237 240
ENDBRANCH 199 237
ENDBRANCH 197 199
ENDBRANCH 193 195
BRANCH 193 253
ATOM    253  CB  LYS d   1     -10.558  -3.037   6.813  0.00  0.00    -0.038 C 
ATOM    254 5H13 LYS d   1      -9.820  -3.434   7.526  0.00  0.00     0.036 H 
ATOM    255 6H13 LYS d   1     -11.407  -2.608   7.365  0.00  0.00     0.036 H 
BRANCH 253 256
ATOM    256  CG  LYS d   1      -9.889  -1.909   6.009  0.00  0.00    -0.061 C 
ATOM    257 7H13 LYS d   1     -10.668  -1.243   5.608  0.00  0.00     0.033 H 
ATOM    258 8H13 LYS d   1      -9.320  -2.350   5.177  0.00  0.00     0.033 H 
BRANCH 256 259
ATOM    259  CD  LYS d   1      -8.932  -1.088   6.893  0.00  0.00    -0.043 C 
ATOM    260 9H13 LYS d   1      -9.430  -0.861   7.847  0.00  0.00     0.035 H 
ATOM    261 0H14 LYS d   1      -8.683  -0.149   6.377  0.00  0.00     0.035 H 
BRANCH 259 262
ATOM    262  CE  LYS d   1      -7.640  -1.863   7.174  0.00  0.00     0.080 C 
ATOM    263 1H14 LYS d   1      -7.079  -1.960   6.233  0.00  0.00     0.075 H 
ATOM    264 2H14 LYS d   1      -7.907  -2.863   7.547  0.00  0.00     0.075 H 
BRANCH 262 265
ATOM    265  NZ  LYS d   1      -6.755  -1.195   8.190  0.00  0.00    -0.079 N 
ATOM    266 3H14 LYS d   1      -5.926  -1.751   8.330  0.00  0.00     0.274 HD
ATOM    267 4H14 LYS d   1      -7.252  -1.107   9.062  0.00  0.00     0.274 HD
ATOM    268 5H14 LYS d   1      -6.494  -0.280   7.858  0.00  0.00     0.274 HD
ENDBRANCH 262 265
ENDBRANCH 259 262
ENDBRANCH 256 259
ENDBRANCH 253 256
ENDBRANCH 193 253
ENDBRANCH 191 193
ENDBRANCH 187 189
BRANCH 187 269
ATOM    269  CB  ARG d   1     -13.872  -7.317   7.873  0.00  0.00    -0.036 C 
ATOM    270 2H12 ARG d   1     -14.515  -6.894   7.087  0.00  0.00     0.036 H 
ATOM    271 3H12 ARG d   1     -13.814  -6.614   8.717  0.00  0.00     0.036 H 
BRANCH 269 272
ATOM    272  CG  ARG d   1     -14.506  -8.625   8.371  0.00  0.00    -0.048 C 
ATOM    273 4H12 ARG d   1     -13.954  -8.975   9.255  0.00  0.00     0.035 H 
ATOM    274 5H12 ARG d   1     -14.438  -9.380   7.574  0.00  0.00     0.035 H 
BRANCH 272 275
ATOM    275  CD  ARG d   1     -15.978  -8.433   8.749  0.00  0.00     0.009 C 
ATOM    276 6H12 ARG d   1     -16.540  -8.137   7.851  0.00  0.00     0.064 H 
ATOM    277 7H12 ARG d   1     -16.050  -7.637   9.505  0.00  0.00     0.064 H 
BRANCH 275 278
ATOM    278  NE  ARG d   1     -16.567  -9.654   9.292  0.00  0.00    -0.227 N 
ATOM    279  CZ  ARG d   1     -16.628  -9.949  10.590  0.00  0.00     0.665 C 
ATOM    280  NH1 ARG d   1     -16.140  -9.102  11.499  0.00  0.00    -0.235 N 
ATOM    281  NH2 ARG d   1     -17.180 -11.099  10.978  0.00  0.00    -0.235 N 
ATOM    282 9H12 ARG d   1     -16.190  -9.336  12.501  0.00  0.00     0.174 HD
ATOM    283 0H13 ARG d   1     -15.713  -8.214  11.199  0.00  0.00     0.174 HD
ATOM    284 1H13 ARG d   1     -17.556 -11.752  10.276  0.00  0.00     0.174 HD
ATOM    285 2H13 ARG d   1     -17.230 -11.334  11.979  0.00  0.00     0.174 HD
ATOM    286 8H12 ARG d   1     -16.962 -10.333   8.626  0.00  0.00     0.177 HD
ENDBRANCH 275 278
ENDBRANCH 272 275
ENDBRANCH 269 272
ENDBRANCH 187 269
ENDBRANCH 185 187
ENDBRANCH 181 183
BRANCH 181 287
ATOM    287  CB  ILE d   1      -9.415  -9.215  10.160  0.00  0.00    -0.030 C 
ATOM    288 1H11 ILE d   1     -10.312  -9.099  10.786  0.00  0.00     0.043 H 
BRANCH 287 289
ATOM    289  CG1 ILE d   1      -8.198  -9.409  11.068  0.00  0.00    -0.063 C 
ATOM    290 2H11 ILE d   1      -8.055  -8.488  11.652  0.00  0.00     0.033 H 
ATOM    291 3H11 ILE d   1      -7.318  -9.579  10.431  0.00  0.00     0.033 H 
BRANCH 289 292
ATOM    292  CD1 ILE d   1      -8.313 -10.572  12.037  0.00  0.00    -0.076 C 
ATOM    293 7H11 ILE d   1      -7.398 -10.634  12.645  0.00  0.00     0.027 H 
ATOM    294 8H11 ILE d   1      -8.443 -11.508  11.473  0.00  0.00     0.027 H 
ATOM    295 9H11 ILE d   1      -9.181 -10.417  12.695  0.00  0.00     0.027 H 
ENDBRANCH 289 292
ENDBRANCH 287 289
BRANCH 287 296
ATOM    296  CG2 ILE d   1      -9.596 -10.445   9.263  0.00  0.00    -0.071 C 
ATOM    297 4H11 ILE d   1     -10.472 -10.299   8.613  0.00  0.00     0.028 H 
ATOM    298 5H11 ILE d   1      -9.748 -11.336   9.889  0.00  0.00     0.028 H 
ATOM    299 6H11 ILE d   1      -8.698 -10.582   8.643  0.00  0.00     0.028 H 
ENDBRANCH 287 296
ENDBRANCH 181 287
ENDBRANCH 179 181
ENDBRANCH 175 177
BRANCH 175 300
ATOM    300  CB  HIS d   1      -8.243  -3.823  11.246  0.00  0.00     0.004 C 
ATOM    301 4H10 HIS d   1      -7.351  -3.962  10.618  0.00  0.00     0.046 H 
ATOM    302 5H10 HIS d   1      -8.147  -4.430  12.158  0.00  0.00     0.046 H 
BRANCH 300 303
ATOM    303  CG  HIS d   1      -8.328  -2.382  11.640  0.00  0.00     0.053 A 
ATOM    304  ND1 HIS d   1      -8.069  -1.357  10.759  0.00  0.00    -0.247 NA
ATOM    305  CE1 HIS d   1      -8.240  -0.196  11.368  0.00  0.00     0.064 A 
ATOM    306  NE2 HIS d   1      -8.614  -0.434  12.611  0.00  0.00    -0.359 N 
ATOM    307 7H10 HIS d   1      -8.097   0.787  10.921  0.00  0.00     0.143 H 
ATOM    308  CD2 HIS d   1      -8.675  -1.792  12.811  0.00  0.00     0.002 A 
ATOM    309 8H10 HIS d   1      -8.826   0.284  13.319  0.00  0.00     0.166 HD
ATOM    310 6H10 HIS d   1      -8.950  -2.299  13.735  0.00  0.00     0.114 H 
ENDBRANCH 300 303
ENDBRANCH 175 300
ENDBRANCH 173 175
ENDBRANCH 169 171
BRANCH 169 311
ATOM    311  CB  ALA d   1     -13.261  -3.567  12.624  0.00  0.00    -0.049 C 
ATOM    312  H99 ALA d   1     -13.536  -2.780  11.907  0.00  0.00     0.030 H 
ATOM    313 0H10 ALA d   1     -12.373  -3.252  13.192  0.00  0.00     0.030 H 
ATOM    314 1H10 ALA d   1     -14.098  -3.739  13.317  0.00  0.00     0.030 H 
ENDBRANCH 169 311
ENDBRANCH 167 169
ENDBRANCH   1 165
BRANCH   1 315
ATOM    315  CB  GLN d   1     -13.225  -8.760  14.139  0.00  0.00    -0.030 C 
ATOM    316  H91 GLN d   1     -13.880  -9.166  13.354  0.00  0.00     0.037 H 
ATOM    317  H92 GLN d   1     -13.750  -7.955  14.674  0.00  0.00     0.037 H 
BRANCH 315 318
ATOM    318  CG  GLN d   1     -12.914  -9.890  15.146  0.00  0.00     0.011 C 
ATOM    319  H93 GLN d   1     -12.050  -9.592  15.758  0.00  0.00     0.047 H 
ATOM    320  H94 GLN d   1     -12.670 -10.806  14.588  0.00  0.00     0.047 H 
BRANCH 318 321
ATOM    321  CD  GLN d   1     -14.092 -10.176  16.067  0.00  0.00     0.215 C 
ATOM    322  OE1 GLN d   1     -14.801  -9.255  16.474  0.00  0.00    -0.274 OA
ATOM    323  NE2 GLN d   1     -14.292 -11.459  16.420  0.00  0.00    -0.370 N 
ATOM    324  H95 GLN d   1     -15.053 -11.699  17.023  0.00  0.00     0.159 HD
ATOM    325  H96 GLN d   1     -13.680 -12.173  16.079  0.00  0.00     0.159 HD
ENDBRANCH 318 321
ENDBRANCH 315 318
ENDBRANCH   1 315
TORSDOF 94
