REMARK  10 active torsions:
REMARK  status: ('A' for Active; 'I' for Inactive)
REMARK    1  A    between atoms: CAY_3  and  CAZ_4 
REMARK    2  A    between atoms: CAM_7  and  CAL_8 
REMARK       I    between atoms: CAL_8  and  NAK_10 
REMARK    3  A    between atoms: NAK_10  and  CAU_11 
REMARK    4  A    between atoms: NAK_10  and  CAJ_12 
REMARK    5  A    between atoms: CAJ_12  and  CAB_13 
REMARK    6  A    between atoms: CAJ_12  and  CAI_16 
REMARK    7  A    between atoms: CAB_13  and  CAA_14 
REMARK    8  A    between atoms: CAB_13  and  CAC_15 
REMARK    9  A    between atoms: NAT_27  and  CBB_28 
REMARK   10  A    between atoms: CBB_28  and  CBG_29 
ROOT
ATOM      1  CAJ G7X d   1       8.036   1.754  30.192  0.00  0.00     0.075 C 
ATOM      2  H   G7X d   1       8.898   2.341  29.875  0.00  0.00     0.085 H 
ENDROOT
BRANCH   1   3
ATOM      3  NAK G7X d   1       7.989   1.749  31.663  0.00  0.00    -0.340 N 
ATOM      4  CAL G7X d   1       8.853   2.407  32.425  0.00  0.00     0.254 C 
ATOM      5  OAV G7X d   1       8.769   2.392  33.652  0.00  0.00    -0.267 OA
BRANCH   4   6
ATOM      6  CAM G7X d   1       9.994   3.185  31.753  0.00  0.00     0.032 A 
ATOM      7  CAN G7X d   1      11.167   2.550  31.344  0.00  0.00    -0.067 A 
ATOM      8  CAO G7X d   1      12.199   3.293  30.755  0.00  0.00    -0.076 A 
ATOM      9  H   G7X d   1      11.281   1.475  31.483  0.00  0.00     0.085 H 
ATOM     10  CAY G7X d   1      12.067   4.673  30.599  0.00  0.00    -0.062 A 
ATOM     11  H   G7X d   1      13.106   2.792  30.418  0.00  0.00     0.084 H 
ATOM     12  CAX G7X d   1      10.897   5.301  31.022  0.00  0.00    -0.076 A 
ATOM     13  CAW G7X d   1       9.870   4.564  31.604  0.00  0.00    -0.067 A 
ATOM     14  H   G7X d   1      10.785   6.378  30.896  0.00  0.00     0.084 H 
ATOM     15  H   G7X d   1       8.965   5.068  31.944  0.00  0.00     0.085 H 
BRANCH  10  16
ATOM     16  CAZ G7X d   1      13.196   5.524  29.968  0.00  0.00    -0.051 C 
ATOM     17  H   G7X d   1      12.818   6.023  29.076  0.00  0.00     0.033 H 
ATOM     18  H   G7X d   1      13.533   6.270  30.688  0.00  0.00     0.033 H 
ATOM     19  H   G7X d   1      14.030   4.876  29.697  0.00  0.00     0.033 H 
ENDBRANCH  10  16
ENDBRANCH   4   6
BRANCH   3  20
ATOM     20  CAU G7X d   1       6.871   1.009  32.291  0.00  0.00    -0.015 C 
ATOM     21  H   G7X d   1       7.271   0.247  32.959  0.00  0.00     0.056 H 
ATOM     22  H   G7X d   1       6.251   1.703  32.859  0.00  0.00     0.056 H 
ATOM     23  H   G7X d   1       6.270   0.534  31.515  0.00  0.00     0.056 H 
ENDBRANCH   3  20
ENDBRANCH   1   3
BRANCH   1  24
ATOM     24  CAB G7X d   1       6.734   2.346  29.648  0.00  0.00    -0.034 C 
ATOM     25  H   G7X d   1       5.906   1.756  30.040  0.00  0.00     0.042 H 
BRANCH  24  26
ATOM     26  CAA G7X d   1       6.513   3.794  30.120  0.00  0.00    -0.071 C 
ATOM     27  H   G7X d   1       6.468   3.817  31.209  0.00  0.00     0.028 H 
ATOM     28  H   G7X d   1       7.339   4.417  29.776  0.00  0.00     0.028 H 
ATOM     29  H   G7X d   1       5.577   4.170  29.708  0.00  0.00     0.028 H 
ENDBRANCH  24  26
BRANCH  24  30
ATOM     30  CAC G7X d   1       6.740   2.274  28.130  0.00  0.00    -0.071 C 
ATOM     31  H   G7X d   1       7.587   2.841  27.744  0.00  0.00     0.028 H 
ATOM     32  H   G7X d   1       6.825   1.233  27.817  0.00  0.00     0.028 H 
ATOM     33  H   G7X d   1       5.812   2.696  27.744  0.00  0.00     0.028 H 
ENDBRANCH  24  30
ENDBRANCH   1  24
BRANCH   1  34
ATOM     34  CAI G7X d   1       8.148   0.324  29.663  0.00  0.00     0.133 A 
ATOM     35  NAH G7X d   1       7.081  -0.494  29.864  0.00  0.00    -0.232 NA
ATOM     36  CAG G7X d   1       7.088  -1.780  29.428  0.00  0.00     0.076 A 
ATOM     37  CAF G7X d   1       5.993  -2.605  29.657  0.00  0.00    -0.033 A 
ATOM     38  CAR G7X d   1       8.190  -2.303  28.745  0.00  0.00     0.061 A 
ATOM     39  CAE G7X d   1       5.994  -3.924  29.211  0.00  0.00     0.036 A 
ATOM     40  H   G7X d   1       5.126  -2.216  30.191  0.00  0.00     0.089 H 
ATOM     41 CLD  G7X d   1       4.616  -4.930  29.497  0.00  0.00    -0.084 Cl
ATOM     42  CAP G7X d   1       7.093  -4.437  28.529  0.00  0.00    -0.061 A 
ATOM     43  CAQ G7X d   1       8.193  -3.620  28.297  0.00  0.00    -0.064 A 
ATOM     44  H   G7X d   1       7.091  -5.470  28.180  0.00  0.00     0.086 H 
ATOM     45  H   G7X d   1       9.059  -4.012  27.763  0.00  0.00     0.085 H 
ATOM     46  CAS G7X d   1       9.297  -1.496  28.516  0.00  0.00     0.262 A 
ATOM     47  OBA G7X d   1      10.269  -1.925  27.908  0.00  0.00    -0.267 OA
ATOM     48  NAT G7X d   1       9.289  -0.180  28.972  0.00  0.00    -0.295 N 
BRANCH  48  49
ATOM     49  CBB G7X d   1      10.459   0.652  28.695  0.00  0.00     0.028 C 
ATOM     50  H   G7X d   1      11.312   0.011  28.471  0.00  0.00     0.072 H 
ATOM     51  H   G7X d   1      10.679   1.267  29.568  0.00  0.00     0.072 H 
BRANCH  49  52
ATOM     52  CBG G7X d   1      10.176   1.564  27.487  0.00  0.00    -0.040 A 
ATOM     53  CBH G7X d   1      10.471   2.928  27.572  0.00  0.00    -0.075 A 
ATOM     54  CBK G7X d   1      10.230   3.761  26.472  0.00  0.00    -0.082 A 
ATOM     55  H   G7X d   1      10.887   3.342  28.491  0.00  0.00     0.084 H 
ATOM     56  CBJ G7X d   1       9.694   3.226  25.302  0.00  0.00    -0.083 A 
ATOM     57  H   G7X d   1      10.461   4.825  26.531  0.00  0.00     0.083 H 
ATOM     58  CBI G7X d   1       9.406   1.866  25.202  0.00  0.00    -0.082 A 
ATOM     59  H   G7X d   1       9.497   3.881  24.453  0.00  0.00     0.083 H 
ATOM     60  CBF G7X d   1       9.662   1.034  26.302  0.00  0.00    -0.075 A 
ATOM     61  H   G7X d   1       8.988   1.455  24.283  0.00  0.00     0.083 H 
ATOM     62  H   G7X d   1       9.458  -0.034  26.231  0.00  0.00     0.084 H 
ENDBRANCH  49  52
ENDBRANCH  48  49
ENDBRANCH   1  34
TORSDOF 10
