REMARK  29 active torsions:
REMARK  status: ('A' for Active; 'I' for Inactive)
REMARK    1  A    between atoms: N_1  and  CA_2 
REMARK    2  A    between atoms: CA_2  and  C_3 
REMARK    3  A    between atoms: CA_2  and  CB_5 
REMARK       I    between atoms: C_3  and  N_6 
REMARK    4  A    between atoms: N_6  and  CA_7 
REMARK    5  A    between atoms: CA_7  and  C_8 
REMARK    6  A    between atoms: CA_7  and  CB_10 
REMARK       I    between atoms: C_8  and  N_17 
REMARK    7  A    between atoms: CB_10  and  CG_11 
REMARK    8  A    between atoms: CG_11  and  CD_12 
REMARK    9  A    between atoms: CD_12  and  NE_13 
REMARK       I    between atoms: NE_13  and  CZ_14 
REMARK       I    between atoms: CZ_14  and  NH1_15 
REMARK   10  A    between atoms: N_17  and  CA_18 
REMARK   11  A    between atoms: CA_18  and  C_19 
REMARK   12  A    between atoms: CA_18  and  CB_21 
REMARK       I    between atoms: C_19  and  N_24 
REMARK   13  A    between atoms: CB_21  and  CG1_22 
REMARK   14  A    between atoms: CB_21  and  CG2_23 
REMARK   15  A    between atoms: N_24  and  CA_25 
REMARK   16  A    between atoms: CA_25  and  C_26 
REMARK   17  A    between atoms: CA_25  and  CB_28 
REMARK       I    between atoms: C_26  and  N_36 
REMARK   18  A    between atoms: CB_28  and  CG_29 
REMARK   19  A    between atoms: CZ_34  and  OH_35 
REMARK   20  A    between atoms: N_36  and  CA_37 
REMARK   21  A    between atoms: CA_37  and  C_38 
REMARK   22  A    between atoms: CA_37  and  CB_40 
REMARK       I    between atoms: C_38  and  N_44 
REMARK   23  A    between atoms: CB_40  and  CG1_41 
REMARK   24  A    between atoms: CB_40  and  CG2_42 
REMARK   25  A    between atoms: CG1_41  and  CD1_43 
REMARK   26  A    between atoms: N_44  and  CA_45 
REMARK   27  A    between atoms: CA_45  and  C_46 
REMARK   28  A    between atoms: CA_45  and  CB_48 
REMARK       I    between atoms: C_46  and  N_54 
REMARK   29  A    between atoms: CB_48  and  CG_49 
ROOT
ATOM      1  CA  TYR d   1      13.355  -6.714 -17.908  0.00  0.00     0.093 C 
ATOM      2  H31 TYR d   1      13.818  -7.426 -17.209  0.00  0.00     0.088 H 
ENDROOT
BRANCH   1   3
ATOM      3  N   TYR d   1      13.332  -5.409 -17.240  0.00  0.00    -0.346 N 
ATOM      4  C   VAL d   1      14.084  -5.147 -16.174  0.00  0.00     0.241 C 
ATOM      5  O   VAL d   1      15.001  -5.879 -15.804  0.00  0.00    -0.271 OA
ATOM      6  H30 TYR d   1      12.732  -4.693 -17.597  0.00  0.00     0.163 HD
BRANCH   4   7
ATOM      7  CA  VAL d   1      13.759  -3.863 -15.410  0.00  0.00     0.092 C 
ATOM      8  H22 VAL d   1      12.759  -3.520 -15.714  0.00  0.00     0.088 H 
BRANCH   7   9
ATOM      9  N   VAL d   1      13.738  -4.137 -13.983  0.00  0.00    -0.346 N 
ATOM     10  C   ARG d   1      12.739  -3.714 -13.216  0.00  0.00     0.241 C 
ATOM     11  O   ARG d   1      11.775  -3.087 -13.656  0.00  0.00    -0.271 OA
ATOM     12  H21 VAL d   1      14.489  -4.653 -13.571  0.00  0.00     0.163 HD
BRANCH  10  13
ATOM     13  CA  ARG d   1      12.829  -4.055 -11.739  0.00  0.00     0.089 C 
ATOM     14  H9  ARG d   1      13.848  -4.392 -11.500  0.00  0.00     0.087 H 
BRANCH  13  15
ATOM     15  N   ARG d   1      12.516  -2.873 -10.950  0.00  0.00    -0.346 N 
ATOM     16  C   ASP d   1      13.373  -2.365 -10.070  0.00  0.00     0.248 C 
ATOM     17  O   ASP d   1      14.478  -2.859  -9.842  0.00  0.00    -0.271 OA
ATOM     18  H8  ARG d   1      11.629  -2.429 -11.074  0.00  0.00     0.163 HD
BRANCH  16  19
ATOM     19  CA  ASP d   1      12.912  -1.113  -9.337  0.00  0.00     0.172 C 
ATOM     20  H4  ASP d   1      13.024  -1.282  -8.256  0.00  0.00     0.098 H 
BRANCH  19  21
ATOM     21  N   ASP d   1      13.748   0.063  -9.719  0.00  0.00    -0.067 N 
ATOM     22  H1  ASP d   1      13.426   0.879  -9.223  0.00  0.00     0.275 HD
ATOM     23  H2  ASP d   1      13.672   0.221 -10.712  0.00  0.00     0.275 HD
ATOM     24  H3  ASP d   1      14.711  -0.117  -9.480  0.00  0.00     0.275 HD
ENDBRANCH  19  21
BRANCH  19  25
ATOM     25  CB  ASP d   1      11.434  -0.840  -9.636  0.00  0.00    -0.042 C 
ATOM     26  H5  ASP d   1      10.834  -1.716  -9.349  0.00  0.00     0.030 H 
ATOM     27  H6  ASP d   1      11.307  -0.645 -10.711  0.00  0.00     0.030 H 
ATOM     28  H7  ASP d   1      11.100   0.037  -9.063  0.00  0.00     0.030 H 
ENDBRANCH  19  25
ENDBRANCH  16  19
ENDBRANCH  13  15
BRANCH  13  29
ATOM     29  CB  ARG d   1      11.841  -5.173 -11.430  0.00  0.00    -0.036 C 
ATOM     30  H10 ARG d   1      12.376  -6.133 -11.480  0.00  0.00     0.036 H 
ATOM     31  H11 ARG d   1      11.048  -5.155 -12.192  0.00  0.00     0.036 H 
BRANCH  29  32
ATOM     32  CG  ARG d   1      11.197  -5.058 -10.071  0.00  0.00    -0.048 C 
ATOM     33  H12 ARG d   1      10.982  -4.000  -9.860  0.00  0.00     0.035 H 
ATOM     34  H13 ARG d   1      11.886  -5.452  -9.309  0.00  0.00     0.035 H 
BRANCH  32  35
ATOM     35  CD  ARG d   1       9.905  -5.847 -10.031  0.00  0.00     0.009 C 
ATOM     36  H14 ARG d   1       9.384  -5.622  -9.089  0.00  0.00     0.064 H 
ATOM     37  H15 ARG d   1      10.146  -6.920 -10.069  0.00  0.00     0.064 H 
BRANCH  35  38
ATOM     38  NE  ARG d   1       9.018  -5.527 -11.144  0.00  0.00    -0.227 N 
ATOM     39  CZ  ARG d   1       7.737  -5.879 -11.197  0.00  0.00     0.665 C 
ATOM     40  NH1 ARG d   1       7.195  -6.549 -10.191  0.00  0.00    -0.235 N 
ATOM     41  NH2 ARG d   1       6.999  -5.554 -12.251  0.00  0.00    -0.235 N 
ATOM     42  H17 ARG d   1       6.203  -6.823 -10.230  0.00  0.00     0.174 HD
ATOM     43  H18 ARG d   1       7.766  -6.796  -9.370  0.00  0.00     0.174 HD
ATOM     44  H19 ARG d   1       7.420  -5.033 -13.034  0.00  0.00     0.174 HD
ATOM     45  H20 ARG d   1       6.005  -5.823 -12.287  0.00  0.00     0.174 HD
ATOM     46  H16 ARG d   1       9.408  -4.997 -11.936  0.00  0.00     0.177 HD
ENDBRANCH  35  38
ENDBRANCH  32  35
ENDBRANCH  29  32
ENDBRANCH  13  29
ENDBRANCH  10  13
ENDBRANCH   7   9
BRANCH   7  47
ATOM     47  CB  VAL d   1      14.768  -2.754 -15.744  0.00  0.00    -0.033 C 
ATOM     48  H23 VAL d   1      15.703  -3.213 -16.096  0.00  0.00     0.042 H 
BRANCH  47  49
ATOM     49  CG1 VAL d   1      14.214  -1.859 -16.830  0.00  0.00    -0.071 C 
ATOM     50  H24 VAL d   1      14.944  -1.069 -17.062  0.00  0.00     0.028 H 
ATOM     51  H25 VAL d   1      13.275  -1.401 -16.485  0.00  0.00     0.028 H 
ATOM     52  H26 VAL d   1      14.021  -2.456 -17.734  0.00  0.00     0.028 H 
ENDBRANCH  47  49
BRANCH  47  53
ATOM     53  CG2 VAL d   1      15.055  -1.921 -14.505  0.00  0.00    -0.071 C 
ATOM     54  H27 VAL d   1      15.458  -2.569 -13.713  0.00  0.00     0.028 H 
ATOM     55  H28 VAL d   1      14.124  -1.451 -14.156  0.00  0.00     0.028 H 
ATOM     56  H29 VAL d   1      15.790  -1.141 -14.750  0.00  0.00     0.028 H 
ENDBRANCH  47  53
ENDBRANCH   7  47
ENDBRANCH   4   7
ENDBRANCH   1   3
BRANCH   1  57
ATOM     57  C   TYR d   1      14.154  -6.775 -19.206  0.00  0.00     0.241 C 
ATOM     58  O   TYR d   1      15.245  -6.220 -19.303  0.00  0.00    -0.271 OA
ATOM     59  N   ILE d   1      13.597  -7.491 -20.184  0.00  0.00    -0.346 N 
ATOM     60  H39 ILE d   1      12.749  -7.981 -19.984  0.00  0.00     0.163 HD
BRANCH  59  61
ATOM     61  CA  ILE d   1      14.153  -7.601 -21.531  0.00  0.00     0.092 C 
ATOM     62  H40 ILE d   1      14.725  -6.693 -21.773  0.00  0.00     0.088 H 
BRANCH  61  63
ATOM     63  C   ILE d   1      12.995  -7.790 -22.491  0.00  0.00     0.241 C 
ATOM     64  O   ILE d   1      11.845  -7.905 -22.066  0.00  0.00    -0.271 OA
ATOM     65  N   HIS d   1      13.300  -7.841 -23.783  0.00  0.00    -0.346 N 
ATOM     66  H50 HIS d   1      14.257  -7.777 -24.065  0.00  0.00     0.163 HD
BRANCH  65  67
ATOM     67  CA  HIS d   1      12.264  -7.988 -24.794  0.00  0.00     0.094 C 
ATOM     68  H51 HIS d   1      11.467  -7.272 -24.544  0.00  0.00     0.088 H 
BRANCH  67  69
ATOM     69  C   HIS d   1      11.626  -9.379 -24.795  0.00  0.00     0.238 C 
ATOM     70  O   HIS d   1      10.548  -9.579 -25.354  0.00  0.00    -0.271 OA
ATOM     71  N   PRO d   1      12.160 -10.329 -24.219  0.00  0.00    -0.368 N 
ATOM     72  H57 PRO d   1      11.726 -11.230 -24.232  0.00  0.00     0.159 HD
ATOM     73  H58 PRO d   1      13.027 -10.199 -23.739  0.00  0.00     0.159 HD
ENDBRANCH  67  69
BRANCH  67  74
ATOM     74  CB  HIS d   1      12.796  -7.609 -26.182  0.00  0.00     0.004 C 
ATOM     75  H52 HIS d   1      13.160  -6.572 -26.138  0.00  0.00     0.046 H 
ATOM     76  H53 HIS d   1      11.964  -7.676 -26.898  0.00  0.00     0.046 H 
BRANCH  74  77
ATOM     77  CG  HIS d   1      13.913  -8.476 -26.681  0.00  0.00     0.053 A 
ATOM     78  ND1 HIS d   1      13.858  -9.136 -27.891  0.00  0.00    -0.247 NA
ATOM     79  CE1 HIS d   1      14.979  -9.809 -28.075  0.00  0.00     0.064 A 
ATOM     80  NE2 HIS d   1      15.761  -9.612 -27.029  0.00  0.00    -0.359 N 
ATOM     81  H55 HIS d   1      15.218 -10.423 -28.942  0.00  0.00     0.143 H 
ATOM     82  CD2 HIS d   1      15.119  -8.779 -26.143  0.00  0.00     0.002 A 
ATOM     83  H56 HIS d   1      16.699 -10.017 -26.898  0.00  0.00     0.166 HD
ATOM     84  H54 HIS d   1      15.507  -8.428 -25.188  0.00  0.00     0.114 H 
ENDBRANCH  74  77
ENDBRANCH  67  74
ENDBRANCH  65  67
ENDBRANCH  61  63
BRANCH  61  85
ATOM     85  CB  ILE d   1      15.038  -8.847 -21.702  0.00  0.00    -0.030 C 
ATOM     86  H41 ILE d   1      15.900  -8.579 -22.330  0.00  0.00     0.043 H 
BRANCH  85  87
ATOM     87  CG1 ILE d   1      14.253  -9.969 -22.396  0.00  0.00    -0.063 C 
ATOM     88  H42 ILE d   1      14.043  -9.657 -23.430  0.00  0.00     0.033 H 
ATOM     89  H43 ILE d   1      13.305 -10.113 -21.857  0.00  0.00     0.033 H 
BRANCH  87  90
ATOM     90  CD1 ILE d   1      14.987 -11.300 -22.438  0.00  0.00    -0.076 C 
ATOM     91  H47 ILE d   1      14.362 -12.047 -22.948  0.00  0.00     0.027 H 
ATOM     92  H48 ILE d   1      15.196 -11.636 -21.412  0.00  0.00     0.027 H 
ATOM     93  H49 ILE d   1      15.934 -11.179 -22.985  0.00  0.00     0.027 H 
ENDBRANCH  87  90
ENDBRANCH  85  87
BRANCH  85  94
ATOM     94  CG2 ILE d   1      15.542  -9.324 -20.378  0.00  0.00    -0.071 C 
ATOM     95  H44 ILE d   1      16.103  -8.516 -19.887  0.00  0.00     0.028 H 
ATOM     96  H45 ILE d   1      16.203 -10.191 -20.528  0.00  0.00     0.028 H 
ATOM     97  H46 ILE d   1      14.691  -9.617 -19.745  0.00  0.00     0.028 H 
ENDBRANCH  85  94
ENDBRANCH  61  85
ENDBRANCH  59  61
ENDBRANCH   1  57
BRANCH   1  98
ATOM     98  CB  TYR d   1      11.922  -7.172 -18.181  0.00  0.00    -0.014 C 
ATOM     99  H32 TYR d   1      11.957  -8.078 -18.804  0.00  0.00     0.043 H 
ATOM    100  H33 TYR d   1      11.397  -6.373 -18.725  0.00  0.00     0.043 H 
BRANCH  98 101
ATOM    101  CG  TYR d   1      11.150  -7.484 -16.927  0.00  0.00    -0.056 A 
ATOM    102  CD1 TYR d   1      11.190  -8.752 -16.369  0.00  0.00    -0.074 A 
ATOM    103  CE1 TYR d   1      10.495  -9.047 -15.221  0.00  0.00    -0.051 A 
ATOM    104  H34 TYR d   1      11.780  -9.525 -16.847  0.00  0.00     0.084 H 
ATOM    105  CZ  TYR d   1       9.746  -8.070 -14.606  0.00  0.00     0.065 A 
ATOM    106  H36 TYR d   1      10.537 -10.046 -14.801  0.00  0.00     0.087 H 
ATOM    107  CE2 TYR d   1       9.687  -6.798 -15.135  0.00  0.00    -0.051 A 
ATOM    108  CD2 TYR d   1      10.391  -6.510 -16.292  0.00  0.00    -0.074 A 
ATOM    109  H37 TYR d   1       9.095  -6.031 -14.650  0.00  0.00     0.087 H 
ATOM    110  H35 TYR d   1      10.349  -5.510 -16.708  0.00  0.00     0.084 H 
BRANCH 105 111
ATOM    111  OH  TYR d   1       9.054  -8.376 -13.462  0.00  0.00    -0.361 OA
ATOM    112  H38 TYR d   1       9.203  -9.287 -13.237  0.00  0.00     0.217 HD
ENDBRANCH 105 111
ENDBRANCH  98 101
ENDBRANCH   1  98
TORSDOF 29
