REMARK  26 active torsions:
REMARK  status: ('A' for Active; 'I' for Inactive)
REMARK    1  A    between atoms: N_1  and  CA_2 
REMARK    2  A    between atoms: CA_2  and  C_3 
REMARK    3  A    between atoms: CA_2  and  CB_5 
REMARK       I    between atoms: C_3  and  N_6 
REMARK    4  A    between atoms: N_6  and  CA_7 
REMARK    5  A    between atoms: CA_7  and  C_8 
REMARK    6  A    between atoms: CA_7  and  CB_10 
REMARK       I    between atoms: C_8  and  N_15 
REMARK    7  A    between atoms: CB_10  and  CG_11 
REMARK    8  A    between atoms: CG_11  and  CD_12 
REMARK    9  A    between atoms: N_15  and  CA_16 
REMARK   10  A    between atoms: CA_16  and  C_17 
REMARK   11  A    between atoms: CA_16  and  CB_19 
REMARK       I    between atoms: C_17  and  N_23 
REMARK   12  A    between atoms: CB_19  and  CG_20 
REMARK   13  A    between atoms: N_23  and  CA_24 
REMARK   14  A    between atoms: CA_24  and  C_25 
REMARK   15  A    between atoms: CA_24  and  CB_27 
REMARK       I    between atoms: C_25  and  N_31 
REMARK   16  A    between atoms: CB_27  and  CG_28 
REMARK   17  A    between atoms: N_31  and  CA_32 
REMARK   18  A    between atoms: CA_32  and  C_33 
REMARK   19  A    between atoms: CA_32  and  CB_35 
REMARK       I    between atoms: C_33  and  N_38 
REMARK   20  A    between atoms: CB_35  and  CG1_36 
REMARK   21  A    between atoms: CB_35  and  CG2_37 
REMARK   22  A    between atoms: N_38  and  CA_39 
REMARK   23  A    between atoms: CA_39  and  C_40 
REMARK   24  A    between atoms: CA_39  and  CB_42 
REMARK   25  A    between atoms: CB_42  and  CG_43 
REMARK   26  A    between atoms: CG_43  and  CD_44 
ROOT
ATOM      1  CA  ASP d   1      21.718  24.479  26.652  0.00  0.00     0.098 C 
ATOM      2  H19 ASP d   1      21.171  23.888  27.401  0.00  0.00     0.088 H 
ENDROOT
BRANCH   1   3
ATOM      3  N   ASP d   1      23.107  24.623  27.076  0.00  0.00    -0.345 N 
ATOM      4  C   ASP d   1      23.682  23.720  27.864  0.00  0.00     0.241 C 
ATOM      5  O   ASP d   1      23.056  22.800  28.394  0.00  0.00    -0.271 OA
ATOM      6  H18 ASP d   1      23.635  25.415  26.768  0.00  0.00     0.163 HD
BRANCH   4   7
ATOM      7  CA  ASP d   1      25.190  23.876  28.075  0.00  0.00     0.098 C 
ATOM      8  H15 ASP d   1      25.682  23.126  27.438  0.00  0.00     0.088 H 
BRANCH   7   9
ATOM      9  N   ASP d   1      25.666  25.188  27.635  0.00  0.00    -0.346 N 
ATOM     10  C   GLU d   1      26.327  25.294  26.487  0.00  0.00     0.241 C 
ATOM     11  O   GLU d   1      26.612  24.311  25.806  0.00  0.00    -0.271 OA
ATOM     12  H14 ASP d   1      25.495  25.999  28.194  0.00  0.00     0.163 HD
BRANCH  10  13
ATOM     13  CA  GLU d   1      26.724  26.699  26.020  0.00  0.00     0.090 C 
ATOM     14  H9  GLU d   1      26.497  26.756  24.945  0.00  0.00     0.087 H 
BRANCH  13  15
ATOM     15  N   GLU d   1      25.963  27.761  26.671  0.00  0.00    -0.346 N 
ATOM     16  C   ALA d   1      24.668  27.938  26.427  0.00  0.00     0.248 C 
ATOM     17  O   ALA d   1      24.020  27.218  25.659  0.00  0.00    -0.271 OA
ATOM     18  H8  GLU d   1      26.426  28.369  27.315  0.00  0.00     0.163 HD
BRANCH  16  19
ATOM     19  CA  ALA d   1      24.001  29.091  27.169  0.00  0.00     0.172 C 
ATOM     20  H4  ALA d   1      24.752  29.881  27.317  0.00  0.00     0.098 H 
BRANCH  19  21
ATOM     21  N   ALA d   1      22.896  29.657  26.399  0.00  0.00    -0.067 N 
ATOM     22  H1  ALA d   1      22.479  30.414  26.917  0.00  0.00     0.275 HD
ATOM     23  H2  ALA d   1      22.204  28.944  26.230  0.00  0.00     0.275 HD
ATOM     24  H3  ALA d   1      23.243  30.003  25.518  0.00  0.00     0.275 HD
ENDBRANCH  19  21
BRANCH  19  25
ATOM     25  CB  ALA d   1      23.520  28.629  28.536  0.00  0.00    -0.042 C 
ATOM     26  H5  ALA d   1      24.366  28.207  29.099  0.00  0.00     0.030 H 
ATOM     27  H6  ALA d   1      22.743  27.861  28.411  0.00  0.00     0.030 H 
ATOM     28  H7  ALA d   1      23.104  29.485  29.087  0.00  0.00     0.030 H 
ENDBRANCH  19  25
ENDBRANCH  16  19
ENDBRANCH  13  15
BRANCH  13  29
ATOM     29  CB  GLU d   1      28.233  26.918  26.183  0.00  0.00    -0.029 C 
ATOM     30  H10 GLU d   1      28.747  25.970  25.967  0.00  0.00     0.037 H 
ATOM     31  H11 GLU d   1      28.431  27.214  27.224  0.00  0.00     0.037 H 
BRANCH  29  32
ATOM     32  CG  GLU d   1      28.795  27.992  25.262  0.00  0.00     0.018 C 
ATOM     33  H12 GLU d   1      29.892  27.985  25.342  0.00  0.00     0.049 H 
ATOM     34  H13 GLU d   1      28.410  28.970  25.587  0.00  0.00     0.049 H 
BRANCH  32  35
ATOM     35  CD  GLU d   1      28.411  27.778  23.798  0.00  0.00     0.172 C 
ATOM     36  OE1 GLU d   1      28.965  26.855  23.162  0.00  0.00    -0.648 OA
ATOM     37  OE2 GLU d   1      27.556  28.535  23.278  0.00  0.00    -0.648 OA
ENDBRANCH  32  35
ENDBRANCH  29  32
ENDBRANCH  13  29
ENDBRANCH  10  13
ENDBRANCH   7   9
BRANCH   7  38
ATOM     38  CB  ASP d   1      25.605  23.576  29.519  0.00  0.00     0.043 C 
ATOM     39  H16 ASP d   1      26.679  23.789  29.627  0.00  0.00     0.052 H 
ATOM     40  H17 ASP d   1      25.420  22.511  29.723  0.00  0.00     0.052 H 
BRANCH  38  41
ATOM     41  CG  ASP d   1      24.843  24.404  30.538  0.00  0.00     0.175 C 
ATOM     42  OD1 ASP d   1      24.281  25.457  30.167  0.00  0.00    -0.648 OA
ATOM     43  OD2 ASP d   1      24.811  23.997  31.719  0.00  0.00    -0.648 OA
ENDBRANCH  38  41
ENDBRANCH   7  38
ENDBRANCH   4   7
ENDBRANCH   1   3
BRANCH   1  44
ATOM     44  C   ASP d   1      21.687  23.744  25.308  0.00  0.00     0.241 C 
ATOM     45  O   ASP d   1      22.726  23.298  24.791  0.00  0.00    -0.271 OA
ATOM     46  N   VAL d   1      20.495  23.616  24.745  0.00  0.00    -0.346 N 
ATOM     47  H22 VAL d   1      19.684  23.934  25.236  0.00  0.00     0.163 HD
BRANCH  46  48
ATOM     48  CA  VAL d   1      20.344  23.022  23.427  0.00  0.00     0.092 C 
ATOM     49  H23 VAL d   1      21.341  22.722  23.072  0.00  0.00     0.088 H 
BRANCH  48  50
ATOM     50  C   VAL d   1      19.780  24.050  22.438  0.00  0.00     0.241 C 
ATOM     51  O   VAL d   1      19.067  24.973  22.834  0.00  0.00    -0.271 OA
ATOM     52  N   GLU d   1      20.125  23.899  21.163  0.00  0.00    -0.345 N 
ATOM     53  H31 GLU d   1      20.728  23.142  20.909  0.00  0.00     0.163 HD
BRANCH  52  54
ATOM     54  CA  GLU d   1      19.649  24.807  20.121  0.00  0.00     0.097 C 
ATOM     55  H32 GLU d   1      19.525  25.811  20.552  0.00  0.00     0.089 H 
BRANCH  54  56
ATOM     56  C   GLU d   1      18.315  24.317  19.589  0.00  0.00     0.196 C 
ATOM     57  O   GLU d   1      18.019  23.116  19.621  0.00  0.00    -0.646 OA
ATOM     58  OXT GLU d   1      17.514  25.115  19.100  0.00  0.00    -0.646 OA
ENDBRANCH  54  56
BRANCH  54  59
ATOM     59  CB  GLU d   1      20.639  24.878  18.961  0.00  0.00    -0.028 C 
ATOM     60  H33 GLU d   1      20.236  25.577  18.213  0.00  0.00     0.037 H 
ATOM     61  H34 GLU d   1      20.717  23.874  18.519  0.00  0.00     0.037 H 
BRANCH  59  62
ATOM     62  CG  GLU d   1      22.034  25.337  19.326  0.00  0.00     0.018 C 
ATOM     63  H35 GLU d   1      22.435  24.671  20.104  0.00  0.00     0.049 H 
ATOM     64  H36 GLU d   1      21.980  26.364  19.715  0.00  0.00     0.049 H 
BRANCH  62  65
ATOM     65  CD  GLU d   1      22.974  25.314  18.125  0.00  0.00     0.172 C 
ATOM     66  OE1 GLU d   1      23.541  24.239  17.826  0.00  0.00    -0.648 OA
ATOM     67  OE2 GLU d   1      23.143  26.369  17.477  0.00  0.00    -0.648 OA
ENDBRANCH  62  65
ENDBRANCH  59  62
ENDBRANCH  54  59
ENDBRANCH  52  54
ENDBRANCH  48  50
BRANCH  48  68
ATOM     68  CB  VAL d   1      19.465  21.754  23.494  0.00  0.00    -0.033 C 
ATOM     69  H24 VAL d   1      19.217  21.443  22.468  0.00  0.00     0.042 H 
BRANCH  68  70
ATOM     70  CG1 VAL d   1      20.232  20.630  24.169  0.00  0.00    -0.071 C 
ATOM     71  H25 VAL d   1      19.601  19.730  24.213  0.00  0.00     0.028 H 
ATOM     72  H26 VAL d   1      20.508  20.935  25.189  0.00  0.00     0.028 H 
ATOM     73  H27 VAL d   1      21.143  20.410  23.593  0.00  0.00     0.028 H 
ENDBRANCH  68  70
BRANCH  68  74
ATOM     74  CG2 VAL d   1      18.154  22.045  24.246  0.00  0.00    -0.071 C 
ATOM     75  H28 VAL d   1      17.615  22.861  23.741  0.00  0.00     0.028 H 
ATOM     76  H29 VAL d   1      18.383  22.341  25.280  0.00  0.00     0.028 H 
ATOM     77  H30 VAL d   1      17.527  21.141  24.254  0.00  0.00     0.028 H 
ENDBRANCH  68  74
ENDBRANCH  48  68
ENDBRANCH  46  48
ENDBRANCH   1  44
BRANCH   1  78
ATOM     78  CB  ASP d   1      21.049  25.855  26.520  0.00  0.00     0.043 C 
ATOM     79  H20 ASP d   1      21.163  26.202  25.483  0.00  0.00     0.052 H 
ATOM     80  H21 ASP d   1      21.554  26.558  27.199  0.00  0.00     0.052 H 
BRANCH  78  81
ATOM     81  CG  ASP d   1      19.556  25.828  26.866  0.00  0.00     0.175 C 
ATOM     82  OD1 ASP d   1      18.827  24.911  26.425  0.00  0.00    -0.648 OA
ATOM     83  OD2 ASP d   1      19.108  26.739  27.597  0.00  0.00    -0.648 OA
ENDBRANCH  78  81
ENDBRANCH   1  78
TORSDOF 26
