REMARK  24 active torsions:
REMARK  status: ('A' for Active; 'I' for Inactive)
REMARK    1  A    between atoms: C_3  and  CA_2 
REMARK       I    between atoms: N_8  and  C_3 
REMARK    2  A    between atoms: CA_9  and  N_8 
REMARK    3  A    between atoms: C_10  and  CA_9 
REMARK    4  A    between atoms: CA_9  and  CB_12 
REMARK       I    between atoms: N_19  and  C_10 
REMARK    5  A    between atoms: CB_12  and  CG_13 
REMARK    6  A    between atoms: CA_20  and  N_19 
REMARK    7  A    between atoms: C_21  and  CA_20 
REMARK    8  A    between atoms: CA_20  and  CB_23 
REMARK       I    between atoms: N_29  and  C_21 
REMARK    9  A    between atoms: CB_23  and  CG_24 
REMARK   10  A    between atoms: CA_30  and  N_29 
REMARK   11  A    between atoms: CH_35  and  CA_30 
REMARK   12  A    between atoms: CA_30  and  CB_31 
REMARK   13  A    between atoms: CB_31  and  CG_32 
REMARK   14  A    between atoms: CG_32  and  CD2_34 
REMARK   15  A    between atoms: CG_32  and  CD1_33 
REMARK   16  A    between atoms: CM_37  and  CH_35 
REMARK   17  A    between atoms: CH_35  and  OH_36 
REMARK   18  A    between atoms: C_38  and  CM_37 
REMARK       I    between atoms: C_38  and  N_40 
REMARK   19  A    between atoms: N_40  and  CA_41 
REMARK   20  A    between atoms: CA_41  and  C_42 
REMARK   21  A    between atoms: CA_41  and  CB_44 
REMARK   22  A    between atoms: CB_44  and  CG_45 
REMARK   23  A    between atoms: CG_45  and  CD2_47 
REMARK   24  A    between atoms: CG_45  and  CD1_46 
ROOT
ATOM      1  CA  HIS d   1      42.774  66.705 100.791  0.00  0.00     0.094 C 
ATOM      2  H20 HIS d   1      42.211  65.988 100.175  0.00  0.00     0.088 H 
ENDROOT
BRANCH   1   3
ATOM      3  C   HIS d   1      43.664  65.914 101.773  0.00  0.00     0.241 C 
ATOM      4  O   HIS d   1      44.706  66.391 102.222  0.00  0.00    -0.271 OA
ATOM      5  N   STA d   1      43.147  64.761 102.088  0.00  0.00    -0.352 N 
ATOM      6  H26 STA d   1      42.307  64.537 101.594  0.00  0.00     0.163 HD
BRANCH   5   7
ATOM      7  CA  STA d   1      43.579  63.737 103.037  0.00  0.00     0.037 C 
ATOM      8  H27 STA d   1      44.481  64.100 103.552  0.00  0.00     0.076 H 
BRANCH   7   9
ATOM      9  CH  STA d   1      44.000  62.435 102.355  0.00  0.00     0.063 C 
ATOM     10  H37 STA d   1      44.545  61.832 103.096  0.00  0.00     0.086 H 
BRANCH   9  11
ATOM     11  CM  STA d   1      44.907  62.643 101.158  0.00  0.00     0.035 C 
ATOM     12  H39 STA d   1      44.480  63.412 100.498  0.00  0.00     0.051 H 
ATOM     13  H40 STA d   1      45.011  61.699 100.602  0.00  0.00     0.051 H 
BRANCH  11  14
ATOM     14  C   STA d   1      46.282  63.100 101.663  0.00  0.00     0.220 C 
ATOM     15  O   STA d   1      46.370  64.054 102.394  0.00  0.00    -0.274 OA
ATOM     16  N   LEU d   1      47.180  62.151 101.503  0.00  0.00    -0.350 N 
ATOM     17  H41 LEU d   1      46.814  61.223 101.432  0.00  0.00     0.163 HD
BRANCH  16  18
ATOM     18  CA  LEU d   1      48.624  62.256 101.415  0.00  0.00     0.063 C 
ATOM     19  H42 LEU d   1      48.967  62.824 102.292  0.00  0.00     0.083 H 
BRANCH  18  20
ATOM     20  C   LEU d   1      49.118  63.018 100.164  0.00  0.00     0.109 C 
ATOM     21  O   LEU d   1      50.328  63.363 100.243  0.00  0.00    -0.305 OA
ATOM     22  H43 LEU d   1      48.486  63.234  99.304  0.00  0.00     0.146 H 
ENDBRANCH  18  20
BRANCH  18  23
ATOM     23  CB  LEU d   1      49.234  60.846 101.498  0.00  0.00    -0.037 C 
ATOM     24  H44 LEU d   1      50.269  60.935 101.135  0.00  0.00     0.037 H 
ATOM     25  H45 LEU d   1      48.655  60.218 100.805  0.00  0.00     0.037 H 
BRANCH  23  26
ATOM     26  CG  LEU d   1      49.306  60.085 102.800  0.00  0.00    -0.059 C 
ATOM     27  H46 LEU d   1      48.346  59.580 102.980  0.00  0.00     0.038 H 
BRANCH  26  28
ATOM     28  CD2 LEU d   1      49.619  61.012 103.977  0.00  0.00    -0.073 C 
ATOM     29  H50 LEU d   1      48.822  61.764 104.074  0.00  0.00     0.028 H 
ATOM     30  H51 LEU d   1      50.580  61.517 103.800  0.00  0.00     0.028 H 
ATOM     31  H52 LEU d   1      49.680  60.421 104.903  0.00  0.00     0.028 H 
ENDBRANCH  26  28
BRANCH  26  32
ATOM     32  CD1 LEU d   1      50.432  59.047 102.687  0.00  0.00    -0.073 C 
ATOM     33  H47 LEU d   1      50.503  58.479 103.626  0.00  0.00     0.028 H 
ATOM     34  H48 LEU d   1      51.386  59.560 102.496  0.00  0.00     0.028 H 
ATOM     35  H49 LEU d   1      50.214  58.358 101.858  0.00  0.00     0.028 H 
ENDBRANCH  26  32
ENDBRANCH  23  26
ENDBRANCH  18  23
ENDBRANCH  16  18
ENDBRANCH  11  14
ENDBRANCH   9  11
BRANCH   9  36
ATOM     36  OH  STA d   1      42.849  61.700 101.922  0.00  0.00    -0.393 OA
ATOM     37  H38 STA d   1      42.268  61.560 102.660  0.00  0.00     0.210 HD
ENDBRANCH   9  36
ENDBRANCH   7   9
BRANCH   7  38
ATOM     38  CB  STA d   1      42.470  63.708 104.056  0.00  0.00    -0.041 C 
ATOM     39  H28 STA d   1      42.285  62.644 104.267  0.00  0.00     0.036 H 
ATOM     40  H29 STA d   1      41.591  64.140 103.555  0.00  0.00     0.036 H 
BRANCH  38  41
ATOM     41  CG  STA d   1      42.551  64.394 105.417  0.00  0.00    -0.059 C 
ATOM     42  H30 STA d   1      43.038  63.706 106.124  0.00  0.00     0.038 H 
BRANCH  41  43
ATOM     43  CD2 STA d   1      41.097  64.717 105.895  0.00  0.00    -0.073 C 
ATOM     44  H34 STA d   1      40.502  63.792 105.910  0.00  0.00     0.028 H 
ATOM     45  H35 STA d   1      40.636  65.438 105.204  0.00  0.00     0.028 H 
ATOM     46  H36 STA d   1      41.131  65.148 106.907  0.00  0.00     0.028 H 
ENDBRANCH  41  43
BRANCH  41  47
ATOM     47  CD1 STA d   1      43.314  65.735 105.424  0.00  0.00    -0.073 C 
ATOM     48  H31 STA d   1      43.318  66.149 106.443  0.00  0.00     0.028 H 
ATOM     49  H32 STA d   1      42.819  66.442 104.743  0.00  0.00     0.028 H 
ATOM     50  H33 STA d   1      44.349  65.570 105.091  0.00  0.00     0.028 H 
ENDBRANCH  41  47
ENDBRANCH  38  41
ENDBRANCH   7  38
ENDBRANCH   5   7
ENDBRANCH   1   3
BRANCH   1  51
ATOM     51  CB  HIS d   1      43.541  67.561  99.799  0.00  0.00     0.004 C 
ATOM     52  H21 HIS d   1      44.068  68.339 100.371  0.00  0.00     0.046 H 
ATOM     53  H22 HIS d   1      42.806  68.032  99.130  0.00  0.00     0.046 H 
BRANCH  51  54
ATOM     54  CG  HIS d   1      44.553  66.870  98.940  0.00  0.00     0.053 A 
ATOM     55  CD2 HIS d   1      45.680  67.347  98.345  0.00  0.00     0.002 A 
ATOM     56  NE2 HIS d   1      46.263  66.307  97.656  0.00  0.00    -0.359 N 
ATOM     57  H23 HIS d   1      46.054  68.368  98.403  0.00  0.00     0.114 H 
ATOM     58  CE1 HIS d   1      45.547  65.218  97.819  0.00  0.00     0.064 A 
ATOM     59  H25 HIS d   1      47.127  66.373  97.099  0.00  0.00     0.166 HD
ATOM     60  ND1 HIS d   1      44.508  65.546  98.579  0.00  0.00    -0.247 NA
ATOM     61  H24 HIS d   1      45.764  64.233  97.409  0.00  0.00     0.143 H 
ENDBRANCH  51  54
ENDBRANCH   1  51
BRANCH   1  62
ATOM     62  N   HIS d   1      41.807  67.351 101.719  0.00  0.00    -0.346 N 
ATOM     63  C   PHE d   1      40.606  67.752 101.393  0.00  0.00     0.241 C 
ATOM     64  O   PHE d   1      40.149  67.674 100.236  0.00  0.00    -0.271 OA
ATOM     65  H19 HIS d   1      42.098  67.489 102.666  0.00  0.00     0.163 HD
BRANCH  63  66
ATOM     66  CA  PHE d   1      39.719  68.349 102.475  0.00  0.00     0.093 C 
ATOM     67  H11 PHE d   1      40.328  69.046 103.070  0.00  0.00     0.088 H 
BRANCH  66  68
ATOM     68  CB  PHE d   1      39.081  67.336 103.421  0.00  0.00    -0.014 C 
ATOM     69  H12 PHE d   1      39.871  66.641 103.742  0.00  0.00     0.043 H 
ATOM     70  H13 PHE d   1      38.318  66.786 102.850  0.00  0.00     0.043 H 
BRANCH  68  71
ATOM     71  CG  PHE d   1      38.424  67.866 104.652  0.00  0.00    -0.056 A 
ATOM     72  CD2 PHE d   1      37.611  68.985 104.710  0.00  0.00    -0.077 A 
ATOM     73  CE2 PHE d   1      37.035  69.441 105.894  0.00  0.00    -0.082 A 
ATOM     74  H15 PHE d   1      37.414  69.530 103.794  0.00  0.00     0.084 H 
ATOM     75  CZ  PHE d   1      37.279  68.751 107.090  0.00  0.00    -0.083 A 
ATOM     76  H17 PHE d   1      36.403  70.322 105.891  0.00  0.00     0.083 H 
ATOM     77  CE1 PHE d   1      38.115  67.631 107.062  0.00  0.00    -0.082 A 
ATOM     78  H18 PHE d   1      36.828  69.080 108.019  0.00  0.00     0.083 H 
ATOM     79  CD1 PHE d   1      38.659  67.200 105.860  0.00  0.00    -0.077 A 
ATOM     80  H16 PHE d   1      38.339  67.099 107.980  0.00  0.00     0.083 H 
ATOM     81  H14 PHE d   1      39.288  66.317 105.857  0.00  0.00     0.084 H 
ENDBRANCH  68  71
ENDBRANCH  66  68
BRANCH  66  82
ATOM     82  N   PHE d   1      38.604  69.085 101.822  0.00  0.00    -0.346 N 
ATOM     83  C   PRO d   1      38.591  70.407 101.751  0.00  0.00     0.249 C 
ATOM     84  O   PRO d   1      39.528  71.115 102.200  0.00  0.00    -0.271 OA
ATOM     85  H10 PHE d   1      37.845  68.568 101.426  0.00  0.00     0.163 HD
BRANCH  83  86
ATOM     86  CA  PRO d   1      37.392  71.032 101.049  0.00  0.00     0.178 C 
ATOM     87  N   PRO d   1      36.951  72.280 101.705  0.00  0.00    -0.062 N 
ATOM     88  CD  PRO d   1      37.227  73.432 100.849  0.00  0.00     0.083 C 
ATOM     89  H1  PRO d   1      37.444  72.389 102.577  0.00  0.00     0.278 HD
ATOM     90  H2  PRO d   1      35.960  72.229 101.883  0.00  0.00     0.278 HD
ATOM     91  CG  PRO d   1      38.023  72.884  99.663  0.00  0.00    -0.040 C 
ATOM     92  H8  PRO d   1      36.287  73.887 100.503  0.00  0.00     0.075 H 
ATOM     93  H9  PRO d   1      37.819  74.182 101.394  0.00  0.00     0.075 H 
ATOM     94  CB  PRO d   1      37.697  71.428  99.602  0.00  0.00    -0.028 C 
ATOM     95  H6  PRO d   1      37.720  73.385  98.732  0.00  0.00     0.035 H 
ATOM     96  H7  PRO d   1      39.101  73.030  99.823  0.00  0.00     0.035 H 
ATOM     97  H4  PRO d   1      36.821  71.254  98.960  0.00  0.00     0.036 H 
ATOM     98  H5  PRO d   1      38.553  70.856  99.216  0.00  0.00     0.036 H 
ATOM     99  H3  PRO d   1      36.571  70.300 101.062  0.00  0.00     0.099 H 
ENDBRANCH  83  86
ENDBRANCH  66  82
ENDBRANCH  63  66
ENDBRANCH   1  62
TORSDOF 24
