REMARK  14 active torsions:
REMARK  status: ('A' for Active; 'I' for Inactive)
REMARK       I    between atoms: C42_2  and  N43_3 
REMARK    1  A    between atoms: C42_2  and  C1_13 
REMARK    2  A    between atoms: C10_17  and  C12_18 
REMARK       I    between atoms: C12_18  and  N13_20 
REMARK    3  A    between atoms: N13_20  and  C18_21 
REMARK    4  A    between atoms: N13_20  and  C14_25 
REMARK    5  A    between atoms: C18_21  and  C19_22 
REMARK    6  A    between atoms: C19_22  and  C20_23 
REMARK    7  A    between atoms: C20_23  and  C21_24 
REMARK    8  A    between atoms: C14_25  and  C15_26 
REMARK    9  A    between atoms: C15_26  and  C16_27 
REMARK   10  A    between atoms: C16_27  and  C17_28 
REMARK   11  A    between atoms: C8_31  and  C24_32 
REMARK   12  A    between atoms: C3_35  and  C25_37 
REMARK       I    between atoms: C25_37  and  N27_39 
REMARK   13  A    between atoms: N27_39  and  S28_40 
REMARK   14  A    between atoms: S28_40  and  C31_43 
ROOT
ATOM      1  C1  398 d   1     -22.728   3.812 -10.379  0.00  0.00     0.061 A 
ATOM      2  C6  398 d   1     -21.629   4.186 -11.278  0.00  0.00     0.074 A 
ATOM      3  N7  398 d   1     -20.548   3.422 -11.325  0.00  0.00    -0.235 N 
ATOM      4  N11 398 d   1     -19.803   3.128 -10.179  0.00  0.00    -0.160 NA
ATOM      5  C10 398 d   1     -18.826   2.305 -10.567  0.00  0.00     0.168 C 
ATOM      6  C9  398 d   1     -19.121   2.022 -11.981  0.00  0.00     0.094 C 
ATOM      7 CL23 398 d   1     -18.201   0.922 -13.125  0.00  0.00    -0.079 Cl
ATOM      8  C8  398 d   1     -20.281   2.758 -12.461  0.00  0.00     0.057 C 
ATOM      9  C5  398 d   1     -21.857   5.266 -12.131  0.00  0.00    -0.053 A 
ATOM     10  C4  398 d   1     -23.043   5.957 -12.131  0.00  0.00    -0.065 A 
ATOM     11  C3  398 d   1     -24.055   5.618 -11.238  0.00  0.00     0.034 A 
ATOM     12  C2  398 d   1     -23.909   4.544 -10.364  0.00  0.00    -0.050 A 
ATOM     13  H32 398 d   1     -21.073   5.569 -12.815  0.00  0.00     0.087 H 
ATOM     14  H33 398 d   1     -23.192   6.771 -12.831  0.00  0.00     0.085 H 
ATOM     15  H34 398 d   1     -24.708   4.282  -9.680  0.00  0.00     0.086 H 
ENDROOT
BRANCH   1  16
ATOM     16  C42 398 d   1     -22.531   2.647  -9.461  0.00  0.00     0.256 C 
ATOM     17  O53 398 d   1     -22.627   1.570  -9.988  0.00  0.00    -0.267 OA
ATOM     18  N43 398 d   1     -22.293   2.767  -8.140  0.00  0.00    -0.343 N 
ATOM     19  C48 398 d   1     -22.055   4.052  -7.477  0.00  0.00     0.022 C 
ATOM     20  C44 398 d   1     -22.269   1.577  -7.246  0.00  0.00     0.002 C 
ATOM     21  C47 398 d   1     -20.741   3.881  -6.725  0.00  0.00    -0.034 A 
ATOM     22  H1  398 d   1     -22.872   4.281  -6.777  0.00  0.00     0.071 H 
ATOM     23  H2  398 d   1     -21.971   4.859  -8.220  0.00  0.00     0.071 H 
ATOM     24  C49 398 d   1     -20.146   4.967  -6.096  0.00  0.00    -0.075 A 
ATOM     25  C46 398 d   1     -20.083   2.528  -6.621  0.00  0.00    -0.049 A 
ATOM     26  C50 398 d   1     -18.935   4.760  -5.426  0.00  0.00    -0.082 A 
ATOM     27  H3  398 d   1     -20.607   5.948  -6.123  0.00  0.00     0.084 H 
ATOM     28  C51 398 d   1     -18.309   3.496  -5.315  0.00  0.00    -0.082 A 
ATOM     29  H4  398 d   1     -18.450   5.614  -4.967  0.00  0.00     0.083 H 
ATOM     30  C52 398 d   1     -18.883   2.371  -5.924  0.00  0.00    -0.076 A 
ATOM     31  H5  398 d   1     -17.384   3.397  -4.758  0.00  0.00     0.083 H 
ATOM     32  H6  398 d   1     -18.406   1.400  -5.855  0.00  0.00     0.084 H 
ATOM     33  C45 398 d   1     -20.758   1.316  -7.230  0.00  0.00    -0.025 C 
ATOM     34  H7  398 d   1     -20.539   0.423  -6.626  0.00  0.00     0.042 H 
ATOM     35  H8  398 d   1     -20.394   1.162  -8.257  0.00  0.00     0.042 H 
ATOM     36  H9  398 d   1     -22.829   0.731  -7.671  0.00  0.00     0.064 H 
ATOM     37  H10 398 d   1     -22.658   1.807  -6.243  0.00  0.00     0.064 H 
ENDBRANCH   1  16
BRANCH   8  38
ATOM     38  C24 398 d   1     -20.922   2.798 -13.853  0.00  0.00    -0.034 C 
ATOM     39  H29 398 d   1     -20.403   2.090 -14.516  0.00  0.00     0.035 H 
ATOM     40  H30 398 d   1     -20.840   3.814 -14.265  0.00  0.00     0.035 H 
ATOM     41  H31 398 d   1     -21.983   2.518 -13.776  0.00  0.00     0.035 H 
ENDBRANCH   8  38
BRANCH  11  42
ATOM     42  C25 398 d   1     -25.314   6.422 -11.233  0.00  0.00     0.265 C 
ATOM     43  O26 398 d   1     -25.446   7.275 -12.069  0.00  0.00    -0.267 OA
ATOM     44  N27 398 d   1     -26.246   6.125 -10.346  0.00  0.00    -0.246 N 
ATOM     45  H35 398 d   1     -26.062   5.381  -9.703  0.00  0.00     0.182 HD
BRANCH  44  46
ATOM     46  S28 398 d   1     -27.650   6.881 -10.236  0.00  0.00     0.265 S 
ATOM     47  O29 398 d   1     -28.400   6.808 -11.450  0.00  0.00    -0.200 OA
ATOM     48  O30 398 d   1     -28.323   6.157  -9.189  0.00  0.00    -0.200 OA
BRANCH  46  49
ATOM     49  C31 398 d   1     -27.499   8.455  -9.803  0.00  0.00     0.080 A 
ATOM     50  C36 398 d   1     -27.475   9.446 -10.786  0.00  0.00    -0.050 A 
ATOM     51  C35 398 d   1     -27.357  10.779 -10.443  0.00  0.00    -0.023 A 
ATOM     52  H36 398 d   1     -27.550   9.166 -11.831  0.00  0.00     0.087 H 
ATOM     53  C37 398 d   1     -27.324  11.729 -11.466  0.00  0.00    -0.056 A 
ATOM     54  C34 398 d   1     -27.285  11.168  -9.089  0.00  0.00    -0.026 A 
ATOM     55  C38 398 d   1     -27.206  13.070 -11.175  0.00  0.00     0.007 A 
ATOM     56  H37 398 d   1     -27.392  11.408 -12.499  0.00  0.00     0.086 H 
ATOM     57  I41 398 d   1     -27.239  14.456 -12.772  0.00  0.00    -0.045 I 
ATOM     58  C39 398 d   1     -27.136  13.466  -9.814  0.00  0.00    -0.066 A 
ATOM     59  C40 398 d   1     -27.173  12.523  -8.766  0.00  0.00    -0.071 A 
ATOM     60  H38 398 d   1     -27.052  14.520  -9.574  0.00  0.00     0.085 H 
ATOM     61  H39 398 d   1     -27.116  12.842  -7.732  0.00  0.00     0.084 H 
ATOM     62  C33 398 d   1     -27.295  10.199  -8.107  0.00  0.00    -0.071 A 
ATOM     63  C32 398 d   1     -27.421   8.850  -8.453  0.00  0.00    -0.059 A 
ATOM     64  H40 398 d   1     -27.205  10.484  -7.065  0.00  0.00     0.084 H 
ATOM     65  H41 398 d   1     -27.459   8.099  -7.673  0.00  0.00     0.085 H 
ENDBRANCH  46  49
ENDBRANCH  44  46
ENDBRANCH  11  42
BRANCH   5  66
ATOM     66  C12 398 d   1     -17.796   1.628  -9.738  0.00  0.00     0.276 C 
ATOM     67  O22 398 d   1     -18.075   0.503  -9.342  0.00  0.00    -0.266 OA
ATOM     68  N13 398 d   1     -16.637   2.149  -9.391  0.00  0.00    -0.347 N 
BRANCH  68  69
ATOM     69  C18 398 d   1     -16.459   3.466  -8.808  0.00  0.00    -0.002 C 
ATOM     70  H11 398 d   1     -15.436   3.550  -8.413  0.00  0.00     0.064 H 
ATOM     71  H12 398 d   1     -17.181   3.597  -7.988  0.00  0.00     0.064 H 
BRANCH  69  72
ATOM     72  C19 398 d   1     -16.681   4.551  -9.843  0.00  0.00    -0.050 C 
ATOM     73  H13 398 d   1     -17.128   4.115 -10.749  0.00  0.00     0.035 H 
ATOM     74  H14 398 d   1     -15.721   5.023 -10.099  0.00  0.00     0.035 H 
BRANCH  72  75
ATOM     75  C20 398 d   1     -17.632   5.598  -9.247  0.00  0.00    -0.067 C 
ATOM     76  H15 398 d   1     -18.426   5.065  -8.703  0.00  0.00     0.032 H 
ATOM     77  H16 398 d   1     -18.075   6.167 -10.078  0.00  0.00     0.032 H 
BRANCH  75  78
ATOM     78  C21 398 d   1     -16.991   6.589  -8.289  0.00  0.00    -0.076 C 
ATOM     79  H17 398 d   1     -17.755   7.290  -7.922  0.00  0.00     0.027 H 
ATOM     80  H18 398 d   1     -16.202   7.148  -8.813  0.00  0.00     0.027 H 
ATOM     81  H19 398 d   1     -16.553   6.046  -7.439  0.00  0.00     0.027 H 
ENDBRANCH  75  78
ENDBRANCH  72  75
ENDBRANCH  69  72
ENDBRANCH  68  69
BRANCH  68  82
ATOM     82  C14 398 d   1     -15.437   1.318  -9.543  0.00  0.00    -0.002 C 
ATOM     83  H20 398 d   1     -14.657   1.854 -10.104  0.00  0.00     0.064 H 
ATOM     84  H21 398 d   1     -15.675   0.375 -10.057  0.00  0.00     0.064 H 
BRANCH  82  85
ATOM     85  C15 398 d   1     -15.002   1.063  -8.135  0.00  0.00    -0.050 C 
ATOM     86  H22 398 d   1     -15.517   0.176  -7.736  0.00  0.00     0.035 H 
ATOM     87  H23 398 d   1     -15.233   1.935  -7.505  0.00  0.00     0.035 H 
BRANCH  85  88
ATOM     88  C16 398 d   1     -13.516   0.827  -8.165  0.00  0.00    -0.067 C 
ATOM     89  H24 398 d   1     -13.189   0.312  -7.250  0.00  0.00     0.032 H 
ATOM     90  H25 398 d   1     -12.976   1.780  -8.262  0.00  0.00     0.032 H 
BRANCH  88  91
ATOM     91  C17 398 d   1     -13.278  -0.037  -9.368  0.00  0.00    -0.076 C 
ATOM     92  H26 398 d   1     -12.203  -0.254  -9.457  0.00  0.00     0.027 H 
ATOM     93  H27 398 d   1     -13.622   0.489 -10.271  0.00  0.00     0.027 H 
ATOM     94  H28 398 d   1     -13.834  -0.980  -9.258  0.00  0.00     0.027 H 
ENDBRANCH  88  91
ENDBRANCH  85  88
ENDBRANCH  82  85
ENDBRANCH  68  82
ENDBRANCH   5  66
TORSDOF 14
