REMARK  6 active torsions:
REMARK  status: ('A' for Active; 'I' for Inactive)
REMARK    1  A    between atoms: S_2  and  C1_4 
REMARK    2  A    between atoms: S_2  and  C21_5 
REMARK    3  A    between atoms: C18_10  and  C2_11 
REMARK    4  A    between atoms: C7_14  and  N4_20 
REMARK    5  A    between atoms: N4_20  and  C8_21 
REMARK    6  A    between atoms: C11_24  and  N5_27 
ROOT
ATOM      1  C2  88A d   1     116.358  65.614   8.170  0.00  0.00     0.023 A 
ATOM      2  C6  88A d   1     116.560  66.378   9.346  0.00  0.00     0.181 A 
ATOM      3  N3  88A d   1     115.851  66.609  10.429  0.00  0.00    -0.041 NA
ATOM      4  C7  88A d   1     116.616  67.432  11.161  0.00  0.00     0.746 A 
ATOM      5  N2  88A d   1     117.795  67.730  10.678  0.00  0.00     0.027 NA
ATOM      6  N1  88A d   1     117.765  67.078   9.487  0.00  0.00    -0.210 N 
ATOM      7  C5  88A d   1     118.723  67.066   8.537  0.00  0.00     0.007 A 
ATOM      8  C4  88A d   1     118.542  66.333   7.402  0.00  0.00    -0.065 A 
ATOM      9  C3  88A d   1     117.360  65.588   7.209  0.00  0.00    -0.067 A 
ATOM     10  H8  88A d   1     119.638  67.640   8.677  0.00  0.00     0.114 H 
ATOM     11  H9  88A d   1     119.317  66.323   6.637  0.00  0.00     0.085 H 
ATOM     12  H10 88A d   1     117.233  64.992   6.306  0.00  0.00     0.085 H 
ENDROOT
BRANCH   4  13
ATOM     13  N4  88A d   1     116.179  67.891  12.387  0.00  0.00    -0.187 N 
ATOM     14  H11 88A d   1     116.820  68.578  12.810  0.00  0.00     0.184 HD
BRANCH  13  15
ATOM     15  C8  88A d   1     115.119  67.644  13.139  0.00  0.00     0.049 A 
ATOM     16  C13 88A d   1     114.009  66.913  12.652  0.00  0.00    -0.054 A 
ATOM     17  C12 88A d   1     112.925  66.652  13.484  0.00  0.00    -0.055 A 
ATOM     18  H12 88A d   1     114.004  66.556  11.629  0.00  0.00     0.087 H 
ATOM     19  C11 88A d   1     112.894  67.121  14.805  0.00  0.00     0.030 A 
ATOM     20  H13 88A d   1     112.089  66.076  13.104  0.00  0.00     0.087 H 
ATOM     21  C10 88A d   1     113.993  67.872  15.279  0.00  0.00    -0.055 A 
ATOM     22  C9  88A d   1     115.095  68.110  14.453  0.00  0.00    -0.054 A 
ATOM     23  H14 88A d   1     113.981  68.266  16.289  0.00  0.00     0.087 H 
ATOM     24  H15 88A d   1     115.943  68.665  14.839  0.00  0.00     0.087 H 
BRANCH  19  25
ATOM     25  N5  88A d   1     111.836  66.850  15.589  0.00  0.00    -0.377 N 
ATOM     26  C17 88A d   1     111.058  65.596  15.429  0.00  0.00     0.015 C 
ATOM     27  C16 88A d   1     110.290  65.056  16.659  0.00  0.00     0.034 C 
ATOM     28  H16 88A d   1     111.762  64.812  15.113  0.00  0.00     0.067 H 
ATOM     29  H17 88A d   1     110.320  65.769  14.632  0.00  0.00     0.067 H 
ATOM     30  O3  88A d   1     109.973  66.059  17.629  0.00  0.00    -0.388 OA
ATOM     31  H18 88A d   1     110.910  64.288  17.145  0.00  0.00     0.076 H 
ATOM     32  H19 88A d   1     109.351  64.603  16.310  0.00  0.00     0.076 H 
ATOM     33  C15 88A d   1     111.076  66.919  17.914  0.00  0.00     0.034 C 
ATOM     34  C14 88A d   1     111.374  67.745  16.662  0.00  0.00     0.015 C 
ATOM     35  H20 88A d   1     111.957  66.318  18.182  0.00  0.00     0.076 H 
ATOM     36  H21 88A d   1     110.821  67.588  18.749  0.00  0.00     0.076 H 
ATOM     37  H22 88A d   1     110.460  68.265  16.339  0.00  0.00     0.067 H 
ATOM     38  H23 88A d   1     112.157  68.484  16.887  0.00  0.00     0.067 H 
ENDBRANCH  19  25
ENDBRANCH  13  15
ENDBRANCH   4  13
BRANCH   1  39
ATOM     39  C18 88A d   1     115.072  64.899   7.958  0.00  0.00    -0.022 A 
ATOM     40  C19 88A d   1     114.265  64.498   9.033  0.00  0.00    -0.071 A 
ATOM     41  C20 88A d   1     113.051  63.836   8.812  0.00  0.00    -0.061 A 
ATOM     42  H5  88A d   1     114.585  64.703  10.048  0.00  0.00     0.084 H 
ATOM     43  C21 88A d   1     112.678  63.593   7.496  0.00  0.00     0.058 A 
ATOM     44  H4  88A d   1     112.424  63.524   9.639  0.00  0.00     0.085 H 
ATOM     45  C22 88A d   1     113.451  63.986   6.402  0.00  0.00    -0.061 A 
ATOM     46  C23 88A d   1     114.639  64.663   6.640  0.00  0.00    -0.071 A 
ATOM     47  H6  88A d   1     113.131  63.767   5.390  0.00  0.00     0.085 H 
ATOM     48  H7  88A d   1     115.237  65.012   5.806  0.00  0.00     0.084 H 
BRANCH  43  49
ATOM     49  S   88A d   1     111.159  62.764   7.156  0.00  0.00     0.171 S 
ATOM     50  O2  88A d   1     110.365  62.677   8.394  0.00  0.00    -0.223 OA
ATOM     51  O1  88A d   1     111.428  61.622   6.286  0.00  0.00    -0.223 OA
BRANCH  49  52
ATOM     52  C1  88A d   1     110.257  63.963   6.131  0.00  0.00     0.020 C 
ATOM     53  H1  88A d   1     110.022  64.855   6.731  0.00  0.00     0.049 H 
ATOM     54  H2  88A d   1     109.323  63.507   5.770  0.00  0.00     0.049 H 
ATOM     55  H3  88A d   1     110.880  64.253   5.272  0.00  0.00     0.049 H 
ENDBRANCH  49  52
ENDBRANCH  43  49
ENDBRANCH   1  39
TORSDOF 6
