REMARK  10 active torsions:
REMARK  status: ('A' for Active; 'I' for Inactive)
REMARK    1  A    between atoms: N07_7  and  C01_1 
REMARK    2  A    between atoms: C08_8  and  N07_7 
REMARK    3  A    between atoms: C09_9  and  C14_14 
REMARK    4  A    between atoms: O1_26  and  C10_10 
REMARK       I    between atoms: C14_14  and  N15_15 
REMARK    5  A    between atoms: C18_17  and  C19_18 
REMARK    6  A    between atoms: C15_23  and  C18_17 
REMARK    7  A    between atoms: C19_18  and  C20_19 
REMARK    8  A    between atoms: C19_18  and  O21_20 
REMARK    9  A    between atoms: C20_19  and  O22_21 
REMARK   10  A    between atoms: C15_23  and  O1_26 
ROOT
ATOM      1  C08 M3K d   1      32.205  26.488  41.041  0.00  0.00     0.054 A 
ATOM      2  C09 M3K d   1      31.273  27.103  40.243  0.00  0.00     0.091 A 
ATOM      3  C10 M3K d   1      30.610  26.414  39.276  0.00  0.00     0.089 A 
ATOM      4  C11 M3K d   1      30.850  25.086  39.084  0.00  0.00    -0.012 A 
ATOM      5  C12 M3K d   1      31.764  24.457  39.871  0.00  0.00     0.121 A 
ATOM      6  C13 M3K d   1      32.435  25.151  40.842  0.00  0.00    -0.019 A 
ATOM      7  F26 M3K d   1      32.001  23.184  39.683  0.00  0.00    -0.206 F 
ATOM      8  H5  M3K d   1      30.319  24.538  38.314  0.00  0.00     0.092 H 
ATOM      9  H6  M3K d   1      33.159  24.636  41.463  0.00  0.00     0.091 H 
ENDROOT
BRANCH   3  10
ATOM     10  O1  M3K d   1      29.713  27.079  38.531  0.00  0.00    -0.350 OA
BRANCH  10  11
ATOM     11  C15 M3K d   1      29.105  26.497  37.405  0.00  0.00     0.028 C 
ATOM     12  H16 M3K d   1      29.874  26.016  36.782  0.00  0.00     0.075 H 
ATOM     13  H17 M3K d   1      28.374  25.743  37.733  0.00  0.00     0.075 H 
BRANCH  11  14
ATOM     14  C18 M3K d   1      28.396  27.567  36.594  0.00  0.00    -0.019 C 
ATOM     15  H9  M3K d   1      27.553  27.119  36.048  0.00  0.00     0.040 H 
ATOM     16  H10 M3K d   1      28.021  28.353  37.266  0.00  0.00     0.040 H 
BRANCH  14  17
ATOM     17  C19 M3K d   1      29.383  28.167  35.607  0.00  0.00     0.058 C 
ATOM     18  H11 M3K d   1      30.200  28.659  36.155  0.00  0.00     0.086 H 
BRANCH  17  19
ATOM     19  C20 M3K d   1      28.678  29.174  34.717  0.00  0.00     0.041 C 
ATOM     20  H12 M3K d   1      27.901  28.669  34.124  0.00  0.00     0.077 H 
ATOM     21  H13 M3K d   1      29.405  29.648  34.041  0.00  0.00     0.077 H 
BRANCH  19  22
ATOM     22  O22 M3K d   1      28.087  30.151  35.547  0.00  0.00    -0.398 OA
ATOM     23  H15 M3K d   1      27.639  30.793  35.009  0.00  0.00     0.209 HD
ENDBRANCH  19  22
ENDBRANCH  17  19
BRANCH  17  24
ATOM     24  O21 M3K d   1      29.901  27.147  34.784  0.00  0.00    -0.393 OA
ATOM     25  H14 M3K d   1      30.348  26.504  35.322  0.00  0.00     0.210 HD
ENDBRANCH  17  24
ENDBRANCH  14  17
ENDBRANCH  11  14
ENDBRANCH  10  11
ENDBRANCH   3  10
BRANCH   2  26
ATOM     26  C14 M3K d   1      30.943  28.512  40.368  0.00  0.00     0.254 C 
ATOM     27  N15 M3K d   1      30.256  29.146  39.382  0.00  0.00    -0.366 N 
ATOM     28  H7  M3K d   1      30.032  30.116  39.473  0.00  0.00     0.159 HD
ATOM     29  H8  M3K d   1      29.975  28.642  38.565  0.00  0.00     0.159 HD
ATOM     30  O16 M3K d   1      31.281  29.119  41.322  0.00  0.00    -0.268 OA
ENDBRANCH   2  26
BRANCH   1  31
ATOM     31  N07 M3K d   1      32.885  27.224  42.041  0.00  0.00    -0.353 N 
ATOM     32  H4  M3K d   1      32.282  27.864  42.578  0.00  0.00     0.166 HD
BRANCH  31  33
ATOM     33  C01 M3K d   1      34.247  27.239  42.437  0.00  0.00     0.071 A 
ATOM     34  C02 M3K d   1      35.213  26.438  41.889  0.00  0.00    -0.053 A 
ATOM     35  C03 M3K d   1      36.518  26.504  42.320  0.00  0.00    -0.065 A 
ATOM     36  H1  M3K d   1      34.945  25.741  41.103  0.00  0.00     0.087 H 
ATOM     37  C04 M3K d   1      36.905  27.375  43.309  0.00  0.00     0.009 A 
ATOM     38  H2  M3K d   1      37.258  25.853  41.868  0.00  0.00     0.085 H 
ATOM     39  C05 M3K d   1      35.932  28.177  43.851  0.00  0.00    -0.027 A 
ATOM     40  I23 M3K d   1      38.851  27.448  43.928  0.00  0.00    -0.044 I 
ATOM     41  C06 M3K d   1      34.627  28.104  43.420  0.00  0.00     0.144 A 
ATOM     42  H3  M3K d   1      36.196  28.880  44.632  0.00  0.00     0.090 H 
ATOM     43  F24 M3K d   1      33.726  28.883  43.951  0.00  0.00    -0.204 F 
ENDBRANCH  31  33
ENDBRANCH   1  31
TORSDOF 10
