REMARK  12 active torsions:
REMARK  status: ('A' for Active; 'I' for Inactive)
REMARK    1  A    between atoms: OAW_2  and  CAB_1 
REMARK    2  A    between atoms: CBL_3  and  OAW_2 
REMARK    3  A    between atoms: CBD_15  and  CAF_16 
REMARK    4  A    between atoms: CBG_19  and  OAV_20 
REMARK    5  A    between atoms: OAV_20  and  CAA_21 
REMARK    6  A    between atoms: CBJ_24  and  CAG_25 
REMARK    7  A    between atoms: CBM_27  and  OAX_28 
REMARK    8  A    between atoms: OAX_28  and  CAC_29 
REMARK    9  A    between atoms: CBN_30  and  OAN_31 
REMARK   10  A    between atoms: CBK_32  and  CAE_36 
REMARK   11  A    between atoms: CBO_37  and  OAY_38 
REMARK   12  A    between atoms: OAY_38  and  CAZ_39 
REMARK       I    between atoms: CAZ_39  and  NAI_41 
ROOT
ATOM      1  CBL 4QS d   1     -20.730  33.853  -3.135  0.00  0.00     0.083 C 
ATOM      2  CAQ 4QS d   1     -21.958  34.511  -3.165  0.00  0.00    -0.076 C 
ATOM      3  CAO 4QS d   1     -22.614  34.891  -2.005  0.00  0.00    -0.100 C 
ATOM      4  CAP 4QS d   1     -23.929  35.331  -2.111  0.00  0.00    -0.022 C 
ATOM      5  CBA 4QS d   1     -24.971  34.814  -1.343  0.00  0.00     0.004 C 
ATOM      6  CAD 4QS d   1     -25.445  35.563  -0.275  0.00  0.00    -0.110 C 
ATOM      7  CBC 4QS d   1     -25.368  33.484  -1.459  0.00  0.00     0.251 C 
ATOM      8  OAK 4QS d   1     -25.600  32.836  -0.437  0.00  0.00    -0.268 OA
ATOM      9  NAU 4QS d   1     -26.163  33.091  -2.516  0.00  0.00    -0.319 N 
ATOM     10  CBF 4QS d   1     -25.954  33.296  -3.876  0.00  0.00     0.096 A 
ATOM     11  CBI 4QS d   1     -26.303  34.559  -4.381  0.00  0.00     0.208 A 
ATOM     12  OAM 4QS d   1     -26.726  35.424  -3.603  0.00  0.00    -0.285 OA
ATOM     13  CBD 4QS d   1     -25.468  32.271  -4.722  0.00  0.00     0.022 A 
ATOM     14  CBH 4QS d   1     -25.317  32.545  -6.089  0.00  0.00     0.214 A 
ATOM     15  OAL 4QS d   1     -24.886  31.685  -6.855  0.00  0.00    -0.285 OA
ATOM     16  CBG 4QS d   1     -25.654  33.811  -6.582  0.00  0.00     0.129 A 
ATOM     17  CBE 4QS d   1     -26.133  34.840  -5.755  0.00  0.00     0.032 A 
ATOM     18  CAS 4QS d   1     -26.434  36.123  -6.266  0.00  0.00    -0.031 C 
ATOM     19  CBJ 4QS d   1     -25.169  37.080  -6.240  0.00  0.00    -0.051 C 
ATOM     20  CAT 4QS d   1     -24.050  36.587  -7.218  0.00  0.00    -0.035 C 
ATOM     21  CBM 4QS d   1     -22.649  37.254  -7.061  0.00  0.00     0.063 C 
ATOM     22  CBN 4QS d   1     -21.630  36.710  -8.077  0.00  0.00     0.064 C 
ATOM     23  CBK 4QS d   1     -20.672  35.552  -7.546  0.00  0.00    -0.027 C 
ATOM     24  CAH 4QS d   1     -21.530  32.663  -6.310  0.00  0.00    -0.117 C 
ATOM     25  CAR 4QS d   1     -20.962  35.018  -6.246  0.00  0.00    -0.037 C 
ATOM     26  CBB 4QS d   1     -20.850  33.712  -5.715  0.00  0.00    -0.057 C 
ATOM     27  CBO 4QS d   1     -20.126  33.388  -4.551  0.00  0.00     0.099 C 
ATOM     28  H4  4QS d   1     -20.868  32.923  -2.563  0.00  0.00     0.094 H 
ATOM     29  H5  4QS d   1     -22.415  34.733  -4.128  0.00  0.00     0.080 H 
ATOM     30  H6  4QS d   1     -22.114  34.846  -1.038  0.00  0.00     0.076 H 
ATOM     31  H7  4QS d   1     -24.218  35.169  -3.160  0.00  0.00     0.046 H 
ATOM     32  H8  4QS d   1     -23.904  36.410  -1.899  0.00  0.00     0.046 H 
ATOM     33  H9  4QS d   1     -26.258  35.181   0.340  0.00  0.00     0.067 H 
ATOM     34  H10 4QS d   1     -25.004  36.533  -0.052  0.00  0.00     0.067 H 
ATOM     35  H11 4QS d   1     -26.997  32.595  -2.273  0.00  0.00     0.169 HD
ATOM     36  H18 4QS d   1     -27.232  36.571  -5.655  0.00  0.00     0.041 H 
ATOM     37  H19 4QS d   1     -26.781  36.020  -7.305  0.00  0.00     0.041 H 
ATOM     38  H20 4QS d   1     -25.502  38.065  -6.601  0.00  0.00     0.040 H 
ATOM     39  H24 4QS d   1     -24.397  36.774  -8.245  0.00  0.00     0.037 H 
ATOM     40  H25 4QS d   1     -23.925  35.505  -7.065  0.00  0.00     0.037 H 
ATOM     41  H26 4QS d   1     -22.283  37.048  -6.044  0.00  0.00     0.087 H 
ATOM     42  H30 4QS d   1     -20.948  37.551  -8.272  0.00  0.00     0.087 H 
ATOM     43  H32 4QS d   1     -19.679  36.014  -7.445  0.00  0.00     0.043 H 
ATOM     44  H33 4QS d   1     -22.113  32.835  -7.214  0.00  0.00     0.067 H 
ATOM     45  H34 4QS d   1     -21.482  31.666  -5.874  0.00  0.00     0.067 H 
ATOM     46  H35 4QS d   1     -22.022  35.269  -6.093  0.00  0.00     0.040 H 
ATOM     47  H36 4QS d   1     -20.340  35.626  -5.572  0.00  0.00     0.040 H 
ATOM     48  H40 4QS d   1     -20.111  32.289  -4.501  0.00  0.00     0.096 H 
ENDROOT
BRANCH  27  49
ATOM     49  OAY 4QS d   1     -18.777  33.811  -4.764  0.00  0.00    -0.291 OA
BRANCH  49  50
ATOM     50  CAZ 4QS d   1     -17.735  32.917  -4.873  0.00  0.00     0.359 C 
ATOM     51  OAJ 4QS d   1     -16.781  33.214  -5.604  0.00  0.00    -0.239 OA
ATOM     52  NAI 4QS d   1     -17.705  31.774  -4.177  0.00  0.00    -0.346 N 
ATOM     53  H41 4QS d   1     -16.933  31.146  -4.279  0.00  0.00     0.161 HD
ATOM     54  H42 4QS d   1     -18.454  31.548  -3.555  0.00  0.00     0.161 HD
ENDBRANCH  49  50
ENDBRANCH  27  49
BRANCH   1  55
ATOM     55  OAW 4QS d   1     -19.889  34.732  -2.345  0.00  0.00    -0.384 OA
BRANCH  55  56
ATOM     56  CAB 4QS d   1     -18.754  34.150  -1.653  0.00  0.00     0.005 C 
ATOM     57  H1  4QS d   1     -18.218  34.937  -1.102  0.00  0.00     0.066 H 
ATOM     58  H2  4QS d   1     -18.075  33.688  -2.385  0.00  0.00     0.066 H 
ATOM     59  H3  4QS d   1     -19.108  33.384  -0.947  0.00  0.00     0.066 H 
ENDBRANCH  55  56
ENDBRANCH   1  55
BRANCH  23  60
ATOM     60  CAE 4QS d   1     -20.535  34.474  -8.623  0.00  0.00    -0.070 C 
ATOM     61  H37 4QS d   1     -20.314  34.948  -9.591  0.00  0.00     0.028 H 
ATOM     62  H38 4QS d   1     -21.476  33.909  -8.698  0.00  0.00     0.028 H 
ATOM     63  H39 4QS d   1     -19.717  33.790  -8.355  0.00  0.00     0.028 H 
ENDBRANCH  23  60
BRANCH  22  64
ATOM     64  OAN 4QS d   1     -22.291  36.438  -9.383  0.00  0.00    -0.393 OA
ATOM     65  H31 4QS d   1     -21.649  36.103  -9.998  0.00  0.00     0.210 HD
ENDBRANCH  22  64
BRANCH  21  66
ATOM     66  OAX 4QS d   1     -22.728  38.699  -7.257  0.00  0.00    -0.388 OA
BRANCH  66  67
ATOM     67  CAC 4QS d   1     -21.465  39.431  -7.275  0.00  0.00     0.005 C 
ATOM     68  H27 4QS d   1     -21.664  40.502  -7.429  0.00  0.00     0.066 H 
ATOM     69  H28 4QS d   1     -20.834  39.054  -8.094  0.00  0.00     0.066 H 
ATOM     70  H29 4QS d   1     -20.945  39.289  -6.316  0.00  0.00     0.066 H 
ENDBRANCH  66  67
ENDBRANCH  21  66
BRANCH  19  71
ATOM     71  CAG 4QS d   1     -24.636  37.280  -4.816  0.00  0.00    -0.073 C 
ATOM     72  H21 4QS d   1     -23.762  37.947  -4.842  0.00  0.00     0.028 H 
ATOM     73  H22 4QS d   1     -24.342  36.307  -4.394  0.00  0.00     0.028 H 
ATOM     74  H23 4QS d   1     -25.422  37.729  -4.190  0.00  0.00     0.028 H 
ENDBRANCH  19  71
BRANCH  13  75
ATOM     75  CAF 4QS d   1     -25.119  31.005  -4.245  0.00  0.00    -0.045 C 
ATOM     76  H12 4QS d   1     -25.298  30.960  -3.161  0.00  0.00     0.033 H 
ATOM     77  H13 4QS d   1     -24.055  30.817  -4.449  0.00  0.00     0.033 H 
ATOM     78  H14 4QS d   1     -25.730  30.242  -4.750  0.00  0.00     0.033 H 
ENDBRANCH  13  75
BRANCH  16  79
ATOM     79  OAV 4QS d   1     -25.494  34.037  -7.918  0.00  0.00    -0.351 OA
BRANCH  79  80
ATOM     80  CAA 4QS d   1     -26.718  33.782  -8.627  0.00  0.00     0.011 C 
ATOM     81  H15 4QS d   1     -26.566  33.970  -9.700  0.00  0.00     0.067 H 
ATOM     82  H16 4QS d   1     -27.508  34.447  -8.246  0.00  0.00     0.067 H 
ATOM     83  H17 4QS d   1     -27.017  32.734  -8.477  0.00  0.00     0.067 H 
ENDBRANCH  79  80
ENDBRANCH  16  79
TORSDOF 12
