REMARK  6 active torsions:
REMARK  status: ('A' for Active; 'I' for Inactive)
REMARK    1  A    between atoms: C1_2  and  C2_4 
REMARK    2  A    between atoms: C2_4  and  C3_5 
REMARK    3  A    between atoms: C3_5  and  N1_6 
REMARK    4  A    between atoms: N1_6  and  C4_7 
REMARK    5  A    between atoms: C7_9  and  C8_10 
REMARK    6  A    between atoms: C6_17  and  N5_19 
ROOT
ATOM      1  C4  K0I d   1      50.457  16.239 -18.545  0.00  0.00     0.129 A 
ATOM      2  N3  K0I d   1      51.209  16.071 -17.448  0.00  0.00    -0.209 NA
ATOM      3  C7  K0I d   1      51.200  14.837 -16.894  0.00  0.00     0.182 A 
ATOM      4  N2  K0I d   1      50.506  13.777 -17.342  0.00  0.00    -0.209 NA
ATOM      5  C6  K0I d   1      49.781  13.973 -18.446  0.00  0.00     0.131 A 
ATOM      6  C5  K0I d   1      49.715  15.209 -19.077  0.00  0.00     0.005 A 
ATOM      7  H10 K0I d   1      49.100  15.357 -19.958  0.00  0.00     0.095 H 
ENDROOT
BRANCH   5   8
ATOM      8  N5  K0I d   1      49.027  12.888 -18.875  0.00  0.00    -0.365 N 
ATOM      9  C22 K0I d   1      48.171  12.928 -20.062  0.00  0.00     0.000 C 
ATOM     10  C21 K0I d   1      46.874  13.555 -19.546  0.00  0.00    -0.026 C 
ATOM     11  H11 K0I d   1      47.990  11.915 -20.451  0.00  0.00     0.064 H 
ATOM     12  H12 K0I d   1      48.621  13.549 -20.851  0.00  0.00     0.064 H 
ATOM     13  C20 K0I d   1      45.953  12.577 -18.832  0.00  0.00    -0.050 A 
ATOM     14  H13 K0I d   1      46.330  13.979 -20.403  0.00  0.00     0.042 H 
ATOM     15  H14 K0I d   1      47.135  14.360 -18.843  0.00  0.00     0.042 H 
ATOM     16  C15 K0I d   1      46.364  11.833 -17.716  0.00  0.00    -0.050 A 
ATOM     17  C19 K0I d   1      44.645  12.449 -19.319  0.00  0.00    -0.076 A 
ATOM     18  C14 K0I d   1      47.749  11.936 -17.109  0.00  0.00    -0.026 C 
ATOM     19  C16 K0I d   1      45.441  10.972 -17.107  0.00  0.00    -0.076 A 
ATOM     20  C13 K0I d   1      48.931  11.686 -18.054  0.00  0.00     0.000 C 
ATOM     21  H15 K0I d   1      47.812  11.201 -16.293  0.00  0.00     0.042 H 
ATOM     22  H16 K0I d   1      47.859  12.950 -16.698  0.00  0.00     0.042 H 
ATOM     23  H17 K0I d   1      49.858  11.536 -17.481  0.00  0.00     0.064 H 
ATOM     24  H18 K0I d   1      48.742  10.804 -18.683  0.00  0.00     0.064 H 
ATOM     25  C17 K0I d   1      44.142  10.845 -17.600  0.00  0.00    -0.082 A 
ATOM     26  H22 K0I d   1      45.741  10.396 -16.239  0.00  0.00     0.084 H 
ATOM     27  C18 K0I d   1      43.746  11.587 -18.706  0.00  0.00    -0.082 A 
ATOM     28  H21 K0I d   1      43.443  10.169 -17.121  0.00  0.00     0.083 H 
ATOM     29  H20 K0I d   1      42.736  11.493 -19.090  0.00  0.00     0.083 H 
ATOM     30  H19 K0I d   1      44.333  13.028 -20.181  0.00  0.00     0.084 H 
ENDBRANCH   5   8
BRANCH   3  31
ATOM     31  C8  K0I d   1      52.040  14.632 -15.683  0.00  0.00     0.104 A 
ATOM     32  N4  K0I d   1      52.706  15.705 -15.217  0.00  0.00    -0.257 NA
ATOM     33  C12 K0I d   1      53.484  15.534 -14.144  0.00  0.00     0.003 A 
ATOM     34  C11 K0I d   1      53.623  14.325 -13.476  0.00  0.00    -0.066 A 
ATOM     35  H6  K0I d   1      54.039  16.389 -13.774  0.00  0.00     0.114 H 
ATOM     36  C10 K0I d   1      52.926  13.232 -13.963  0.00  0.00    -0.079 A 
ATOM     37  H7  K0I d   1      54.257  14.239 -12.601  0.00  0.00     0.085 H 
ATOM     38  C9  K0I d   1      52.122  13.371 -15.079  0.00  0.00    -0.051 A 
ATOM     39  H8  K0I d   1      53.011  12.270 -13.470  0.00  0.00     0.083 H 
ATOM     40  H9  K0I d   1      51.570  12.527 -15.476  0.00  0.00     0.087 H 
ENDBRANCH   3  31
BRANCH   1  41
ATOM     41  N1  K0I d   1      50.460  17.479 -19.092  0.00  0.00    -0.374 N 
ATOM     42  H5  K0I d   1      50.957  18.239 -18.605  0.00  0.00     0.161 HD
BRANCH  41  43
ATOM     43  C3  K0I d   1      49.783  17.769 -20.345  0.00  0.00     0.003 C 
ATOM     44  H3  K0I d   1      50.211  17.132 -21.133  0.00  0.00     0.064 H 
ATOM     45  H4  K0I d   1      48.713  17.541 -20.230  0.00  0.00     0.064 H 
BRANCH  43  46
ATOM     46  C2  K0I d   1      49.930  19.224 -20.759  0.00  0.00     0.030 C 
ATOM     47  H1  K0I d   1      49.753  19.858 -19.878  0.00  0.00     0.051 H 
ATOM     48  H2  K0I d   1      50.956  19.381 -21.123  0.00  0.00     0.051 H 
BRANCH  46  49
ATOM     49  C1  K0I d   1      48.966  19.635 -21.847  0.00  0.00     0.174 C 
ATOM     50  O2  K0I d   1      47.783  19.330 -21.831  0.00  0.00    -0.648 OA
ATOM     51  O1  K0I d   1      49.529  20.358 -22.813  0.00  0.00    -0.648 OA
ENDBRANCH  46  49
ENDBRANCH  43  46
ENDBRANCH  41  43
ENDBRANCH   1  41
TORSDOF 6
