REMARK  6 active torsions:
REMARK  status: ('A' for Active; 'I' for Inactive)
REMARK    1  A    between atoms: CAV_6  and  CAU_7 
REMARK    2  A    between atoms: CAU_7  and  NAN_8 
REMARK    3  A    between atoms: CAO_9  and  NAP_10 
REMARK    4  A    between atoms: CAF_16  and  NAG_17 
REMARK       I    between atoms: NAG_17  and  CA0_19 
REMARK    5  A    between atoms: NAG_17  and  CAA_25 
REMARK    6  A    between atoms: CA0_19  and  CAT_20 
ROOT
ATOM      1  NAN N5Y d   1      12.381  -2.877   5.562  0.00  0.00    -0.281 N 
ATOM      2  CAO N5Y d   1      11.410  -2.580   6.451  0.00  0.00     0.135 A 
ATOM      3  CAM N5Y d   1      13.123  -4.001   5.727  0.00  0.00     0.330 A 
ATOM      4  OAL N5Y d   1      13.991  -4.280   4.894  0.00  0.00    -0.246 OA
ATOM      5  NAD N5Y d   1      12.944  -4.852   6.843  0.00  0.00    -0.277 N 
ATOM      6  CAE N5Y d   1      11.957  -4.540   7.806  0.00  0.00     0.256 A 
ATOM      7  OAA N5Y d   1      11.802  -5.262   8.796  0.00  0.00    -0.270 OA
ATOM      8  CAF N5Y d   1      11.205  -3.368   7.597  0.00  0.00     0.149 A 
ATOM      9  H9  N5Y d   1      13.512  -5.668   6.950  0.00  0.00     0.173 HD
ATOM     10  H10 N5Y d   1      11.928  -2.772   8.174  0.00  0.00     0.100 H 
ENDROOT
BRANCH   8  11
ATOM     11  NAG N5Y d   1      10.203  -3.041   8.440  0.00  0.00    -0.332 N 
ATOM     12  CA0 N5Y d   1      10.298  -2.716   9.752  0.00  0.00     0.254 C 
ATOM     13  OAC N5Y d   1       9.281  -2.509  10.416  0.00  0.00    -0.267 OA
BRANCH  12  14
ATOM     14  CAT N5Y d   1      11.541  -2.587  10.384  0.00  0.00     0.032 A 
ATOM     15  CAS N5Y d   1      12.649  -1.976   9.778  0.00  0.00    -0.068 A 
ATOM     16  CAR N5Y d   1      13.847  -1.847  10.483  0.00  0.00    -0.082 A 
ATOM     17  H11 N5Y d   1      12.575  -1.604   8.762  0.00  0.00     0.085 H 
ATOM     18  CAI N5Y d   1      13.935  -2.320  11.789  0.00  0.00    -0.083 A 
ATOM     19  H12 N5Y d   1      14.706  -1.380  10.015  0.00  0.00     0.083 H 
ATOM     20  CAJ N5Y d   1      12.841  -2.905  12.400  0.00  0.00    -0.082 A 
ATOM     21  H13 N5Y d   1      14.869  -2.229  12.332  0.00  0.00     0.083 H 
ATOM     22  CAK N5Y d   1      11.646  -3.041  11.704  0.00  0.00    -0.068 A 
ATOM     23  H14 N5Y d   1      12.916  -3.258  13.422  0.00  0.00     0.083 H 
ATOM     24  H18 N5Y d   1      10.791  -3.501  12.186  0.00  0.00     0.085 H 
ENDBRANCH  12  14
BRANCH  11  25
ATOM     25  CAA N5Y d   1       8.829  -3.182   7.917  0.00  0.00    -0.014 C 
ATOM     26  H15 N5Y d   1       8.109  -2.887   8.694  0.00  0.00     0.056 H 
ATOM     27  H16 N5Y d   1       8.651  -4.229   7.631  0.00  0.00     0.056 H 
ATOM     28  H17 N5Y d   1       8.704  -2.535   7.036  0.00  0.00     0.056 H 
ENDBRANCH  11  25
ENDBRANCH   8  11
BRANCH   2  29
ATOM     29  NAP N5Y d   1      10.635  -1.487   6.314  0.00  0.00    -0.285 NA
ATOM     30  H8  N5Y d   1       9.917  -1.290   6.994  0.00  0.00     0.188 HD
ENDBRANCH   2  29
BRANCH   1  31
ATOM     31  CAU N5Y d   1      12.549  -2.028   4.311  0.00  0.00     0.029 C 
ATOM     32  H6  N5Y d   1      12.634  -2.731   3.469  0.00  0.00     0.072 H 
ATOM     33  H7  N5Y d   1      11.623  -1.442   4.208  0.00  0.00     0.072 H 
BRANCH  31  34
ATOM     34  CAV N5Y d   1      13.613  -1.115   4.174  0.00  0.00    -0.040 A 
ATOM     35  CAY N5Y d   1      13.476  -0.141   3.173  0.00  0.00    -0.075 A 
ATOM     36  CAZ N5Y d   1      14.479   0.803   2.949  0.00  0.00    -0.082 A 
ATOM     37  H1  N5Y d   1      12.579  -0.122   2.565  0.00  0.00     0.084 H 
ATOM     38  CBA N5Y d   1      15.634   0.778   3.727  0.00  0.00    -0.083 A 
ATOM     39  H2  N5Y d   1      14.360   1.552   2.174  0.00  0.00     0.083 H 
ATOM     40  CAX N5Y d   1      15.776  -0.202   4.701  0.00  0.00    -0.082 A 
ATOM     41  H3  N5Y d   1      16.414   1.515   3.574  0.00  0.00     0.083 H 
ATOM     42  CAW N5Y d   1      14.781  -1.147   4.930  0.00  0.00    -0.075 A 
ATOM     43  H4  N5Y d   1      16.682  -0.231   5.296  0.00  0.00     0.083 H 
ATOM     44  H5  N5Y d   1      14.915  -1.905   5.694  0.00  0.00     0.084 H 
ENDBRANCH  31  34
ENDBRANCH   1  31
TORSDOF 6
