REMARK  4 active torsions:
REMARK  status: ('A' for Active; 'I' for Inactive)
REMARK    1  A    between atoms: C5_5  and  C10_10 
REMARK    2  A    between atoms: S24_24  and  C1_8 
REMARK    3  A    between atoms: C4_9  and  N6_20 
REMARK       I    between atoms: C10_10  and  N12_18 
REMARK       I    between atoms: C7_11  and  N9_19 
REMARK       I    between atoms: N6_20  and  C7_11 
REMARK    4  A    between atoms: C13_16  and  S24_24 
ROOT
ATOM      1  C22 LTI d   1      13.322 -25.545 -17.751  0.00  0.00    -0.082 A 
ATOM      2  C21 LTI d   1      12.056 -24.943 -17.878  0.00  0.00    -0.082 A 
ATOM      3  C23 LTI d   1      13.410 -26.962 -17.742  0.00  0.00    -0.076 A 
ATOM      4  C20 LTI d   1      10.895 -25.777 -17.985  0.00  0.00    -0.075 A 
ATOM      5  C18 LTI d   1      12.272 -27.794 -17.854  0.00  0.00    -0.051 A 
ATOM      6  C19 LTI d   1      10.990 -27.196 -17.980  0.00  0.00    -0.038 A 
ATOM      7  C17 LTI d   1      12.486 -29.277 -17.823  0.00  0.00    -0.040 C 
ATOM      8  C16 LTI d   1      12.032 -29.922 -19.109  0.00  0.00    -0.061 C 
ATOM      9  C15 LTI d   1      10.549 -30.202 -19.096  0.00  0.00    -0.063 C 
ATOM     10  C14 LTI d   1       9.754 -28.928 -19.311  0.00  0.00    -0.049 C 
ATOM     11  C13 LTI d   1       9.715 -27.993 -18.092  0.00  0.00     0.023 C 
ATOM     12  H1  LTI d   1      14.215 -24.937 -17.662  0.00  0.00     0.083 H 
ATOM     13  H2  LTI d   1      11.960 -23.863 -17.895  0.00  0.00     0.083 H 
ATOM     14  H3  LTI d   1      14.386 -27.423 -17.646  0.00  0.00     0.084 H 
ATOM     15  H4  LTI d   1       9.919 -25.314 -18.072  0.00  0.00     0.084 H 
ATOM     16  H5  LTI d   1      11.914 -29.704 -16.986  0.00  0.00     0.040 H 
ATOM     17  H6  LTI d   1      13.557 -29.482 -17.678  0.00  0.00     0.040 H 
ATOM     18  H7  LTI d   1      12.573 -30.870 -19.244  0.00  0.00     0.033 H 
ATOM     19  H8  LTI d   1      12.261 -29.247 -19.947  0.00  0.00     0.033 H 
ATOM     20  H9  LTI d   1      10.274 -30.638 -18.125  0.00  0.00     0.033 H 
ATOM     21  H10 LTI d   1      10.310 -30.915 -19.899  0.00  0.00     0.033 H 
ATOM     22  H11 LTI d   1       8.720 -29.206 -19.565  0.00  0.00     0.035 H 
ATOM     23  H12 LTI d   1      10.204 -28.379 -20.152  0.00  0.00     0.035 H 
ATOM     24  H13 LTI d   1       8.921 -27.261 -18.298  0.00  0.00     0.064 H 
ENDROOT
BRANCH  11  25
ATOM     25  S24 LTI d   1       9.206 -28.840 -16.522  0.00  0.00    -0.099 SA
BRANCH  25  26
ATOM     26  C1  LTI d   1       8.263 -27.667 -15.621  0.00  0.00     0.121 A 
ATOM     27  C5  LTI d   1       8.237 -27.511 -14.187  0.00  0.00     0.103 A 
ATOM     28  C4  LTI d   1       7.338 -26.476 -13.876  0.00  0.00     0.115 A 
ATOM     29  S3  LTI d   1       6.657 -25.813 -15.322  0.00  0.00     0.031 SA
ATOM     30  N2  LTI d   1       7.491 -26.853 -16.343  0.00  0.00    -0.202 NA
BRANCH  27  31
ATOM     31  C10 LTI d   1       8.948 -28.245 -13.118  0.00  0.00     0.255 C 
ATOM     32  N12 LTI d   1       9.986 -29.025 -13.525  0.00  0.00    -0.366 N 
ATOM     33  H14 LTI d   1      10.511 -29.549 -12.854  0.00  0.00     0.159 HD
ATOM     34  H15 LTI d   1      10.224 -29.074 -14.495  0.00  0.00     0.159 HD
ATOM     35  O11 LTI d   1       8.647 -28.151 -11.930  0.00  0.00    -0.268 OA
ENDBRANCH  27  31
BRANCH  28  36
ATOM     36  N6  LTI d   1       7.003 -26.036 -12.591  0.00  0.00    -0.301 N 
ATOM     37  C7  LTI d   1       6.113 -25.049 -12.238  0.00  0.00     0.318 C 
ATOM     38  N9  LTI d   1       6.013 -24.886 -10.879  0.00  0.00    -0.352 N 
ATOM     39  O8  LTI d   1       5.460 -24.381 -13.024  0.00  0.00    -0.247 OA
ATOM     40  H16 LTI d   1       5.395 -24.196 -10.502  0.00  0.00     0.160 HD
ATOM     41  H17 LTI d   1       6.558 -25.457 -10.265  0.00  0.00     0.160 HD
ATOM     42  H18 LTI d   1       7.469 -26.497 -11.835  0.00  0.00     0.171 HD
ENDBRANCH  28  36
ENDBRANCH  25  26
ENDBRANCH  11  25
TORSDOF 4
