REMARK  3 active torsions:
REMARK  status: ('A' for Active; 'I' for Inactive)
REMARK    1  A    between atoms: C8_8  and  C10_10 
REMARK    2  A    between atoms: C12_12  and  S15_15 
REMARK    3  A    between atoms: S15_15  and  N18_18 
ROOT
ATOM      1  C1  Z3R d   1       5.157  28.334   3.958  0.00  0.00    -0.081 A 
ATOM      2  C2  Z3R d   1       5.948  27.376   4.620  0.00  0.00    -0.082 A 
ATOM      3  C3  Z3R d   1       7.163  26.956   4.069  0.00  0.00    -0.064 A 
ATOM      4  C4  Z3R d   1       7.564  27.486   2.831  0.00  0.00     0.035 A 
ATOM      5  C5  Z3R d   1       6.779  28.442   2.162  0.00  0.00     0.075 A 
ATOM      6  C6  Z3R d   1       5.553  28.863   2.751  0.00  0.00    -0.054 A 
ATOM      7  N7  Z3R d   1       7.334  28.860   0.994  0.00  0.00    -0.240 NA
ATOM      8  C8  Z3R d   1       8.490  28.358   0.678  0.00  0.00     0.109 A 
ATOM      9  S9  Z3R d   1       9.012  27.183   1.859  0.00  0.00    -0.067 SA
ATOM     10  H1  Z3R d   1       4.224  28.659   4.405  0.00  0.00     0.083 H 
ATOM     11  H2  Z3R d   1       5.613  26.961   5.564  0.00  0.00     0.083 H 
ATOM     12  H3  Z3R d   1       7.784  26.235   4.588  0.00  0.00     0.085 H 
ATOM     13  H4  Z3R d   1       4.933  29.598   2.250  0.00  0.00     0.087 H 
ENDROOT
BRANCH   8  14
ATOM     14  C10 Z3R d   1       9.282  28.685  -0.517  0.00  0.00     0.008 A 
ATOM     15  C11 Z3R d   1      10.462  28.015  -0.863  0.00  0.00    -0.040 A 
ATOM     16  C12 Z3R d   1      11.006  28.506  -1.970  0.00  0.00     0.120 A 
ATOM     17  H5  Z3R d   1      10.883  27.189  -0.292  0.00  0.00     0.088 H 
ATOM     18  S13 Z3R d   1      10.098  29.833  -2.613  0.00  0.00    -0.087 SA
ATOM     19  C14 Z3R d   1       8.951  29.687  -1.349  0.00  0.00    -0.031 A 
ATOM     20  H6  Z3R d   1       8.072  30.320  -1.235  0.00  0.00     0.096 H 
BRANCH  16  21
ATOM     21  S15 Z3R d   1      12.441  27.980  -2.816  0.00  0.00     0.263 S 
ATOM     22  O16 Z3R d   1      11.896  27.465  -4.021  0.00  0.00    -0.200 OA
ATOM     23  O17 Z3R d   1      13.355  29.058  -2.885  0.00  0.00    -0.200 OA
BRANCH  21  24
ATOM     24  N18 Z3R d   1      13.081  26.714  -1.988  0.00  0.00    -0.324 N 
ATOM     25  H7  Z3R d   1      13.914  26.271  -2.318  0.00  0.00     0.169 HD
ATOM     26  H8  Z3R d   1      12.637  26.387  -1.154  0.00  0.00     0.169 HD
ENDBRANCH  21  24
ENDBRANCH  16  21
ENDBRANCH   8  14
TORSDOF 3
