REMARK  2 active torsions:
REMARK  status: ('A' for Active; 'I' for Inactive)
REMARK    1  A    between atoms: C8_7  and  C10_9 
REMARK    2  A    between atoms: C10_9  and  C11_10 
ROOT
ATOM      1  C1  4AU d   1      19.744  36.715 -11.476  0.00  0.00    -0.081 A 
ATOM      2  C2  4AU d   1      20.440  36.603 -10.284  0.00  0.00    -0.053 A 
ATOM      3  C3  4AU d   1      21.440  35.651 -10.181  0.00  0.00     0.086 A 
ATOM      4  C4  4AU d   1      21.723  34.827 -11.259  0.00  0.00     0.062 A 
ATOM      5  C5  4AU d   1      21.018  34.928 -12.445  0.00  0.00    -0.055 A 
ATOM      6  C6  4AU d   1      20.024  35.881 -12.542  0.00  0.00    -0.081 A 
ATOM      7  C8  4AU d   1      23.051  34.311  -9.583  0.00  0.00     0.182 A 
ATOM      8  N17 4AU d   1      22.287  35.335  -9.104  0.00  0.00    -0.225 NA
ATOM      9  N9  4AU d   1      22.730  33.991 -10.873  0.00  0.00    -0.336 N 
ATOM     10  H1  4AU d   1      18.969  37.467 -11.574  0.00  0.00     0.083 H 
ATOM     11  H2  4AU d   1      20.206  37.250  -9.446  0.00  0.00     0.087 H 
ATOM     12  H3  4AU d   1      21.241  34.273 -13.280  0.00  0.00     0.087 H 
ATOM     13  H4  4AU d   1      19.458  35.976 -13.462  0.00  0.00     0.083 H 
ATOM     14  H9  4AU d   1      23.167  33.256 -11.447  0.00  0.00     0.168 HD
ENDROOT
BRANCH   7  15
ATOM     15  C10 4AU d   1      24.119  33.600  -8.879  0.00  0.00     0.244 C 
ATOM     16  O16 4AU d   1      24.745  32.769  -9.496  0.00  0.00    -0.282 OA
BRANCH  15  17
ATOM     17  C11 4AU d   1      24.402  33.903  -7.464  0.00  0.00     0.086 A 
ATOM     18  C12 4AU d   1      23.788  34.740  -6.531  0.00  0.00    -0.052 A 
ATOM     19  C13 4AU d   1      24.483  34.616  -5.333  0.00  0.00    -0.066 A 
ATOM     20  H5  4AU d   1      22.922  35.375  -6.709  0.00  0.00     0.087 H 
ATOM     21  C14 4AU d   1      25.519  33.702  -5.551  0.00  0.00    -0.022 A 
ATOM     22  H6  4AU d   1      24.262  35.133  -4.401  0.00  0.00     0.085 H 
ATOM     23  N7  4AU d   1      25.455  33.280  -6.838  0.00  0.00    -0.363 N 
ATOM     24  H7  4AU d   1      26.253  33.383  -4.812  0.00  0.00     0.111 H 
ATOM     25  H8  4AU d   1      26.093  32.601  -7.276  0.00  0.00     0.165 HD
ENDBRANCH  15  17
ENDBRANCH   7  15
TORSDOF 2
