REMARK  10 active torsions:
REMARK  status: ('A' for Active; 'I' for Inactive)
REMARK    1  A    between atoms: C6_2  and  O6_1 
REMARK    2  A    between atoms: C5_3  and  C6_2 
REMARK    3  A    between atoms: C4_5  and  O4_6 
REMARK    4  A    between atoms: C3_7  and  O3_8 
REMARK    5  A    between atoms: C2_9  and  O2_10 
REMARK    6  A    between atoms: C7_12  and  O7_11 
REMARK    7  A    between atoms: C8_13  and  C7_12 
REMARK    8  A    between atoms: C10_15  and  C9_14 
REMARK    9  A    between atoms: O1_19  and  C13_18 
REMARK   10  A    between atoms: O1_19  and  C1_20 
ROOT
ATOM      1  C5  HNW d   1      14.954 -61.923  20.734  0.00  0.00     0.089 C 
ATOM      2  O5  HNW d   1      14.735 -61.916  22.197  0.00  0.00    -0.348 OA
ATOM      3  C4  HNW d   1      13.611 -61.736  20.018  0.00  0.00     0.090 C 
ATOM      4  C3  HNW d   1      12.693 -62.724  20.424  0.00  0.00     0.092 C 
ATOM      5  C2  HNW d   1      12.470 -62.689  21.888  0.00  0.00     0.110 C 
ATOM      6  C1  HNW d   1      13.819 -62.907  22.590  0.00  0.00     0.164 C 
ATOM      7  H4  HNW d   1      15.379 -62.893  20.438  0.00  0.00     0.090 H 
ATOM      8  H5  HNW d   1      13.199 -60.752  20.286  0.00  0.00     0.091 H 
ATOM      9  H7  HNW d   1      13.076 -63.716  20.143  0.00  0.00     0.091 H 
ATOM     10  H9  HNW d   1      11.794 -63.516  22.152  0.00  0.00     0.094 H 
ATOM     11  H16 HNW d   1      13.715 -62.854  23.684  0.00  0.00     0.134 H 
ENDROOT
BRANCH   6  12
ATOM     12  O1  HNW d   1      14.074 -64.207  22.209  0.00  0.00    -0.318 OA
BRANCH  12  13
ATOM     13  C13 HNW d   1      15.289 -64.868  22.450  0.00  0.00     0.072 A 
ATOM     14  C14 HNW d   1      16.220 -64.347  23.300  0.00  0.00    -0.049 A 
ATOM     15  C15 HNW d   1      17.418 -65.069  23.497  0.00  0.00    -0.062 A 
ATOM     16  H15 HNW d   1      16.046 -63.406  23.809  0.00  0.00     0.087 H 
ATOM     17  C10 HNW d   1      17.718 -66.239  22.905  0.00  0.00     0.018 A 
ATOM     18  H14 HNW d   1      18.151 -64.649  24.176  0.00  0.00     0.085 H 
ATOM     19  C11 HNW d   1      16.785 -66.784  22.056  0.00  0.00    -0.062 A 
ATOM     20  C12 HNW d   1      15.566 -66.064  21.864  0.00  0.00    -0.049 A 
ATOM     21  H18 HNW d   1      16.967 -67.725  21.551  0.00  0.00     0.085 H 
ATOM     22  H17 HNW d   1      14.816 -66.497  21.212  0.00  0.00     0.087 H 
BRANCH  17  23
ATOM     23  C9  HNW d   1      19.027 -66.825  23.263  0.00  0.00    -0.065 C 
ATOM     24  C8  HNW d   1      20.135 -67.149  23.669  0.00  0.00    -0.075 C 
BRANCH  24  25
ATOM     25  C7  HNW d   1      21.527 -67.605  24.159  0.00  0.00     0.071 C 
ATOM     26  H12 HNW d   1      22.264 -67.052  23.558  0.00  0.00     0.093 H 
ATOM     27  H13 HNW d   1      21.604 -67.293  25.211  0.00  0.00     0.093 H 
BRANCH  25  28
ATOM     28  O7  HNW d   1      21.912 -68.952  24.117  0.00  0.00    -0.389 OA
ATOM     29  H11 HNW d   1      22.795 -69.039  24.457  0.00  0.00     0.210 HD
ENDBRANCH  25  28
ENDBRANCH  24  25
ENDBRANCH  17  23
ENDBRANCH  12  13
ENDBRANCH   6  12
BRANCH   5  30
ATOM     30  O2  HNW d   1      11.897 -61.523  22.325  0.00  0.00    -0.388 OA
ATOM     31  H10 HNW d   1      11.053 -61.410  21.905  0.00  0.00     0.210 HD
ENDBRANCH   5  30
BRANCH   1  32
ATOM     32  C6  HNW d   1      15.880 -60.892  20.385  0.00  0.00     0.043 C 
ATOM     33  H2  HNW d   1      16.878 -61.194  20.737  0.00  0.00     0.078 H 
ATOM     34  H3  HNW d   1      15.891 -60.797  19.289  0.00  0.00     0.078 H 
BRANCH  32  35
ATOM     35  O6  HNW d   1      15.587 -59.638  20.928  0.00  0.00    -0.398 OA
ATOM     36  H1  HNW d   1      16.246 -59.012  20.650  0.00  0.00     0.209 HD
ENDBRANCH  32  35
ENDBRANCH   1  32
BRANCH   4  37
ATOM     37  O3  HNW d   1      11.459 -62.472  19.749  0.00  0.00    -0.390 OA
ATOM     38  H8  HNW d   1      10.820 -63.126  20.006  0.00  0.00     0.210 HD
ENDBRANCH   4  37
BRANCH   3  39
ATOM     39  O4  HNW d   1      13.834 -61.769  18.603  0.00  0.00    -0.390 OA
ATOM     40  H6  HNW d   1      14.429 -61.069  18.361  0.00  0.00     0.210 HD
ENDBRANCH   3  39
TORSDOF 10
