REMARK  11 active torsions:
REMARK  status: ('A' for Active; 'I' for Inactive)
REMARK    1  A    between atoms: O6_1  and  C6_2 
REMARK    2  A    between atoms: C6_2  and  C5_3 
REMARK    3  A    between atoms: C4_5  and  O4_6 
REMARK    4  A    between atoms: C3_7  and  O3_8 
REMARK    5  A    between atoms: C2_9  and  O2_10 
REMARK    6  A    between atoms: C1_11  and  O1_12 
REMARK    7  A    between atoms: O1_12  and  C7_13 
REMARK    8  A    between atoms: C7_13  and  C8_14 
REMARK    9  A    between atoms: C9_15  and  C10_16 
REMARK   10  A    between atoms: C13_19  and  O7_20 
REMARK   11  A    between atoms: O7_20  and  C16_21 
ROOT
ATOM      1  C5  HNV d   1     -14.827  61.919  20.548  0.00  0.00     0.089 C 
ATOM      2  O5  HNV d   1     -14.646  61.954  21.937  0.00  0.00    -0.348 OA
ATOM      3  C4  HNV d   1     -13.480  61.685  19.842  0.00  0.00     0.090 C 
ATOM      4  C3  HNV d   1     -12.528  62.660  20.198  0.00  0.00     0.092 C 
ATOM      5  C2  HNV d   1     -12.325  62.732  21.609  0.00  0.00     0.110 C 
ATOM      6  C1  HNV d   1     -13.631  62.834  22.381  0.00  0.00     0.159 C 
ATOM      7  H4  HNV d   1     -15.248  62.879  20.214  0.00  0.00     0.090 H 
ATOM      8  H5  HNV d   1     -13.087  60.715  20.182  0.00  0.00     0.091 H 
ATOM      9  H7  HNV d   1     -12.893  63.637  19.849  0.00  0.00     0.091 H 
ATOM     10  H9  HNV d   1     -11.697  63.610  21.820  0.00  0.00     0.094 H 
ATOM     11  H11 HNV d   1     -13.417  62.566  23.426  0.00  0.00     0.133 H 
ENDROOT
BRANCH   6  12
ATOM     12  O1  HNV d   1     -14.036  64.134  22.357  0.00  0.00    -0.347 OA
BRANCH  12  13
ATOM     13  C7  HNV d   1     -15.176  64.435  23.071  0.00  0.00     0.077 C 
ATOM     14  H12 HNV d   1     -14.848  64.751  24.073  0.00  0.00     0.094 H 
ATOM     15  H13 HNV d   1     -15.755  63.503  23.151  0.00  0.00     0.094 H 
BRANCH  13  16
ATOM     16  C8  HNV d   1     -16.115  65.482  22.577  0.00  0.00    -0.075 C 
ATOM     17  C9  HNV d   1     -16.956  66.286  22.233  0.00  0.00    -0.065 C 
BRANCH  17  18
ATOM     18  C10 HNV d   1     -18.045  67.212  21.830  0.00  0.00     0.018 A 
ATOM     19  C15 HNV d   1     -17.768  68.549  21.574  0.00  0.00    -0.062 A 
ATOM     20  C14 HNV d   1     -18.817  69.378  21.181  0.00  0.00    -0.049 A 
ATOM     21  H14 HNV d   1     -16.761  68.938  21.677  0.00  0.00     0.085 H 
ATOM     22  C13 HNV d   1     -20.115  68.890  21.029  0.00  0.00     0.068 A 
ATOM     23  H15 HNV d   1     -18.620  70.427  20.989  0.00  0.00     0.087 H 
ATOM     24  C12 HNV d   1     -20.383  67.543  21.282  0.00  0.00    -0.049 A 
ATOM     25  C11 HNV d   1     -19.339  66.710  21.680  0.00  0.00    -0.062 A 
ATOM     26  H19 HNV d   1     -21.388  67.151  21.171  0.00  0.00     0.087 H 
ATOM     27  H20 HNV d   1     -19.534  65.662  21.875  0.00  0.00     0.085 H 
BRANCH  22  28
ATOM     28  O7  HNV d   1     -21.122  69.752  20.632  0.00  0.00    -0.356 OA
BRANCH  28  29
ATOM     29  C16 HNV d   1     -21.224  70.182  19.315  0.00  0.00     0.010 C 
ATOM     30  H16 HNV d   1     -22.087  70.856  19.215  0.00  0.00     0.066 H 
ATOM     31  H17 HNV d   1     -21.360  69.313  18.655  0.00  0.00     0.066 H 
ATOM     32  H18 HNV d   1     -20.306  70.718  19.032  0.00  0.00     0.066 H 
ENDBRANCH  28  29
ENDBRANCH  22  28
ENDBRANCH  17  18
ENDBRANCH  13  16
ENDBRANCH  12  13
ENDBRANCH   6  12
BRANCH   5  33
ATOM     33  O2  HNV d   1     -11.708  61.558  22.134  0.00  0.00    -0.388 OA
ATOM     34  H10 HNV d   1     -10.861  61.436  21.722  0.00  0.00     0.210 HD
ENDBRANCH   5  33
BRANCH   1  35
ATOM     35  C6  HNV d   1     -15.765  60.823  20.199  0.00  0.00     0.043 C 
ATOM     36  H2  HNV d   1     -16.749  61.078  20.619  0.00  0.00     0.078 H 
ATOM     37  H3  HNV d   1     -15.834  60.778  19.102  0.00  0.00     0.078 H 
BRANCH  35  38
ATOM     38  O6  HNV d   1     -15.427  59.554  20.654  0.00  0.00    -0.398 OA
ATOM     39  H1  HNV d   1     -16.090  58.932  20.377  0.00  0.00     0.209 HD
ENDBRANCH  35  38
ENDBRANCH   1  35
BRANCH   4  40
ATOM     40  O3  HNV d   1     -11.235  62.375  19.548  0.00  0.00    -0.390 OA
ATOM     41  H8  HNV d   1     -10.604  63.040  19.797  0.00  0.00     0.210 HD
ENDBRANCH   4  40
BRANCH   3  42
ATOM     42  O4  HNV d   1     -13.698  61.588  18.432  0.00  0.00    -0.390 OA
ATOM     43  H6  HNV d   1     -14.283  60.861  18.252  0.00  0.00     0.210 HD
ENDBRANCH   3  42
TORSDOF 11
