REMARK  8 active torsions:
REMARK  status: ('A' for Active; 'I' for Inactive)
REMARK    1  A    between atoms: C16_7  and  C15_8 
REMARK    2  A    between atoms: C15_8  and  C11_9 
REMARK    3  A    between atoms: C11_9  and  C14_12 
REMARK    4  A    between atoms: C14_12  and  C22_14 
REMARK    5  A    between atoms: C22_14  and  C23_15 
REMARK    6  A    between atoms: C23_15  and  C24_17 
REMARK    7  A    between atoms: N8_22  and  C7_23 
REMARK    8  A    between atoms: C7_23  and  C2_24 
ROOT
ATOM      1  C11 SL6 d   1      16.696 -23.576 -12.752  0.00  0.00     0.027 C 
ATOM      2  C10 SL6 d   1      17.692 -24.361 -13.641  0.00  0.00    -0.028 C 
ATOM      3  C9  SL6 d   1      18.840 -24.999 -12.852  0.00  0.00     0.085 C 
ATOM      4  C12 SL6 d   1      16.805 -24.095 -11.303  0.00  0.00    -0.028 C 
ATOM      5  C13 SL6 d   1      18.186 -23.993 -10.698  0.00  0.00     0.085 C 
ATOM      6  N8  SL6 d   1      19.283 -24.261 -11.643  0.00  0.00    -0.071 N 
ATOM      7  H7  SL6 d   1      18.120 -23.668 -14.380  0.00  0.00     0.037 H 
ATOM      8  H8  SL6 d   1      17.141 -25.158 -14.161  0.00  0.00     0.037 H 
ATOM      9  H9  SL6 d   1      19.704 -25.090 -13.527  0.00  0.00     0.076 H 
ATOM     10  H10 SL6 d   1      18.515 -26.001 -12.535  0.00  0.00     0.076 H 
ATOM     11  H13 SL6 d   1      16.505 -25.153 -11.294  0.00  0.00     0.037 H 
ATOM     12  H14 SL6 d   1      16.113 -23.512 -10.677  0.00  0.00     0.037 H 
ATOM     13  H15 SL6 d   1      18.256 -24.719  -9.874  0.00  0.00     0.076 H 
ATOM     14  H16 SL6 d   1      18.314 -22.975 -10.301  0.00  0.00     0.076 H 
ATOM     15  H17 SL6 d   1      19.669 -23.384 -11.954  0.00  0.00     0.279 HD
ENDROOT
BRANCH   1  16
ATOM     16  C15 SL6 d   1      15.268 -23.953 -13.106  0.00  0.00    -0.027 C 
ATOM     17  H5  SL6 d   1      15.225 -25.052 -13.108  0.00  0.00     0.041 H 
ATOM     18  H6  SL6 d   1      14.632 -23.562 -12.298  0.00  0.00     0.041 H 
BRANCH  16  19
ATOM     19  C16 SL6 d   1      14.657 -23.505 -14.379  0.00  0.00    -0.057 A 
ATOM     20  C17 SL6 d   1      14.491 -24.417 -15.416  0.00  0.00    -0.075 A 
ATOM     21  C18 SL6 d   1      13.860 -24.002 -16.579  0.00  0.00    -0.061 A 
ATOM     22  H2  SL6 d   1      14.849 -25.435 -15.317  0.00  0.00     0.084 H 
ATOM     23  C19 SL6 d   1      13.381 -22.686 -16.673  0.00  0.00     0.034 A 
ATOM     24  H1  SL6 d   1      13.738 -24.689 -17.409  0.00  0.00     0.086 H 
ATOM     25 CL2  SL6 d   1      12.542 -22.115 -18.164  0.00  0.00    -0.084 Cl
ATOM     26  C20 SL6 d   1      13.533 -21.791 -15.616  0.00  0.00    -0.061 A 
ATOM     27  C21 SL6 d   1      14.158 -22.218 -14.456  0.00  0.00    -0.075 A 
ATOM     28  H3  SL6 d   1      13.167 -20.774 -15.700  0.00  0.00     0.086 H 
ATOM     29  H4  SL6 d   1      14.255 -21.545 -13.611  0.00  0.00     0.084 H 
ENDBRANCH  16  19
ENDBRANCH   1  16
BRANCH   1  30
ATOM     30  C14 SL6 d   1      16.905 -22.072 -12.811  0.00  0.00     0.139 C 
ATOM     31  O27 SL6 d   1      16.644 -21.425 -11.810  0.00  0.00    -0.297 OA
BRANCH  30  32
ATOM     32  C22 SL6 d   1      17.476 -21.514 -14.070  0.00  0.00     0.036 C 
ATOM     33  H11 SL6 d   1      16.728 -21.763 -14.837  0.00  0.00     0.050 H 
ATOM     34  H12 SL6 d   1      18.386 -22.108 -14.239  0.00  0.00     0.050 H 
BRANCH  32  35
ATOM     35  C23 SL6 d   1      17.847 -20.253 -14.369  0.00  0.00     0.234 C 
ATOM     36  O28 SL6 d   1      17.691 -19.285 -13.502  0.00  0.00    -0.212 OA
BRANCH  35  37
ATOM     37  C24 SL6 d   1      18.430 -19.956 -15.719  0.00  0.00     0.217 C 
ATOM     38  O26 SL6 d   1      18.750 -18.782 -16.015  0.00  0.00    -0.646 OA
ATOM     39  O25 SL6 d   1      18.568 -20.901 -16.563  0.00  0.00    -0.646 OA
ENDBRANCH  35  37
ENDBRANCH  32  35
ENDBRANCH  30  32
ENDBRANCH   1  30
BRANCH   6  40
ATOM     40  C7  SL6 d   1      20.314 -24.983 -10.838  0.00  0.00     0.087 C 
ATOM     41  H18 SL6 d   1      19.872 -25.921 -10.471  0.00  0.00     0.076 H 
ATOM     42  H19 SL6 d   1      20.591 -24.349  -9.983  0.00  0.00     0.076 H 
BRANCH  40  43
ATOM     43  C2  SL6 d   1      21.585 -25.322 -11.618  0.00  0.00    -0.031 C 
ATOM     44  C3  SL6 d   1      22.818 -24.903 -10.803  0.00  0.00    -0.060 C 
ATOM     45  C4  SL6 d   1      24.115 -25.483 -11.398  0.00  0.00    -0.065 C 
ATOM     46  H21 SL6 d   1      22.705 -25.267  -9.771  0.00  0.00     0.033 H 
ATOM     47  H22 SL6 d   1      22.887 -23.805 -10.799  0.00  0.00     0.033 H 
ATOM     48  C5  SL6 d   1      24.056 -26.987 -11.597  0.00  0.00    -0.065 C 
ATOM     49  H23 SL6 d   1      24.947 -25.252 -10.717  0.00  0.00     0.033 H 
ATOM     50  H24 SL6 d   1      24.297 -25.007 -12.373  0.00  0.00     0.033 H 
ATOM     51  C6  SL6 d   1      22.903 -27.345 -12.535  0.00  0.00    -0.065 C 
ATOM     52  H25 SL6 d   1      23.900 -27.477 -10.625  0.00  0.00     0.033 H 
ATOM     53  H26 SL6 d   1      25.003 -27.334 -12.035  0.00  0.00     0.033 H 
ATOM     54  C1  SL6 d   1      21.579 -26.836 -11.957  0.00  0.00    -0.060 C 
ATOM     55  H27 SL6 d   1      22.854 -28.438 -12.651  0.00  0.00     0.033 H 
ATOM     56  H28 SL6 d   1      23.074 -26.880 -13.517  0.00  0.00     0.033 H 
ATOM     57  H29 SL6 d   1      20.784 -27.023 -12.694  0.00  0.00     0.033 H 
ATOM     58  H30 SL6 d   1      21.364 -27.397 -11.036  0.00  0.00     0.033 H 
ATOM     59  H20 SL6 d   1      21.587 -24.756 -12.561  0.00  0.00     0.042 H 
ENDBRANCH  40  43
ENDBRANCH   6  40
TORSDOF 8
