REMARK  7 active torsions:
REMARK  status: ('A' for Active; 'I' for Inactive)
REMARK       I    between atoms: N1_1  and  C6_9 
REMARK    1  A    between atoms: C2_2  and  C1_6 
REMARK    2  A    between atoms: C6_9  and  C7_11 
REMARK    3  A    between atoms: C7_11  and  C8_12 
REMARK    4  A    between atoms: C8_12  and  C9_13 
REMARK    5  A    between atoms: C9_13  and  C10_14 
REMARK    6  A    between atoms: C10_14  and  C11_15 
REMARK       I    between atoms: C11_15  and  N2_17 
REMARK    7  A    between atoms: C15_18  and  C16_22 
ROOT
ATOM      1  C8  GHE d   1      56.806 196.120  79.148  0.00  0.00    -0.057 C 
ATOM      2  H   GHE d   1      57.696 196.761  79.072  0.00  0.00     0.033 H 
ATOM      3  H   GHE d   1      55.900 196.736  79.049  0.00  0.00     0.033 H 
ENDROOT
BRANCH   1   4
ATOM      4  C7  GHE d   1      56.797 195.517  80.550  0.00  0.00     0.009 C 
ATOM      5  H   GHE d   1      57.837 195.398  80.886  0.00  0.00     0.047 H 
ATOM      6  H   GHE d   1      56.270 196.208  81.225  0.00  0.00     0.047 H 
BRANCH   4   7
ATOM      7  C6  GHE d   1      56.112 194.164  80.613  0.00  0.00     0.220 C 
ATOM      8  N1  GHE d   1      56.578 193.084  81.471  0.00  0.00    -0.337 N 
ATOM      9  C2  GHE d   1      55.958 191.806  81.523  0.00  0.00     0.098 C 
ATOM     10  C5  GHE d   1      57.699 193.161  82.332  0.00  0.00    -0.001 C 
ATOM     11  C3  GHE d   1      56.744 190.989  82.442  0.00  0.00    -0.035 C 
ATOM     12  H   GHE d   1      54.926 191.902  81.891  0.00  0.00     0.089 H 
ATOM     13  C4  GHE d   1      57.597 191.953  83.187  0.00  0.00    -0.048 C 
ATOM     14  H   GHE d   1      57.367 190.273  81.886  0.00  0.00     0.036 H 
ATOM     15  H   GHE d   1      56.085 190.443  83.133  0.00  0.00     0.036 H 
ATOM     16  H   GHE d   1      58.595 191.524  83.362  0.00  0.00     0.035 H 
ATOM     17  H   GHE d   1      57.133 192.207  84.152  0.00  0.00     0.035 H 
ATOM     18  H   GHE d   1      57.657 194.074  82.944  0.00  0.00     0.064 H 
ATOM     19  H   GHE d   1      58.635 193.150  81.754  0.00  0.00     0.064 H 
ATOM     20  O6  GHE d   1      55.151 193.963  79.910  0.00  0.00    -0.273 OA
BRANCH   9  21
ATOM     21  C1  GHE d   1      55.945 191.183  80.165  0.00  0.00     0.196 C 
ATOM     22  O2  GHE d   1      55.064 190.324  79.882  0.00  0.00    -0.646 OA
ATOM     23  O1  GHE d   1      56.781 191.488  79.267  0.00  0.00    -0.646 OA
ENDBRANCH   9  21
ENDBRANCH   4   7
ENDBRANCH   1   4
BRANCH   1  24
ATOM     24  C9  GHE d   1      56.834 195.161  77.969  0.00  0.00    -0.057 C 
ATOM     25  H   GHE d   1      55.932 194.535  78.045  0.00  0.00     0.033 H 
ATOM     26  H   GHE d   1      57.728 194.532  78.091  0.00  0.00     0.033 H 
BRANCH  24  27
ATOM     27  C10 GHE d   1      56.871 195.714  76.542  0.00  0.00     0.009 C 
ATOM     28  H   GHE d   1      55.985 195.344  76.006  0.00  0.00     0.047 H 
ATOM     29  H   GHE d   1      57.780 195.338  76.050  0.00  0.00     0.047 H 
BRANCH  27  30
ATOM     30  C11 GHE d   1      56.878 197.219  76.460  0.00  0.00     0.220 C 
ATOM     31  O11 GHE d   1      57.443 197.857  77.315  0.00  0.00    -0.273 OA
ATOM     32  N2  GHE d   1      56.230 197.955  75.441  0.00  0.00    -0.337 N 
ATOM     33  C15 GHE d   1      55.515 197.420  74.355  0.00  0.00     0.098 C 
ATOM     34  C12 GHE d   1      56.262 199.377  75.427  0.00  0.00    -0.001 C 
ATOM     35  C14 GHE d   1      55.376 198.553  73.411  0.00  0.00    -0.035 C 
ATOM     36  H   GHE d   1      56.088 196.601  73.895  0.00  0.00     0.089 H 
ATOM     37  C13 GHE d   1      55.590 199.811  74.182  0.00  0.00    -0.048 C 
ATOM     38  H   GHE d   1      54.369 198.551  72.968  0.00  0.00     0.036 H 
ATOM     39  H   GHE d   1      56.128 198.470  72.612  0.00  0.00     0.036 H 
ATOM     40  H   GHE d   1      54.629 200.296  74.408  0.00  0.00     0.035 H 
ATOM     41  H   GHE d   1      56.228 200.508  73.619  0.00  0.00     0.035 H 
ATOM     42  H   GHE d   1      57.303 199.732  75.438  0.00  0.00     0.064 H 
ATOM     43  H   GHE d   1      55.729 199.776  76.303  0.00  0.00     0.064 H 
BRANCH  33  44
ATOM     44  C16 GHE d   1      54.184 196.917  74.731  0.00  0.00     0.196 C 
ATOM     45  O16 GHE d   1      53.538 196.219  73.927  0.00  0.00    -0.646 OA
ATOM     46  O17 GHE d   1      53.649 197.166  75.838  0.00  0.00    -0.646 OA
ENDBRANCH  33  44
ENDBRANCH  27  30
ENDBRANCH  24  27
ENDBRANCH   1  24
TORSDOF 7
