REMARK  0 active torsions:
REMARK  status: ('A' for Active; 'I' for Inactive)
ROOT
ATOM      1  OAA LDR d   1     -38.458 -10.112  14.740  0.00  0.00    -0.267 OA
ATOM      2  CAB LDR d   1     -40.305 -10.866   9.211  0.00  0.00    -0.081 A 
ATOM      3  CAC LDR d   1     -41.333 -12.962  15.885  0.00  0.00    -0.082 A 
ATOM      4  CAD LDR d   1     -41.289 -11.821   9.437  0.00  0.00    -0.082 A 
ATOM      5  CAE LDR d   1     -42.116 -13.546  14.902  0.00  0.00    -0.082 A 
ATOM      6  CAF LDR d   1     -39.558 -10.354  10.258  0.00  0.00    -0.056 A 
ATOM      7  CAG LDR d   1     -40.353 -12.015  15.575  0.00  0.00    -0.067 A 
ATOM      8  CAH LDR d   1     -41.537 -12.285  10.724  0.00  0.00    -0.070 A 
ATOM      9  CAI LDR d   1     -41.975 -13.200  13.561  0.00  0.00    -0.071 A 
ATOM     10  NAJ LDR d   1     -39.039 -10.269  12.570  0.00  0.00    -0.322 N 
ATOM     11  CAK LDR d   1     -39.179 -10.629  13.859  0.00  0.00     0.257 A 
ATOM     12  CAL LDR d   1     -39.763 -10.784  11.562  0.00  0.00     0.046 A 
ATOM     13  CAM LDR d   1     -40.178 -11.644  14.250  0.00  0.00     0.043 A 
ATOM     14  CAN LDR d   1     -40.816 -11.792  11.809  0.00  0.00     0.002 A 
ATOM     15  CAO LDR d   1     -41.036 -12.242  13.202  0.00  0.00    -0.008 A 
ATOM     16  H1  LDR d   1     -40.120 -10.517   8.201  0.00  0.00     0.083 H 
ATOM     17  H2  LDR d   1     -41.484 -13.247  16.920  0.00  0.00     0.083 H 
ATOM     18  H3  LDR d   1     -41.867 -12.207   8.605  0.00  0.00     0.083 H 
ATOM     19  H4  LDR d   1     -42.854 -14.288  15.183  0.00  0.00     0.083 H 
ATOM     20  H5  LDR d   1     -38.801  -9.605  10.056  0.00  0.00     0.086 H 
ATOM     21  H6  LDR d   1     -39.741 -11.578  16.356  0.00  0.00     0.085 H 
ATOM     22  H7  LDR d   1     -42.300 -13.039  10.885  0.00  0.00     0.084 H 
ATOM     23  H8  LDR d   1     -42.592 -13.673  12.805  0.00  0.00     0.084 H 
ATOM     24  H9  LDR d   1     -38.354  -9.575  12.349  0.00  0.00     0.169 HD
ENDROOT
TORSDOF 0
