REMARK  0 active torsions:
REMARK  status: ('A' for Active; 'I' for Inactive)
ROOT
ATOM      1  CAO G18 d   1     -39.922 -12.798  13.338  0.00  0.00    -0.007 A 
ATOM      2  CAN G18 d   1     -39.116 -12.241  14.446  0.00  0.00     0.043 A 
ATOM      3  CAH G18 d   1     -39.291 -12.701  15.744  0.00  0.00    -0.067 A 
ATOM      4  CAD G18 d   1     -40.238 -13.696  16.000  0.00  0.00    -0.082 A 
ATOM      5  CAF G18 d   1     -41.009 -14.243  14.949  0.00  0.00    -0.082 A 
ATOM      6  CAL G18 d   1     -40.860 -13.785  13.627  0.00  0.00    -0.071 A 
ATOM      7  CAC G18 d   1     -39.875 -11.917   9.732  0.00  0.00    -0.042 A 
ATOM      8  CAG G18 d   1     -40.357 -12.632  10.826  0.00  0.00    -0.063 A 
ATOM      9  CAM G18 d   1     -39.701 -12.269  12.061  0.00  0.00     0.009 A 
ATOM     10  CAJ G18 d   1     -38.686 -11.240  11.844  0.00  0.00     0.087 A 
ATOM     11  NAC G18 d   1     -37.960 -10.762  12.861  0.00  0.00    -0.316 N 
ATOM     12  SAK G18 d   1     -38.635 -10.776  10.198  0.00  0.00    -0.083 SA
ATOM     13  CAK G18 d   1     -38.112 -11.187  14.121  0.00  0.00     0.257 A 
ATOM     14  OAB G18 d   1     -37.392 -10.715  15.027  0.00  0.00    -0.267 OA
ATOM     15  H1  G18 d   1     -38.697 -12.291  16.553  0.00  0.00     0.085 H 
ATOM     16  H2  G18 d   1     -40.383 -14.052  17.014  0.00  0.00     0.083 H 
ATOM     17  H3  G18 d   1     -41.726 -15.027  15.165  0.00  0.00     0.083 H 
ATOM     18  H4  G18 d   1     -41.474 -14.200  12.836  0.00  0.00     0.084 H 
ATOM     19  H5  G18 d   1     -40.228 -12.052   8.711  0.00  0.00     0.095 H 
ATOM     20  H6  G18 d   1     -41.143 -13.383  10.758  0.00  0.00     0.085 H 
ATOM     21  H7  G18 d   1     -37.275 -10.058  12.672  0.00  0.00     0.169 HD
ENDROOT
TORSDOF 0
