REMARK  9 active torsions:
REMARK  status: ('A' for Active; 'I' for Inactive)
REMARK    1  A    between atoms: C5_8  and  N4_9 
REMARK    2  A    between atoms: N4_9  and  C23_10 
REMARK    3  A    between atoms: N5_13  and  C29_14 
REMARK    4  A    between atoms: C29_14  and  C30_15 
REMARK    5  A    between atoms: C10_19  and  C2_20 
REMARK    6  A    between atoms: C2_20  and  C1_21 
REMARK    7  A    between atoms: C2_20  and  C3_27 
REMARK    8  A    between atoms: C20_35  and  O2_36 
REMARK    9  A    between atoms: O2_36  and  C28_37 
ROOT
ATOM      1  O1  30K d   1       9.244  -6.838  12.531  0.00  0.00    -0.267 OA
ATOM      2  C11 30K d   1      10.306  -6.161  12.272  0.00  0.00     0.258 A 
ATOM      3  N1  30K d   1      10.414  -4.864  12.642  0.00  0.00    -0.322 N 
ATOM      4  C8  30K d   1      11.672  -4.422  12.265  0.00  0.00     0.046 A 
ATOM      5  C9  30K d   1      12.282  -3.169  12.389  0.00  0.00    -0.054 A 
ATOM      6  C7  30K d   1      12.432  -5.494  11.591  0.00  0.00     0.009 A 
ATOM      7  C6  30K d   1      13.695  -5.290  11.095  0.00  0.00    -0.044 A 
ATOM      8  C5  30K d   1      14.257  -4.031  11.257  0.00  0.00     0.029 A 
ATOM      9  C4  30K d   1      13.569  -2.972  11.888  0.00  0.00    -0.055 A 
ATOM     10  C10 30K d   1      11.540  -6.683  11.566  0.00  0.00     0.059 A 
ATOM     11  H1  30K d   1       9.712  -4.322  13.104  0.00  0.00     0.169 HD
ATOM     12  H2  30K d   1      11.756  -2.354  12.873  0.00  0.00     0.087 H 
ATOM     13  H3  30K d   1      14.236  -6.085  10.594  0.00  0.00     0.088 H 
ATOM     14  H20 30K d   1      14.043  -2.002  11.984  0.00  0.00     0.087 H 
ENDROOT
BRANCH  10  15
ATOM     15  C2  30K d   1      11.918  -8.007  11.005  0.00  0.00     0.037 C 
BRANCH  15  16
ATOM     16  C1  30K d   1      13.252  -8.249  10.344  0.00  0.00    -0.021 A 
ATOM     17  C12 30K d   1      13.359  -8.207   8.941  0.00  0.00    -0.072 A 
ATOM     18  C13 30K d   1      14.583  -8.400   8.305  0.00  0.00    -0.082 A 
ATOM     19  H21 30K d   1      12.473  -8.021   8.345  0.00  0.00     0.084 H 
ATOM     20  C14 30K d   1      15.704  -8.645   9.079  0.00  0.00    -0.083 A 
ATOM     21  H22 30K d   1      14.656  -8.359   7.224  0.00  0.00     0.083 H 
ATOM     22  C15 30K d   1      15.606  -8.692  10.483  0.00  0.00    -0.082 A 
ATOM     23  H23 30K d   1      16.664  -8.802   8.601  0.00  0.00     0.083 H 
ATOM     24  C16 30K d   1      14.379  -8.509  11.116  0.00  0.00    -0.072 A 
ATOM     25  H24 30K d   1      16.495  -8.872  11.077  0.00  0.00     0.083 H 
ATOM     26  H25 30K d   1      14.304  -8.568  12.196  0.00  0.00     0.084 H 
ENDBRANCH  15  16
BRANCH  15  27
ATOM     27  C3  30K d   1      10.973  -9.136  10.972  0.00  0.00     0.141 A 
ATOM     28  N2  30K d   1      11.370 -10.324  10.406  0.00  0.00    -0.228 NA
ATOM     29  C17 30K d   1      10.325 -11.161  10.476  0.00  0.00     0.088 A 
ATOM     30  C19 30K d   1      10.027 -12.512  10.094  0.00  0.00    -0.021 A 
ATOM     31  C18 30K d   1       9.261 -10.387  11.113  0.00  0.00     0.063 A 
ATOM     32  C20 30K d   1       8.763 -13.037  10.370  0.00  0.00     0.070 A 
ATOM     33  H26 30K d   1      10.775 -13.118   9.597  0.00  0.00     0.091 H 
ATOM     34  C21 30K d   1       7.735 -12.281  10.976  0.00  0.00    -0.049 A 
ATOM     35  C22 30K d   1       7.956 -10.953  11.361  0.00  0.00    -0.052 A 
ATOM     36  H29 30K d   1       6.765 -12.734  11.145  0.00  0.00     0.087 H 
ATOM     37  H28 30K d   1       7.173 -10.369  11.830  0.00  0.00     0.087 H 
ATOM     38  N3  30K d   1       9.676  -9.161  11.396  0.00  0.00    -0.338 N 
ATOM     39  H27 30K d   1       9.141  -8.399  11.836  0.00  0.00     0.167 HD
BRANCH  32  40
ATOM     40  O2  30K d   1       8.507 -14.327   9.962  0.00  0.00    -0.356 OA
BRANCH  40  41
ATOM     41  C28 30K d   1       8.222 -14.461   8.566  0.00  0.00     0.010 C 
ATOM     42  H30 30K d   1       8.031 -15.518   8.331  0.00  0.00     0.066 H 
ATOM     43  H31 30K d   1       9.082 -14.104   7.980  0.00  0.00     0.066 H 
ATOM     44  H32 30K d   1       7.334 -13.863   8.314  0.00  0.00     0.066 H 
ENDBRANCH  40  41
ENDBRANCH  32  40
ENDBRANCH  15  27
ENDBRANCH  10  15
BRANCH   8  45
ATOM     45  N4  30K d   1      15.458  -3.774  10.737  0.00  0.00    -0.385 N 
ATOM     46  H4  30K d   1      15.998  -2.978  11.106  0.00  0.00     0.160 HD
BRANCH  45  47
ATOM     47  C23 30K d   1      16.029  -4.571   9.675  0.00  0.00     0.013 C 
ATOM     48  C24 30K d   1      15.376  -4.178   8.332  0.00  0.00    -0.024 C 
ATOM     49  C25 30K d   1      16.105  -4.726   7.096  0.00  0.00     0.085 C 
ATOM     50  H6  30K d   1      15.359  -3.080   8.264  0.00  0.00     0.038 H 
ATOM     51  H7  30K d   1      14.345  -4.562   8.324  0.00  0.00     0.038 H 
ATOM     52  N5  30K d   1      17.564  -4.603   7.152  0.00  0.00    -0.071 N 
ATOM     53  H8  30K d   1      15.747  -4.176   6.213  0.00  0.00     0.076 H 
ATOM     54  H9  30K d   1      15.853  -5.792   6.992  0.00  0.00     0.076 H 
ATOM     55  C26 30K d   1      18.077  -5.090   8.430  0.00  0.00     0.085 C 
ATOM     56  H10 30K d   1      17.816  -3.634   7.040  0.00  0.00     0.279 HD
ATOM     57  C27 30K d   1      17.522  -4.340   9.634  0.00  0.00    -0.024 C 
ATOM     58  H16 30K d   1      19.172  -4.984   8.429  0.00  0.00     0.076 H 
ATOM     59  H17 30K d   1      17.811  -6.153   8.529  0.00  0.00     0.076 H 
ATOM     60  H18 30K d   1      17.985  -4.720  10.557  0.00  0.00     0.038 H 
ATOM     61  H19 30K d   1      17.732  -3.265   9.534  0.00  0.00     0.038 H 
ATOM     62  H5  30K d   1      15.834  -5.636   9.871  0.00  0.00     0.072 H 
BRANCH  52  63
ATOM     63  C29 30K d   1      18.169  -5.392   6.078  0.00  0.00     0.080 C 
ATOM     64  H11 30K d   1      17.737  -5.051   5.125  0.00  0.00     0.075 H 
ATOM     65  H12 30K d   1      17.904  -6.447   6.245  0.00  0.00     0.075 H 
BRANCH  63  66
ATOM     66  C30 30K d   1      19.678  -5.306   5.960  0.00  0.00    -0.053 C 
ATOM     67  H13 30K d   1      20.017  -5.936   5.124  0.00  0.00     0.029 H 
ATOM     68  H14 30K d   1      20.140  -5.657   6.895  0.00  0.00     0.029 H 
ATOM     69  H15 30K d   1      19.973  -4.262   5.776  0.00  0.00     0.029 H 
ENDBRANCH  63  66
ENDBRANCH  52  63
ENDBRANCH  45  47
ENDBRANCH   8  45
TORSDOF 9
