REMARK  4 active torsions:
REMARK  status: ('A' for Active; 'I' for Inactive)
REMARK    1  A    between atoms: C9_2  and  C10_3 
REMARK    2  A    between atoms: C9_2  and  C8_6 
REMARK    3  A    between atoms: C8_6  and  C7_7 
REMARK    4  A    between atoms: C7_7  and  C1_8 
ROOT
ATOM      1  C1  XI7 d   1      -6.434  10.059   0.256  0.00  0.00     0.010 A 
ATOM      2  C6  XI7 d   1      -6.437   9.247  -0.868  0.00  0.00    -0.070 A 
ATOM      3  C5  XI7 d   1      -5.418   9.340  -1.800  0.00  0.00    -0.082 A 
ATOM      4  C4  XI7 d   1      -4.364  10.231  -1.592  0.00  0.00    -0.083 A 
ATOM      5  C3  XI7 d   1      -4.338  11.028  -0.444  0.00  0.00    -0.082 A 
ATOM      6  C2  XI7 d   1      -5.381  10.936   0.481  0.00  0.00    -0.070 A 
ATOM      7  H   XI7 d   1      -7.246   8.532  -1.018  0.00  0.00     0.085 H 
ATOM      8  H   XI7 d   1      -5.439   8.718  -2.695  0.00  0.00     0.083 H 
ATOM      9  H   XI7 d   1      -3.561  10.305  -2.325  0.00  0.00     0.083 H 
ATOM     10  H   XI7 d   1      -3.510  11.716  -0.272  0.00  0.00     0.083 H 
ATOM     11  H   XI7 d   1      -5.368  11.553   1.380  0.00  0.00     0.085 H 
ENDROOT
BRANCH   1  12
ATOM     12  C7  XI7 d   1      -7.533   9.950   1.270  0.00  0.00     0.167 C 
ATOM     13  O14 XI7 d   1      -7.812  10.902   1.970  0.00  0.00    -0.292 OA
BRANCH  12  14
ATOM     14  C8  XI7 d   1      -8.192   8.597   1.379  0.00  0.00     0.060 C 
ATOM     15  H   XI7 d   1      -8.879   8.563   0.533  0.00  0.00     0.057 H 
ATOM     16  H   XI7 d   1      -7.360   7.896   1.441  0.00  0.00     0.057 H 
BRANCH  14  17
ATOM     17  C9  XI7 d   1      -9.057   8.260   2.579  0.00  0.00     0.232 C 
ATOM     18  O8  XI7 d   1      -9.361   8.960   3.480  0.00  0.00    -0.285 OA
BRANCH  17  19
ATOM     19  C10 XI7 d   1      -9.609   6.927   2.638  0.00  0.00     0.247 C 
ATOM     20  O11 XI7 d   1      -9.382   6.160   1.671  0.00  0.00    -0.642 OA
ATOM     21  O10 XI7 d   1     -10.300   6.647   3.637  0.00  0.00    -0.642 OA
ENDBRANCH  17  19
ENDBRANCH  14  17
ENDBRANCH  12  14
ENDBRANCH   1  12
TORSDOF 4
