REMARK  8 active torsions:
REMARK  status: ('A' for Active; 'I' for Inactive)
REMARK    1  A    between atoms: CGA_7  and  CO_8 
REMARK    2  A    between atoms: CO_8  and  CF_9 
REMARK    3  A    between atoms: CF_9  and  CB_11 
REMARK    4  A    between atoms: CB_11  and  CM_13 
REMARK    5  A    between atoms: CA_14  and  O14_15 
REMARK    6  A    between atoms: CA_14  and  CE_16 
REMARK    7  A    between atoms: NJ_22  and  CP_23 
REMARK    8  A    between atoms: CP_23  and  CGB_24 
ROOT
ATOM      1  CF  CI3 d   1     -20.205 -18.048  25.568  0.00  0.00     0.055 C 
ATOM      2  CH  CI3 d   1     -18.864 -17.984  26.336  0.00  0.00     0.128 C 
ATOM      3  CG  CI3 d   1     -21.382 -17.438  26.370  0.00  0.00    -0.048 C 
ATOM      4  CK  CI3 d   1     -21.050 -16.191  27.199  0.00  0.00    -0.039 C 
ATOM      5  CI  CI3 d   1     -19.609 -16.125  27.682  0.00  0.00     0.114 C 
ATOM      6  NJ  CI3 d   1     -19.041 -17.492  27.711  0.00  0.00     0.093 N 
ATOM      7  H   CI3 d   1     -18.202 -17.296  25.810  0.00  0.00     0.081 H 
ATOM      8  H   CI3 d   1     -18.450 -18.991  26.384  0.00  0.00     0.081 H 
ATOM      9  H   CI3 d   1     -21.701 -18.203  27.078  0.00  0.00     0.034 H 
ATOM     10  H   CI3 d   1     -22.127 -17.130  25.637  0.00  0.00     0.034 H 
ATOM     11  H   CI3 d   1     -21.684 -16.217  28.085  0.00  0.00     0.035 H 
ATOM     12  H   CI3 d   1     -21.212 -15.326  26.556  0.00  0.00     0.035 H 
ATOM     13  H   CI3 d   1     -19.579 -15.695  28.683  0.00  0.00     0.079 H 
ATOM     14  H   CI3 d   1     -19.025 -15.501  27.005  0.00  0.00     0.079 H 
ENDROOT
BRANCH   1  15
ATOM     15  CO  CI3 d   1     -20.546 -19.529  25.287  0.00  0.00    -0.025 C 
ATOM     16  H   CI3 d   1     -19.678 -20.003  24.829  0.00  0.00     0.042 H 
ATOM     17  H   CI3 d   1     -20.810 -20.008  26.230  0.00  0.00     0.042 H 
BRANCH  15  18
ATOM     18  CGA CI3 d   1     -21.707 -19.654  24.348  0.00  0.00    -0.057 A 
ATOM     19  CDA CI3 d   1     -23.009 -19.666  24.833  0.00  0.00    -0.075 A 
ATOM     20  CEA CI3 d   1     -24.075 -19.748  23.938  0.00  0.00    -0.061 A 
ATOM     21  H   CI3 d   1     -23.196 -19.612  25.905  0.00  0.00     0.084 H 
ATOM     22  CZB CI3 d   1     -23.791 -19.813  22.569  0.00  0.00     0.034 A 
ATOM     23  H   CI3 d   1     -25.105 -19.761  24.296  0.00  0.00     0.086 H 
ATOM     24 CL   CI3 d   1     -25.132 -19.904  21.395  0.00  0.00    -0.084 Cl
ATOM     25  CEB CI3 d   1     -22.485 -19.801  22.078  0.00  0.00    -0.061 A 
ATOM     26  CDB CI3 d   1     -21.447 -19.712  22.982  0.00  0.00    -0.075 A 
ATOM     27  H   CI3 d   1     -22.290 -19.860  21.007  0.00  0.00     0.086 H 
ATOM     28  H   CI3 d   1     -20.418 -19.687  22.625  0.00  0.00     0.084 H 
ENDBRANCH  15  18
ENDBRANCH   1  15
BRANCH   1  29
ATOM     29  CB  CI3 d   1     -19.992 -17.290  24.263  0.00  0.00     0.163 C 
ATOM     30  O13 CI3 d   1     -18.878 -17.310  23.768  0.00  0.00    -0.292 OA
BRANCH  29  31
ATOM     31  CM  CI3 d   1     -21.055 -16.605  23.492  0.00  0.00     0.001 C 
ATOM     32  CA  CI3 d   1     -20.793 -16.200  22.216  0.00  0.00     0.146 C 
ATOM     33  H   CI3 d   1     -22.033 -16.427  23.938  0.00  0.00     0.093 H 
BRANCH  32  34
ATOM     34  O14 CI3 d   1     -19.582 -16.326  21.629  0.00  0.00    -0.355 OA
ATOM     35  H   CI3 d   1     -18.930 -15.836  22.135  0.00  0.00     0.218 HD
ENDBRANCH  32  34
BRANCH  32  36
ATOM     36  CE  CI3 d   1     -21.865 -15.569  21.456  0.00  0.00     0.233 C 
ATOM     37  OAO CI3 d   1     -21.660 -15.236  20.261  0.00  0.00    -0.642 OA
ATOM     38  OAN CI3 d   1     -22.973 -15.383  22.019  0.00  0.00    -0.642 OA
ENDBRANCH  32  36
ENDBRANCH  29  31
ENDBRANCH   1  29
BRANCH   6  39
ATOM     39  CP  CI3 d   1     -17.744 -17.528  28.474  0.00  0.00     0.137 C 
ATOM     40  H   CI3 d   1     -17.718 -16.726  29.212  0.00  0.00     0.087 H 
ATOM     41  H   CI3 d   1     -16.903 -17.387  27.795  0.00  0.00     0.087 H 
BRANCH  39  42
ATOM     42  CGB CI3 d   1     -17.645 -18.867  29.156  0.00  0.00    -0.030 A 
ATOM     43  CD1 CI3 d   1     -16.921 -19.897  28.553  0.00  0.00    -0.075 A 
ATOM     44  CE1 CI3 d   1     -16.882 -21.139  29.158  0.00  0.00    -0.082 A 
ATOM     45  H   CI3 d   1     -16.392 -19.724  27.616  0.00  0.00     0.084 H 
ATOM     46  CZ  CI3 d   1     -17.569 -21.340  30.354  0.00  0.00    -0.083 A 
ATOM     47  H   CI3 d   1     -16.319 -21.954  28.704  0.00  0.00     0.083 H 
ATOM     48  CE2 CI3 d   1     -18.296 -20.309  30.959  0.00  0.00    -0.082 A 
ATOM     49  H   CI3 d   1     -17.539 -22.321  30.828  0.00  0.00     0.083 H 
ATOM     50  CD2 CI3 d   1     -18.333 -19.060  30.348  0.00  0.00    -0.075 A 
ATOM     51  H   CI3 d   1     -18.826 -20.482  31.896  0.00  0.00     0.083 H 
ATOM     52  H   CI3 d   1     -18.895 -18.242  30.799  0.00  0.00     0.084 H 
ENDBRANCH  39  42
ENDBRANCH   6  39
TORSDOF 8
