REMARK  7 active torsions:
REMARK  status: ('A' for Active; 'I' for Inactive)
REMARK    1  A    between atoms: C01_1  and  C02_2 
REMARK    2  A    between atoms: C02_2  and  C03_3 
REMARK    3  A    between atoms: C02_2  and  C04_4 
REMARK    4  A    between atoms: C07_7  and  C11_13 
REMARK    5  A    between atoms: C14_16  and  S01_19 
REMARK    6  A    between atoms: S01_19  and  N1_22 
REMARK    7  A    between atoms: N1_22  and  C17_23 
ROOT
ATOM      1  C11 AQ2 d   1      21.123  11.100  33.208  0.00  0.00    -0.025 A 
ATOM      2  C12 AQ2 d   1      22.475  11.434  33.134  0.00  0.00    -0.071 A 
ATOM      3  C13 AQ2 d   1      22.890  12.755  33.092  0.00  0.00    -0.059 A 
ATOM      4  C14 AQ2 d   1      21.945  13.769  33.140  0.00  0.00     0.079 A 
ATOM      5  C15 AQ2 d   1      20.599  13.467  33.238  0.00  0.00    -0.059 A 
ATOM      6  C16 AQ2 d   1      20.199  12.142  33.274  0.00  0.00    -0.071 A 
ATOM      7  H   AQ2 d   1      23.216  10.644  33.109  0.00  0.00     0.084 H 
ATOM      8  H   AQ2 d   1      23.945  12.994  33.022  0.00  0.00     0.085 H 
ATOM      9  H   AQ2 d   1      19.863  14.261  33.286  0.00  0.00     0.085 H 
ATOM     10  H   AQ2 d   1      19.143  11.909  33.355  0.00  0.00     0.084 H 
ENDROOT
BRANCH   1  11
ATOM     11  C07 AQ2 d   1      20.671   9.674  33.267  0.00  0.00    -0.011 A 
ATOM     12  C06 AQ2 d   1      21.336   8.634  32.591  0.00  0.00     0.023 A 
ATOM     13  C05 AQ2 d   1      22.484   8.479  31.736  0.00  0.00    -0.046 A 
ATOM     14  C10 AQ2 d   1      20.796   7.354  32.747  0.00  0.00     0.138 A 
ATOM     15  C04 AQ2 d   1      22.571   7.173  31.435  0.00  0.00     0.015 A 
ATOM     16  H   AQ2 d   1      23.153   9.269  31.398  0.00  0.00     0.088 H 
ATOM     17  N02 AQ2 d   1      21.562   6.467  32.038  0.00  0.00    -0.343 N 
ATOM     18  H   AQ2 d   1      21.408   5.451  31.970  0.00  0.00     0.167 HD
ATOM     19  N01 AQ2 d   1      19.706   7.061  33.478  0.00  0.00    -0.242 NA
ATOM     20  C09 AQ2 d   1      19.103   8.085  34.099  0.00  0.00     0.005 A 
ATOM     21  C08 AQ2 d   1      19.536   9.392  34.029  0.00  0.00    -0.054 A 
ATOM     22  H   AQ2 d   1      18.221   7.872  34.692  0.00  0.00     0.114 H 
ATOM     23  H   AQ2 d   1      19.008  10.181  34.553  0.00  0.00     0.087 H 
BRANCH  15  24
ATOM     24  C02 AQ2 d   1      23.604   6.480  30.567  0.00  0.00    -0.021 C 
ATOM     25  H   AQ2 d   1      23.064   5.969  29.756  0.00  0.00     0.048 H 
BRANCH  24  26
ATOM     26  C01 AQ2 d   1      24.554   7.468  29.919  0.00  0.00    -0.068 C 
ATOM     27  H   AQ2 d   1      25.283   6.924  29.301  0.00  0.00     0.028 H 
ATOM     28  H   AQ2 d   1      25.084   8.033  30.700  0.00  0.00     0.028 H 
ATOM     29  H   AQ2 d   1      23.984   8.164  29.286  0.00  0.00     0.028 H 
ENDBRANCH  24  26
BRANCH  24  30
ATOM     30  C03 AQ2 d   1      24.342   5.422  31.359  0.00  0.00    -0.068 C 
ATOM     31  H   AQ2 d   1      23.616   4.729  31.810  0.00  0.00     0.028 H 
ATOM     32  H   AQ2 d   1      24.932   5.903  32.153  0.00  0.00     0.028 H 
ATOM     33  H   AQ2 d   1      25.014   4.865  30.689  0.00  0.00     0.028 H 
ENDBRANCH  24  30
ENDBRANCH  15  24
ENDBRANCH   1  11
BRANCH   4  34
ATOM     34  S01 AQ2 d   1      22.459  15.457  33.111  0.00  0.00     0.259 S 
ATOM     35  O01 AQ2 d   1      23.879  15.487  33.293  0.00  0.00    -0.201 OA
ATOM     36  O02 AQ2 d   1      21.618  16.193  34.005  0.00  0.00    -0.201 OA
BRANCH  34  37
ATOM     37  N1  AQ2 d   1      22.154  16.044  31.640  0.00  0.00    -0.311 N 
ATOM     38  H   AQ2 d   1      21.252  16.437  31.460  0.00  0.00     0.172 HD
BRANCH  37  39
ATOM     39  C17 AQ2 d   1      23.141  16.028  30.552  0.00  0.00     0.021 C 
ATOM     40  C18 AQ2 d   1      22.820  14.895  29.594  0.00  0.00    -0.033 C 
ATOM     41  C19 AQ2 d   1      23.901  14.755  28.532  0.00  0.00     0.030 C 
ATOM     42  H   AQ2 d   1      21.858  15.101  29.103  0.00  0.00     0.037 H 
ATOM     43  H   AQ2 d   1      22.748  13.955  30.160  0.00  0.00     0.037 H 
ATOM     44  S   AQ2 d   1      23.921  16.221  27.552  0.00  0.00     0.144 S 
ATOM     45  H   AQ2 d   1      23.683  13.886  27.894  0.00  0.00     0.056 H 
ATOM     46  H   AQ2 d   1      24.880  14.619  29.015  0.00  0.00     0.056 H 
ATOM     47  O03 AQ2 d   1      25.047  16.171  26.660  0.00  0.00    -0.228 OA
ATOM     48  O1  AQ2 d   1      22.615  16.424  26.986  0.00  0.00    -0.228 OA
ATOM     49  C20 AQ2 d   1      24.212  17.457  28.775  0.00  0.00     0.030 C 
ATOM     50  C1  AQ2 d   1      23.124  17.368  29.839  0.00  0.00    -0.033 C 
ATOM     51  H   AQ2 d   1      24.189  18.452  28.307  0.00  0.00     0.056 H 
ATOM     52  H   AQ2 d   1      25.196  17.293  29.239  0.00  0.00     0.056 H 
ATOM     53  H   AQ2 d   1      23.283  18.167  30.578  0.00  0.00     0.037 H 
ATOM     54  H   AQ2 d   1      22.144  17.503  29.358  0.00  0.00     0.037 H 
ATOM     55  H   AQ2 d   1      24.143  15.863  30.975  0.00  0.00     0.073 H 
ENDBRANCH  37  39
ENDBRANCH  34  37
ENDBRANCH   4  34
TORSDOF 7
