REMARK  4 active torsions:
REMARK  status: ('A' for Active; 'I' for Inactive)
REMARK    1  A    between atoms: O01_1  and  C02_2 
REMARK    2  A    between atoms: C04_4  and  C05_5 
REMARK       I    between atoms: C05_5  and  N06_6 
REMARK    3  A    between atoms: N06_6  and  C07_7 
REMARK       I    between atoms: N09_9  and  C10_10 
REMARK    4  A    between atoms: C10_10  and  C11_11 
ROOT
ATOM      1  C02 V6F d   1      -8.638  31.442   1.288  0.00  0.00     0.053 C 
ATOM      2  C03 V6F d   1      -8.202  32.539   2.252  0.00  0.00    -0.012 C 
ATOM      3  C04 V6F d   1      -7.664  33.677   1.381  0.00  0.00     0.094 C 
ATOM      4  N09 V6F d   1      -7.451  33.082   0.041  0.00  0.00    -0.337 N 
ATOM      5  C10 V6F d   1      -7.003  33.868  -1.041  0.00  0.00     0.216 C 
ATOM      6  O12 V6F d   1      -6.782  35.057  -0.878  0.00  0.00    -0.274 OA
ATOM      7  C13 V6F d   1      -7.771  31.652   0.036  0.00  0.00     0.022 C 
ATOM      8  H2  V6F d   1      -8.526  30.435   1.716  0.00  0.00     0.085 H 
ATOM      9  H3  V6F d   1      -7.414  32.167   2.924  0.00  0.00     0.040 H 
ATOM     10  H4  V6F d   1      -9.059  32.886   2.848  0.00  0.00     0.040 H 
ATOM     11  H5  V6F d   1      -8.377  34.513   1.332  0.00  0.00     0.088 H 
ATOM     12  H13 V6F d   1      -8.330  31.383  -0.873  0.00  0.00     0.068 H 
ATOM     13  H14 V6F d   1      -6.853  31.049   0.094  0.00  0.00     0.068 H 
ENDROOT
BRANCH   3  14
ATOM     14  C05 V6F d   1      -6.327  34.151   1.959  0.00  0.00     0.240 C 
ATOM     15  N06 V6F d   1      -6.441  35.179   2.916  0.00  0.00    -0.364 N 
ATOM     16  H6  V6F d   1      -7.332  35.549   3.178  0.00  0.00     0.161 HD
ATOM     17  O08 V6F d   1      -5.252  33.700   1.638  0.00  0.00    -0.271 OA
BRANCH  15  18
ATOM     18  C07 V6F d   1      -5.215  35.678   3.506  0.00  0.00    -0.018 C 
ATOM     19  H7  V6F d   1      -5.453  36.471   4.230  0.00  0.00     0.056 H 
ATOM     20  H8  V6F d   1      -4.567  36.085   2.716  0.00  0.00     0.056 H 
ATOM     21  H9  V6F d   1      -4.695  34.856   4.020  0.00  0.00     0.056 H 
ENDBRANCH  15  18
ENDBRANCH   3  14
BRANCH   1  22
ATOM     22  O01 V6F d   1      -9.974  31.717   0.915  0.00  0.00    -0.394 OA
ATOM     23  H1  V6F d   1     -10.277  31.049   0.312  0.00  0.00     0.210 HD
ENDBRANCH   1  22
BRANCH   5  24
ATOM     24  C11 V6F d   1      -6.815  33.178  -2.375  0.00  0.00    -0.003 C 
ATOM     25  H10 V6F d   1      -6.465  33.908  -3.119  0.00  0.00     0.040 H 
ATOM     26  H11 V6F d   1      -7.773  32.749  -2.704  0.00  0.00     0.040 H 
ATOM     27  H12 V6F d   1      -6.070  32.375  -2.271  0.00  0.00     0.040 H 
ENDBRANCH   5  24
TORSDOF 4
