REMARK  9 active torsions:
REMARK  status: ('A' for Active; 'I' for Inactive)
REMARK    1  A    between atoms: S30_2  and  CP_4 
REMARK    2  A    between atoms: S30_2  and  NJ_11 
REMARK    3  A    between atoms: CP_4  and  CGB_5 
REMARK    4  A    between atoms: CF_16  and  CB_17 
REMARK    5  A    between atoms: CF_16  and  CO_25 
REMARK    6  A    between atoms: CB_17  and  CM_19 
REMARK    7  A    between atoms: CM_19  and  CA_20 
REMARK    8  A    between atoms: CA_20  and  CE_22 
REMARK    9  A    between atoms: CO_25  and  CGA_26 
ROOT
ATOM      1  NJ  CI1 d   1      58.746  16.517  17.569  0.00  0.00    -0.309 N 
ATOM      2  CI  CI1 d   1      58.482  17.920  17.942  0.00  0.00     0.005 C 
ATOM      3  CK  CI1 d   1      57.274  18.454  17.188  0.00  0.00    -0.048 C 
ATOM      4  CG  CI1 d   1      56.126  17.470  17.362  0.00  0.00    -0.048 C 
ATOM      5  CH  CI1 d   1      57.666  15.548  17.323  0.00  0.00     0.019 C 
ATOM      6  CF  CI1 d   1      56.436  16.153  16.644  0.00  0.00     0.041 C 
ATOM      7  H8  CI1 d   1      59.362  18.532  17.695  0.00  0.00     0.065 H 
ATOM      8  H9  CI1 d   1      58.288  17.977  19.023  0.00  0.00     0.065 H 
ATOM      9  H10 CI1 d   1      57.518  18.556  16.120  0.00  0.00     0.035 H 
ATOM     10  H11 CI1 d   1      56.987  19.435  17.594  0.00  0.00     0.035 H 
ATOM     11  H12 CI1 d   1      55.209  17.905  16.939  0.00  0.00     0.035 H 
ATOM     12  H13 CI1 d   1      55.978  17.272  18.434  0.00  0.00     0.035 H 
ATOM     13  H14 CI1 d   1      57.355  15.123  18.289  0.00  0.00     0.067 H 
ATOM     14  H15 CI1 d   1      58.059  14.747  16.679  0.00  0.00     0.067 H 
ENDROOT
BRANCH   6  15
ATOM     15  CB  CI1 d   1      56.673  16.370  15.158  0.00  0.00     0.141 C 
ATOM     16  O13 CI1 d   1      57.593  15.803  14.569  0.00  0.00    -0.297 OA
BRANCH  15  17
ATOM     17  CM  CI1 d   1      55.706  17.252  14.461  0.00  0.00     0.036 C 
ATOM     18  H16 CI1 d   1      55.971  18.273  14.774  0.00  0.00     0.050 H 
ATOM     19  H17 CI1 d   1      54.723  16.985  14.876  0.00  0.00     0.050 H 
BRANCH  17  20
ATOM     20  CA  CI1 d   1      55.516  17.331  13.132  0.00  0.00     0.234 C 
ATOM     21  O14 CI1 d   1      56.261  16.657  12.276  0.00  0.00    -0.212 OA
BRANCH  20  22
ATOM     22  CE  CI1 d   1      54.465  18.239  12.659  0.00  0.00     0.217 C 
ATOM     23  OAN CI1 d   1      54.006  19.069  13.471  0.00  0.00    -0.646 OA
ATOM     24  OAO CI1 d   1      54.083  18.239  11.477  0.00  0.00    -0.646 OA
ENDBRANCH  20  22
ENDBRANCH  17  20
ENDBRANCH  15  17
ENDBRANCH   6  15
BRANCH   6  25
ATOM     25  CO  CI1 d   1      55.280  15.142  16.686  0.00  0.00    -0.026 C 
ATOM     26  H18 CI1 d   1      55.677  14.149  16.427  0.00  0.00     0.042 H 
ATOM     27  H19 CI1 d   1      54.529  15.442  15.940  0.00  0.00     0.042 H 
BRANCH  25  28
ATOM     28  CGA CI1 d   1      54.603  15.048  18.032  0.00  0.00    -0.057 A 
ATOM     29  CDB CI1 d   1      53.641  15.991  18.404  0.00  0.00    -0.075 A 
ATOM     30  CEB CI1 d   1      53.023  15.902  19.647  0.00  0.00    -0.061 A 
ATOM     31  H20 CI1 d   1      53.376  16.792  17.724  0.00  0.00     0.084 H 
ATOM     32  CZB CI1 d   1      53.359  14.864  20.509  0.00  0.00     0.034 A 
ATOM     33  H21 CI1 d   1      52.284  16.638  19.942  0.00  0.00     0.086 H 
ATOM     34  CEA CI1 d   1      54.312  13.919  20.136  0.00  0.00    -0.061 A 
ATOM     35 CL   CI1 d   1      52.565  14.726  22.106  0.00  0.00    -0.084 Cl
ATOM     36  CDA CI1 d   1      54.939  14.007  18.896  0.00  0.00    -0.075 A 
ATOM     37  H23 CI1 d   1      54.566  13.112  20.814  0.00  0.00     0.086 H 
ATOM     38  H22 CI1 d   1      55.682  13.273  18.605  0.00  0.00     0.084 H 
ENDBRANCH  25  28
ENDBRANCH   6  25
BRANCH   1  39
ATOM     39  S30 CI1 d   1      60.205  16.044  17.492  0.00  0.00     0.232 S 
ATOM     40  O32 CI1 d   1      61.065  17.171  17.285  0.00  0.00    -0.205 OA
ATOM     41  O31 CI1 d   1      60.391  15.154  16.381  0.00  0.00    -0.205 OA
BRANCH  39  42
ATOM     42  CP  CI1 d   1      60.674  15.269  18.903  0.00  0.00     0.070 C 
ATOM     43  H1  CI1 d   1      60.451  15.925  19.757  0.00  0.00     0.066 H 
ATOM     44  H2  CI1 d   1      61.757  15.079  18.859  0.00  0.00     0.066 H 
BRANCH  42  45
ATOM     45  CGB CI1 d   1      59.957  13.949  19.104  0.00  0.00    -0.043 A 
ATOM     46  CD2 CI1 d   1      58.887  13.877  19.991  0.00  0.00    -0.076 A 
ATOM     47  CE2 CI1 d   1      58.211  12.673  20.181  0.00  0.00    -0.082 A 
ATOM     48  H3  CI1 d   1      58.578  14.761  20.537  0.00  0.00     0.084 H 
ATOM     49  CZ  CI1 d   1      58.615  11.529  19.490  0.00  0.00    -0.083 A 
ATOM     50  H4  CI1 d   1      57.372  12.625  20.865  0.00  0.00     0.083 H 
ATOM     51  CE1 CI1 d   1      59.693  11.592  18.610  0.00  0.00    -0.082 A 
ATOM     52  H5  CI1 d   1      58.090  10.592  19.638  0.00  0.00     0.083 H 
ATOM     53  CD1 CI1 d   1      60.360  12.802  18.417  0.00  0.00    -0.076 A 
ATOM     54  H6  CI1 d   1      60.013  10.704  18.077  0.00  0.00     0.083 H 
ATOM     55  H7  CI1 d   1      61.197  12.852  17.729  0.00  0.00     0.084 H 
ENDBRANCH  42  45
ENDBRANCH  39  42
ENDBRANCH   1  39
TORSDOF 9
