REMARK  12 active torsions:
REMARK  status: ('A' for Active; 'I' for Inactive)
REMARK    1  A    between atoms: C3_2  and  O1_1 
REMARK    2  A    between atoms: C6_3  and  O7_4 
REMARK    3  A    between atoms: C9_5  and  O10_6 
REMARK    4  A    between atoms: C15_9  and  C14_8 
REMARK    5  A    between atoms: C24_12  and  O02_23 
REMARK    6  A    between atoms: C29_14  and  O03_24 
REMARK    7  A    between atoms: O35_26  and  C33_16 
REMARK    8  A    between atoms: C36_17  and  C38_18 
REMARK    9  A    between atoms: C36_17  and  O35_26 
REMARK   10  A    between atoms: C43_28  and  O44_29 
REMARK   11  A    between atoms: C46_30  and  O47_31 
REMARK   12  A    between atoms: C49_32  and  O50_33 
ROOT
ATOM      1  C15 KDH d   1      12.124 -33.524  20.732  0.00  0.00     0.096 C 
ATOM      2  C20 KDH d   1      10.811 -33.403  22.809  0.00  0.00     0.081 A 
ATOM      3  C21 KDH d   1      10.128 -32.598  23.713  0.00  0.00    -0.018 A 
ATOM      4  C24 KDH d   1       9.535 -33.160  24.835  0.00  0.00     0.071 A 
ATOM      5  C26 KDH d   1       9.619 -34.539  25.045  0.00  0.00    -0.018 A 
ATOM      6  C29 KDH d   1      10.308 -35.345  24.140  0.00  0.00     0.077 A 
ATOM      7  C31 KDH d   1      10.906 -34.779  23.020  0.00  0.00     0.011 A 
ATOM      8  C33 KDH d   1      11.712 -34.995  20.690  0.00  0.00     0.081 C 
ATOM      9  C01 KDH d   1      11.675 -35.652  22.047  0.00  0.00    -0.008 C 
ATOM     10  O01 KDH d   1      11.383 -32.799  21.721  0.00  0.00    -0.338 OA
ATOM     11  H   KDH d   1      13.186 -33.489  20.976  0.00  0.00     0.096 H 
ATOM     12  H   KDH d   1      10.058 -31.524  23.541  0.00  0.00     0.092 H 
ATOM     13  H   KDH d   1       9.145 -34.986  25.919  0.00  0.00     0.092 H 
ATOM     14  H   KDH d   1      12.443 -35.466  20.033  0.00  0.00     0.089 H 
ATOM     15  H   KDH d   1      11.182 -36.621  21.965  0.00  0.00     0.044 H 
ATOM     16  H   KDH d   1      12.694 -35.786  22.410  0.00  0.00     0.044 H 
ENDROOT
BRANCH   8  17
ATOM     17  O35 KDH d   1      10.360 -35.094  20.280  0.00  0.00    -0.309 OA
BRANCH  17  18
ATOM     18  C36 KDH d   1      10.090 -35.265  18.883  0.00  0.00     0.294 C 
ATOM     19  O37 KDH d   1      10.959 -35.636  18.127  0.00  0.00    -0.259 OA
BRANCH  18  20
ATOM     20  C38 KDH d   1       8.697 -34.983  18.449  0.00  0.00     0.045 A 
ATOM     21  C39 KDH d   1       8.491 -34.437  17.198  0.00  0.00    -0.032 A 
ATOM     22  C49 KDH d   1       7.201 -34.172  16.770  0.00  0.00     0.102 A 
ATOM     23  H   KDH d   1       9.339 -34.216  16.550  0.00  0.00     0.089 H 
ATOM     24  C46 KDH d   1       6.120 -34.457  17.609  0.00  0.00     0.132 A 
ATOM     25  C43 KDH d   1       6.321 -35.010  18.873  0.00  0.00     0.102 A 
ATOM     26  C41 KDH d   1       7.624 -35.271  19.301  0.00  0.00    -0.032 A 
ATOM     27  H   KDH d   1       7.804 -35.695  20.289  0.00  0.00     0.089 H 
BRANCH  22  28
ATOM     28  O50 KDH d   1       7.047 -33.618  15.530  0.00  0.00    -0.358 OA
ATOM     29  H   KDH d   1       6.508 -34.197  14.987  0.00  0.00     0.217 HD
ENDBRANCH  22  28
BRANCH  24  30
ATOM     30  O47 KDH d   1       4.848 -34.183  17.206  0.00  0.00    -0.356 OA
ATOM     31  H   KDH d   1       4.867 -33.809  16.322  0.00  0.00     0.218 HD
ENDBRANCH  24  30
BRANCH  25  32
ATOM     32  O44 KDH d   1       5.253 -35.287  19.689  0.00  0.00    -0.358 OA
ATOM     33  H   KDH d   1       4.439 -35.048  19.241  0.00  0.00     0.217 HD
ENDBRANCH  25  32
ENDBRANCH  18  20
ENDBRANCH  17  18
ENDBRANCH   8  17
BRANCH   1  34
ATOM     34  C14 KDH d   1      11.849 -32.894  19.415  0.00  0.00    -0.021 A 
ATOM     35  C12 KDH d   1      10.589 -32.388  19.128  0.00  0.00    -0.039 A 
ATOM     36  C9  KDH d   1      10.318 -31.812  17.901  0.00  0.00     0.102 A 
ATOM     37  H   KDH d   1       9.802 -32.446  19.880  0.00  0.00     0.088 H 
ATOM     38  C6  KDH d   1      11.303 -31.720  16.939  0.00  0.00     0.132 A 
ATOM     39  C3  KDH d   1      12.579 -32.225  17.225  0.00  0.00     0.102 A 
ATOM     40  C4  KDH d   1      12.847 -32.814  18.460  0.00  0.00    -0.039 A 
ATOM     41  H   KDH d   1      13.840 -33.210  18.673  0.00  0.00     0.088 H 
BRANCH  36  42
ATOM     42  O10 KDH d   1       9.067 -31.342  17.663  0.00  0.00    -0.358 OA
ATOM     43  H   KDH d   1       8.518 -31.489  18.437  0.00  0.00     0.217 HD
ENDBRANCH  36  42
BRANCH  38  44
ATOM     44  O7  KDH d   1      11.002 -31.134  15.746  0.00  0.00    -0.356 OA
ATOM     45  H   KDH d   1      11.567 -30.369  15.615  0.00  0.00     0.218 HD
ENDBRANCH  38  44
BRANCH  39  46
ATOM     46  O1  KDH d   1      13.585 -32.157  16.322  0.00  0.00    -0.358 OA
ATOM     47  H   KDH d   1      14.376 -32.551  16.696  0.00  0.00     0.217 HD
ENDBRANCH  39  46
ENDBRANCH   1  34
BRANCH   6  48
ATOM     48  O03 KDH d   1      10.401 -36.684  24.366  0.00  0.00    -0.360 OA
ATOM     49  H   KDH d   1       9.935 -36.904  25.176  0.00  0.00     0.217 HD
ENDBRANCH   6  48
BRANCH   4  50
ATOM     50  O02 KDH d   1       8.871 -32.352  25.718  0.00  0.00    -0.361 OA
ATOM     51  H   KDH d   1       8.917 -31.442  25.414  0.00  0.00     0.217 HD
ENDBRANCH   4  50
TORSDOF 12
