REMARK  12 active torsions:
REMARK  status: ('A' for Active; 'I' for Inactive)
REMARK    1  A    between atoms: N1_2  and  C1_1 
REMARK    2  A    between atoms: C1_1  and  C2_4 
REMARK    3  A    between atoms: C1_1  and  C4_10 
REMARK    4  A    between atoms: C5_12  and  N1_2 
REMARK    5  A    between atoms: C2_4  and  C3_7 
REMARK       I    between atoms: C8_16  and  N2_5 
REMARK    6  A    between atoms: N2_5  and  C9_17 
REMARK    7  A    between atoms: N3_8  and  C16_24 
REMARK       I    between atoms: C26_34  and  N5_13 
REMARK    8  A    between atoms: C7_15  and  C8_16 
REMARK    9  A    between atoms: C18_26  and  C19_27 
REMARK   10  A    between atoms: C19_27  and  C20_28 
REMARK   11  A    between atoms: C25_33  and  C26_34 
REMARK   12  A    between atoms: C28_36  and  C29_37 
ROOT
ATOM      1  N3  99B d   1     -10.678 -20.142 -23.028  0.00  0.00    -0.356 N 
ATOM      2  C9  99B d   1     -10.857 -19.632 -20.400  0.00  0.00     0.016 C 
ATOM      3  C10 99B d   1      -9.515 -19.260 -21.081  0.00  0.00    -0.027 C 
ATOM      4  C11 99B d   1      -9.494 -20.421 -22.159  0.00  0.00     0.016 C 
ATOM      5  C12 99B d   1     -11.866 -20.568 -22.307  0.00  0.00     0.016 C 
ATOM      6  C13 99B d   1     -12.125 -19.411 -21.216  0.00  0.00    -0.027 C 
ATOM      7  C14 99B d   1     -11.473 -21.946 -21.678  0.00  0.00    -0.044 C 
ATOM      8  C15 99B d   1      -9.880 -21.843 -21.587  0.00  0.00    -0.044 C 
ATOM      9  H15 99B d   1     -10.765 -20.667 -20.761  0.00  0.00     0.072 H 
ATOM     10  H16 99B d   1      -8.664 -19.319 -20.387  0.00  0.00     0.039 H 
ATOM     11  H17 99B d   1      -9.543 -18.262 -21.543  0.00  0.00     0.039 H 
ATOM     12  H18 99B d   1      -8.537 -20.443 -22.701  0.00  0.00     0.072 H 
ATOM     13  H19 99B d   1     -12.739 -20.679 -22.966  0.00  0.00     0.072 H 
ATOM     14  H20 99B d   1     -12.165 -18.409 -21.668  0.00  0.00     0.039 H 
ATOM     15  H21 99B d   1     -13.039 -19.585 -20.628  0.00  0.00     0.039 H 
ATOM     16  H22 99B d   1     -11.781 -22.781 -22.325  0.00  0.00     0.036 H 
ATOM     17  H23 99B d   1     -11.921 -22.070 -20.681  0.00  0.00     0.036 H 
ATOM     18  H24 99B d   1      -9.552 -21.935 -20.541  0.00  0.00     0.036 H 
ATOM     19  H25 99B d   1      -9.412 -22.636 -22.189  0.00  0.00     0.036 H 
ENDROOT
BRANCH   2  20
ATOM     20  N2  99B d   1     -10.982 -20.124 -19.009  0.00  0.00    -0.352 N 
ATOM     21  C8  99B d   1     -10.124 -19.846 -17.997  0.00  0.00     0.252 C 
ATOM     22  O1  99B d   1      -9.264 -18.996 -18.048  0.00  0.00    -0.268 OA
ATOM     23  H5  99B d   1     -11.764 -20.710 -18.799  0.00  0.00     0.163 HD
BRANCH  21  24
ATOM     24  C7  99B d   1     -10.546 -20.575 -16.744  0.00  0.00     0.040 A 
ATOM     25  C6  99B d   1     -10.951 -19.811 -15.644  0.00  0.00    -0.041 A 
ATOM     26  C5  99B d   1     -11.418 -20.508 -14.539  0.00  0.00     0.045 A 
ATOM     27  H14 99B d   1     -10.902 -18.728 -15.655  0.00  0.00     0.088 H 
ATOM     28  C25 99B d   1     -11.442 -21.906 -14.509  0.00  0.00     0.058 A 
ATOM     29  C27 99B d   1     -11.059 -22.667 -15.616  0.00  0.00    -0.059 A 
ATOM     30  C28 99B d   1     -10.638 -21.986 -16.735  0.00  0.00    -0.045 A 
ATOM     31  H34 99B d   1     -11.092 -23.750 -15.594  0.00  0.00     0.086 H 
BRANCH  26  32
ATOM     32  N1  99B d   1     -11.847 -19.820 -13.422  0.00  0.00    -0.385 N 
ATOM     33  H2  99B d   1     -11.774 -20.284 -12.505  0.00  0.00     0.160 HD
BRANCH  32  34
ATOM     34  C1  99B d   1     -12.413 -18.433 -13.473  0.00  0.00     0.006 C 
ATOM     35  H1  99B d   1     -11.725 -17.818 -14.072  0.00  0.00     0.071 H 
BRANCH  34  36
ATOM     36  C2  99B d   1     -13.825 -18.328 -14.095  0.00  0.00    -0.050 C 
ATOM     37  H3  99B d   1     -13.730 -18.427 -15.186  0.00  0.00     0.035 H 
ATOM     38  H4  99B d   1     -14.238 -17.338 -13.851  0.00  0.00     0.035 H 
BRANCH  36  39
ATOM     39  C3  99B d   1     -14.796 -19.382 -13.605  0.00  0.00    -0.075 C 
ATOM     40  H6  99B d   1     -15.771 -19.238 -14.093  0.00  0.00     0.027 H 
ATOM     41  H7  99B d   1     -14.915 -19.293 -12.515  0.00  0.00     0.027 H 
ATOM     42  H8  99B d   1     -14.407 -20.381 -13.851  0.00  0.00     0.027 H 
ENDBRANCH  36  39
ENDBRANCH  34  36
BRANCH  34  43
ATOM     43  C4  99B d   1     -12.522 -17.839 -12.062  0.00  0.00    -0.057 C 
ATOM     44  H9  99B d   1     -12.939 -16.823 -12.123  0.00  0.00     0.030 H 
ATOM     45  H10 99B d   1     -11.523 -17.799 -11.603  0.00  0.00     0.030 H 
ATOM     46  H11 99B d   1     -13.182 -18.470 -11.449  0.00  0.00     0.030 H 
ENDBRANCH  34  43
ENDBRANCH  32  34
ENDBRANCH  26  32
BRANCH  28  47
ATOM     47  C26 99B d   1     -12.022 -22.658 -13.306  0.00  0.00     0.251 C 
ATOM     48  O3  99B d   1     -13.115 -22.269 -12.860  0.00  0.00    -0.268 OA
ATOM     49  N5  99B d   1     -11.451 -23.785 -12.880  0.00  0.00    -0.366 N 
ATOM     50  H12 99B d   1     -10.571 -24.073 -13.257  0.00  0.00     0.159 HD
ATOM     51  H13 99B d   1     -11.903 -24.342 -12.183  0.00  0.00     0.159 HD
ENDBRANCH  28  47
BRANCH  30  52
ATOM     52  C29 99B d   1     -10.226 -22.849 -17.945  0.00  0.00    -0.050 C 
ATOM     53  H35 99B d   1      -9.911 -22.195 -18.771  0.00  0.00     0.033 H 
ATOM     54  H36 99B d   1     -11.081 -23.461 -18.267  0.00  0.00     0.033 H 
ATOM     55  H37 99B d   1      -9.392 -23.506 -17.659  0.00  0.00     0.033 H 
ENDBRANCH  30  52
ENDBRANCH  21  24
ENDBRANCH   2  20
BRANCH   1  56
ATOM     56  C16 99B d   1     -10.727 -19.315 -24.174  0.00  0.00     0.126 A 
ATOM     57  N4  99B d   1      -9.605 -18.675 -24.542  0.00  0.00    -0.243 NA
ATOM     58  C17 99B d   1      -9.546 -17.853 -25.580  0.00  0.00     0.018 A 
ATOM     59  C18 99B d   1     -10.737 -17.600 -26.257  0.00  0.00     0.028 A 
ATOM     60  H26 99B d   1      -8.612 -17.398 -25.889  0.00  0.00     0.116 H 
ATOM     61  C24 99B d   1     -11.958 -18.191 -25.875  0.00  0.00    -0.065 A 
ATOM     62  C23 99B d   1     -11.997 -19.085 -24.785  0.00  0.00    -0.038 A 
ATOM     63  H33 99B d   1     -12.867 -17.959 -26.419  0.00  0.00     0.085 H 
ATOM     64  H32 99B d   1     -12.911 -19.556 -24.441  0.00  0.00     0.089 H 
BRANCH  59  65
ATOM     65  C19 99B d   1     -10.649 -16.616 -27.419  0.00  0.00     0.165 C 
ATOM     66  O2  99B d   1      -9.538 -16.154 -27.760  0.00  0.00    -0.292 OA
BRANCH  65  67
ATOM     67  C20 99B d   1     -12.009 -16.160 -28.002  0.00  0.00     0.009 A 
ATOM     68  C21 99B d   1     -12.140 -14.650 -28.065  0.00  0.00    -0.054 A 
ATOM     69  C22 99B d   1     -12.011 -15.447 -29.382  0.00  0.00    -0.054 A 
ATOM     70  H28 99B d   1     -11.309 -14.014 -27.727  0.00  0.00     0.034 H 
ATOM     71  H29 99B d   1     -13.096 -14.172 -27.806  0.00  0.00     0.034 H 
ATOM     72  H30 99B d   1     -12.875 -15.547 -30.056  0.00  0.00     0.034 H 
ATOM     73  H31 99B d   1     -11.087 -15.389 -29.976  0.00  0.00     0.034 H 
ATOM     74  H27 99B d   1     -12.834 -16.822 -27.700  0.00  0.00     0.052 H 
ENDBRANCH  65  67
ENDBRANCH  59  65
ENDBRANCH   1  56
TORSDOF 12
