REMARK  9 active torsions:
REMARK  status: ('A' for Active; 'I' for Inactive)
REMARK    1  A    between atoms: C15_1  and  C8_2 
REMARK    2  A    between atoms: C10_4  and  C14_5 
REMARK       I    between atoms: C14_5  and  N2_7 
REMARK    3  A    between atoms: C11_8  and  C13_9 
REMARK    4  A    between atoms: C7_11  and  C6_12 
REMARK       I    between atoms: C6_12  and  N1_14 
REMARK    5  A    between atoms: N1_14  and  C5_15 
REMARK    6  A    between atoms: N3_22  and  C16_23 
REMARK    7  A    between atoms: C19_28  and  C20_29 
REMARK       I    between atoms: C20_29  and  N4_31 
REMARK    8  A    between atoms: N4_31  and  C21_32 
REMARK    9  A    between atoms: C21_32  and  C22_33 
ROOT
ATOM      1  C5  99A d   1     -10.442 -18.554 -21.925  0.00  0.00     0.016 C 
ATOM      2  C30 99A d   1     -11.818 -18.543 -22.670  0.00  0.00    -0.027 C 
ATOM      3  C4  99A d   1      -9.147 -18.284 -22.678  0.00  0.00    -0.027 C 
ATOM      4  C1  99A d   1      -9.193 -19.458 -23.734  0.00  0.00     0.016 C 
ATOM      5  C2  99A d   1      -9.594 -20.912 -23.229  0.00  0.00    -0.044 C 
ATOM      6  C3  99A d   1     -11.131 -20.977 -23.214  0.00  0.00    -0.044 C 
ATOM      7  C29 99A d   1     -11.611 -19.624 -23.766  0.00  0.00     0.016 C 
ATOM      8  N3  99A d   1     -10.416 -19.123 -24.486  0.00  0.00    -0.356 N 
ATOM      9  H12 99A d   1     -10.532 -17.503 -21.613  0.00  0.00     0.072 H 
ATOM     10  H13 99A d   1     -12.022 -17.558 -23.116  0.00  0.00     0.039 H 
ATOM     11  H14 99A d   1     -12.640 -18.816 -21.992  0.00  0.00     0.039 H 
ATOM     12  H15 99A d   1      -8.269 -18.361 -22.020  0.00  0.00     0.039 H 
ATOM     13  H16 99A d   1      -9.156 -17.297 -23.164  0.00  0.00     0.039 H 
ATOM     14  H17 99A d   1      -8.271 -19.483 -24.334  0.00  0.00     0.072 H 
ATOM     15  H18 99A d   1      -9.199 -21.082 -22.216  0.00  0.00     0.036 H 
ATOM     16  H19 99A d   1      -9.191 -21.674 -23.913  0.00  0.00     0.036 H 
ATOM     17  H20 99A d   1     -11.498 -21.125 -22.188  0.00  0.00     0.036 H 
ATOM     18  H21 99A d   1     -11.486 -21.799 -23.852  0.00  0.00     0.036 H 
ATOM     19  H22 99A d   1     -12.502 -19.737 -24.401  0.00  0.00     0.072 H 
ENDROOT
BRANCH   8  20
ATOM     20  C16 99A d   1     -10.457 -18.291 -25.625  0.00  0.00     0.126 A 
ATOM     21  C17 99A d   1     -11.677 -17.990 -26.242  0.00  0.00    -0.038 A 
ATOM     22  C18 99A d   1     -11.701 -17.165 -27.359  0.00  0.00    -0.063 A 
ATOM     23  H23 99A d   1     -12.601 -18.400 -25.849  0.00  0.00     0.089 H 
ATOM     24  C19 99A d   1     -10.502 -16.606 -27.823  0.00  0.00     0.049 A 
ATOM     25  H24 99A d   1     -12.636 -16.956 -27.866  0.00  0.00     0.085 H 
ATOM     26  C28 99A d   1      -9.317 -16.919 -27.133  0.00  0.00     0.020 A 
ATOM     27  N5  99A d   1      -9.321 -17.698 -26.069  0.00  0.00    -0.242 NA
ATOM     28  H25 99A d   1      -8.377 -16.510 -27.485  0.00  0.00     0.116 H 
BRANCH  24  29
ATOM     29  C20 99A d   1     -10.463 -15.692 -29.050  0.00  0.00     0.253 C 
ATOM     30  O3  99A d   1      -9.392 -15.213 -29.426  0.00  0.00    -0.268 OA
ATOM     31  N4  99A d   1     -11.649 -15.522 -29.686  0.00  0.00    -0.353 N 
ATOM     32  H26 99A d   1     -12.465 -15.944 -29.290  0.00  0.00     0.163 HD
BRANCH  31  33
ATOM     33  C21 99A d   1     -11.797 -14.744 -30.935  0.00  0.00     0.019 C 
ATOM     34  H27 99A d   1     -12.783 -14.984 -31.361  0.00  0.00     0.071 H 
ATOM     35  H28 99A d   1     -11.008 -15.074 -31.627  0.00  0.00     0.071 H 
BRANCH  33  36
ATOM     36  C22 99A d   1     -11.702 -13.220 -30.819  0.00  0.00    -0.041 A 
ATOM     37  C23 99A d   1     -11.413 -12.503 -32.005  0.00  0.00    -0.075 A 
ATOM     38  C24 99A d   1     -11.308 -11.121 -31.957  0.00  0.00    -0.082 A 
ATOM     39  H29 99A d   1     -11.275 -13.030 -32.942  0.00  0.00     0.084 H 
ATOM     40  C25 99A d   1     -11.552 -10.463 -30.740  0.00  0.00    -0.083 A 
ATOM     41  H30 99A d   1     -11.042 -10.558 -32.844  0.00  0.00     0.083 H 
ATOM     42  C26 99A d   1     -11.852 -11.163 -29.563  0.00  0.00    -0.082 A 
ATOM     43  H31 99A d   1     -11.507  -9.380 -30.710  0.00  0.00     0.083 H 
ATOM     44  C27 99A d   1     -11.949 -12.559 -29.606  0.00  0.00    -0.075 A 
ATOM     45  H32 99A d   1     -12.007 -10.630 -28.632  0.00  0.00     0.083 H 
ATOM     46  H33 99A d   1     -12.211 -13.120 -28.716  0.00  0.00     0.084 H 
ENDBRANCH  33  36
ENDBRANCH  31  33
ENDBRANCH  24  29
ENDBRANCH   8  20
BRANCH   1  47
ATOM     47  N1  99A d   1     -10.441 -19.037 -20.567  0.00  0.00    -0.352 N 
ATOM     48  C6  99A d   1      -9.614 -18.819 -19.535  0.00  0.00     0.252 C 
ATOM     49  O1  99A d   1      -8.716 -17.998 -19.562  0.00  0.00    -0.268 OA
ATOM     50  H11 99A d   1     -11.201 -19.651 -20.355  0.00  0.00     0.163 HD
BRANCH  48  51
ATOM     51  C7  99A d   1     -10.097 -19.618 -18.295  0.00  0.00     0.038 A 
ATOM     52  C8  99A d   1     -10.237 -21.034 -18.306  0.00  0.00    -0.045 A 
ATOM     53  C9  99A d   1     -10.715 -21.676 -17.164  0.00  0.00    -0.060 A 
ATOM     54  C10 99A d   1     -11.059 -20.924 -16.038  0.00  0.00     0.038 A 
ATOM     55  H4  99A d   1     -10.819 -22.755 -17.150  0.00  0.00     0.086 H 
ATOM     56  C11 99A d   1     -10.950 -19.510 -16.034  0.00  0.00    -0.045 A 
ATOM     57  C12 99A d   1     -10.454 -18.882 -17.154  0.00  0.00    -0.060 A 
ATOM     58  H10 99A d   1     -10.337 -17.804 -17.155  0.00  0.00     0.086 H 
BRANCH  52  59
ATOM     59  C15 99A d   1      -9.873 -21.907 -19.510  0.00  0.00    -0.050 C 
ATOM     60  H1  99A d   1     -10.070 -22.962 -19.271  0.00  0.00     0.033 H 
ATOM     61  H2  99A d   1      -8.807 -21.778 -19.747  0.00  0.00     0.033 H 
ATOM     62  H3  99A d   1     -10.480 -21.608 -20.377  0.00  0.00     0.033 H 
ENDBRANCH  52  59
BRANCH  54  63
ATOM     63  C14 99A d   1     -11.693 -21.641 -14.859  0.00  0.00     0.249 C 
ATOM     64  O2  99A d   1     -12.838 -21.272 -14.561  0.00  0.00    -0.268 OA
ATOM     65  N2  99A d   1     -11.060 -22.662 -14.307  0.00  0.00    -0.366 N 
ATOM     66  H5  99A d   1     -11.467 -23.142 -13.530  0.00  0.00     0.159 HD
ATOM     67  H6  99A d   1     -10.174 -22.954 -14.666  0.00  0.00     0.159 HD
ENDBRANCH  54  63
BRANCH  56  68
ATOM     68  C13 99A d   1     -11.333 -18.637 -14.837  0.00  0.00    -0.050 C 
ATOM     69  H7  99A d   1     -11.158 -17.579 -15.083  0.00  0.00     0.033 H 
ATOM     70  H8  99A d   1     -10.720 -18.918 -13.968  0.00  0.00     0.033 H 
ATOM     71  H9  99A d   1     -12.397 -18.786 -14.600  0.00  0.00     0.033 H 
ENDBRANCH  56  68
ENDBRANCH  48  51
ENDBRANCH   1  47
TORSDOF 9
