REMARK  9 active torsions:
REMARK  status: ('A' for Active; 'I' for Inactive)
REMARK    1  A    between atoms: C20_1  and  C13_2 
REMARK    2  A    between atoms: C14_3  and  O2_4 
REMARK    3  A    between atoms: O2_4  and  C19_5 
REMARK    4  A    between atoms: C12_9  and  C10_10 
REMARK       I    between atoms: C10_10  and  N1_12 
REMARK    5  A    between atoms: N1_12  and  C4_13 
REMARK    6  A    between atoms: N4_20  and  C21_21 
REMARK    7  A    between atoms: C24_26  and  C27_27 
REMARK       I    between atoms: C27_27  and  N3_29 
REMARK    8  A    between atoms: N3_29  and  C11_30 
REMARK    9  A    between atoms: C11_30  and  C17_31 
ROOT
ATOM      1  C4  592 d   1      -3.970   5.798  -3.755  0.00  0.00     0.016 C 
ATOM      2  C5  592 d   1      -2.636   5.739  -4.599  0.00  0.00    -0.027 C 
ATOM      3  C3  592 d   1      -5.227   5.563  -4.684  0.00  0.00    -0.027 C 
ATOM      4  C2  592 d   1      -5.002   4.443  -5.755  0.00  0.00     0.016 C 
ATOM      5  C8  592 d   1      -4.599   3.124  -5.146  0.00  0.00    -0.044 C 
ATOM      6  C7  592 d   1      -3.043   3.223  -5.103  0.00  0.00    -0.044 C 
ATOM      7  C6  592 d   1      -2.652   4.609  -5.644  0.00  0.00     0.016 C 
ATOM      8  N4  592 d   1      -3.836   4.915  -6.489  0.00  0.00    -0.356 N 
ATOM      9  H11 592 d   1      -4.043   6.806  -3.320  0.00  0.00     0.072 H 
ATOM     10  H12 592 d   1      -1.791   5.574  -3.914  0.00  0.00     0.039 H 
ATOM     11  H13 592 d   1      -2.504   6.699  -5.119  0.00  0.00     0.039 H 
ATOM     12  H14 592 d   1      -5.457   6.504  -5.205  0.00  0.00     0.039 H 
ATOM     13  H15 592 d   1      -6.080   5.276  -4.052  0.00  0.00     0.039 H 
ATOM     14  H16 592 d   1      -5.887   4.321  -6.397  0.00  0.00     0.072 H 
ATOM     15  H17 592 d   1      -4.925   2.282  -5.774  0.00  0.00     0.036 H 
ATOM     16  H18 592 d   1      -5.017   3.011  -4.135  0.00  0.00     0.036 H 
ATOM     17  H19 592 d   1      -2.599   2.436  -5.731  0.00  0.00     0.036 H 
ATOM     18  H20 592 d   1      -2.688   3.110  -4.068  0.00  0.00     0.036 H 
ATOM     19  H21 592 d   1      -1.703   4.574  -6.199  0.00  0.00     0.072 H 
ENDROOT
BRANCH   8  20
ATOM     20  C21 592 d   1      -3.880   5.740  -7.601  0.00  0.00     0.126 A 
ATOM     21  C26 592 d   1      -5.113   6.012  -8.249  0.00  0.00    -0.038 A 
ATOM     22  C25 592 d   1      -5.116   6.858  -9.349  0.00  0.00    -0.063 A 
ATOM     23  H22 592 d   1      -6.035   5.567  -7.891  0.00  0.00     0.089 H 
ATOM     24  C24 592 d   1      -3.893   7.440  -9.767  0.00  0.00     0.049 A 
ATOM     25  H23 592 d   1      -6.037   7.070  -9.879  0.00  0.00     0.085 H 
ATOM     26  C23 592 d   1      -2.698   7.144  -9.098  0.00  0.00     0.020 A 
ATOM     27  N2  592 d   1      -2.737   6.351  -8.020  0.00  0.00    -0.242 NA
ATOM     28  H24 592 d   1      -1.756   7.551  -9.448  0.00  0.00     0.116 H 
BRANCH  24  29
ATOM     29  C27 592 d   1      -3.842   8.316 -10.984  0.00  0.00     0.253 C 
ATOM     30  O3  592 d   1      -2.777   8.796 -11.366  0.00  0.00    -0.268 OA
ATOM     31  N3  592 d   1      -5.043   8.507 -11.598  0.00  0.00    -0.353 N 
ATOM     32  H25 592 d   1      -5.878   8.147 -11.182  0.00  0.00     0.163 HD
BRANCH  31  33
ATOM     33  C11 592 d   1      -5.116   9.252 -12.889  0.00  0.00     0.019 C 
ATOM     34  H26 592 d   1      -6.076   9.009 -13.368  0.00  0.00     0.071 H 
ATOM     35  H27 592 d   1      -4.290   8.907 -13.528  0.00  0.00     0.071 H 
BRANCH  33  36
ATOM     36  C17 592 d   1      -5.019  10.764 -12.770  0.00  0.00    -0.041 A 
ATOM     37  C18 592 d   1      -4.760  11.531 -13.909  0.00  0.00    -0.075 A 
ATOM     38  C22 592 d   1      -4.682  12.920 -13.815  0.00  0.00    -0.082 A 
ATOM     39  H28 592 d   1      -4.619  11.045 -14.868  0.00  0.00     0.084 H 
ATOM     40  C28 592 d   1      -4.885  13.530 -12.569  0.00  0.00    -0.083 A 
ATOM     41  H29 592 d   1      -4.468  13.519 -14.692  0.00  0.00     0.083 H 
ATOM     42  C9  592 d   1      -5.118  12.783 -11.419  0.00  0.00    -0.082 A 
ATOM     43  H30 592 d   1      -4.860  14.611 -12.500  0.00  0.00     0.083 H 
ATOM     44  C29 592 d   1      -5.205  11.376 -11.516  0.00  0.00    -0.075 A 
ATOM     45  H31 592 d   1      -5.231  13.274 -10.460  0.00  0.00     0.083 H 
ATOM     46  H32 592 d   1      -5.412  10.776 -10.637  0.00  0.00     0.084 H 
ENDBRANCH  33  36
ENDBRANCH  31  33
ENDBRANCH  24  29
ENDBRANCH   8  20
BRANCH   1  47
ATOM     47  N1  592 d   1      -4.003   4.829  -2.654  0.00  0.00    -0.352 N 
ATOM     48  C10 592 d   1      -3.217   4.895  -1.565  0.00  0.00     0.252 C 
ATOM     49  O1  592 d   1      -2.364   5.748  -1.368  0.00  0.00    -0.268 OA
ATOM     50  H10 592 d   1      -4.652   4.071  -2.717  0.00  0.00     0.163 HD
BRANCH  48  51
ATOM     51  C12 592 d   1      -3.457   3.753  -0.579  0.00  0.00     0.040 A 
ATOM     52  C13 592 d   1      -3.755   4.010   0.761  0.00  0.00    -0.013 A 
ATOM     53  C14 592 d   1      -3.988   2.901   1.594  0.00  0.00     0.075 A 
ATOM     54  C15 592 d   1      -3.858   1.579   1.133  0.00  0.00    -0.050 A 
ATOM     55  C16 592 d   1      -3.559   1.349  -0.210  0.00  0.00    -0.079 A 
ATOM     56  H7  592 d   1      -3.989   0.746   1.815  0.00  0.00     0.087 H 
ATOM     57  C1  592 d   1      -3.325   2.437  -1.047  0.00  0.00    -0.067 A 
ATOM     58  H8  592 d   1      -3.510   0.338  -0.597  0.00  0.00     0.083 H 
ATOM     59  H9  592 d   1      -3.036   2.264  -2.077  0.00  0.00     0.085 H 
BRANCH  52  60
ATOM     60  C20 592 d   1      -3.912   5.430   1.337  0.00  0.00    -0.048 C 
ATOM     61  H1  592 d   1      -4.145   5.367   2.410  0.00  0.00     0.033 H 
ATOM     62  H2  592 d   1      -4.729   5.949   0.815  0.00  0.00     0.033 H 
ATOM     63  H3  592 d   1      -2.974   5.988   1.198  0.00  0.00     0.033 H 
ENDBRANCH  52  60
BRANCH  53  64
ATOM     64  O2  592 d   1      -4.330   3.207   2.883  0.00  0.00    -0.355 OA
BRANCH  64  65
ATOM     65  C19 592 d   1      -4.680   2.160   3.749  0.00  0.00     0.010 C 
ATOM     66  H4  592 d   1      -4.926   2.570   4.740  0.00  0.00     0.066 H 
ATOM     67  H5  592 d   1      -3.835   1.462   3.841  0.00  0.00     0.066 H 
ATOM     68  H6  592 d   1      -5.554   1.627   3.346  0.00  0.00     0.066 H 
ENDBRANCH  64  65
ENDBRANCH  53  64
ENDBRANCH  48  51
ENDBRANCH   1  47
TORSDOF 9
