REMARK  6 active torsions:
REMARK  status: ('A' for Active; 'I' for Inactive)
REMARK    1  A    between atoms: C2_2  and  N1_1 
REMARK    2  A    between atoms: C60_22  and  C2_2 
REMARK    3  A    between atoms: C60_22  and  C4_3 
REMARK    4  A    between atoms: C60_22  and  O7_7 
REMARK    5  A    between atoms: C11_11  and  C60_22 
REMARK    6  A    between atoms: C14_14  and  C17_17 
ROOT
ATOM      1  C60 RKD d   1      10.782   9.660   3.271  0.00  0.00     0.135 C 
ENDROOT
BRANCH   1   2
ATOM      2  C2  RKD d   1      11.095   8.163   2.980  0.00  0.00     0.116 C 
ATOM      3  H4  RKD d   1      10.824   7.951   1.935  0.00  0.00     0.081 H 
ATOM      4  H5  RKD d   1      12.175   8.004   3.118  0.00  0.00     0.081 H 
BRANCH   2   5
ATOM      5  N1  RKD d   1      10.367   7.205   3.854  0.00  0.00    -0.076 N 
ATOM      6  H1  RKD d   1      10.622   6.262   3.605  0.00  0.00     0.274 HD
ATOM      7  H2  RKD d   1       9.374   7.328   3.733  0.00  0.00     0.274 HD
ATOM      8  H3  RKD d   1      10.612   7.376   4.817  0.00  0.00     0.274 HD
ENDBRANCH   2   5
ENDBRANCH   1   2
BRANCH   1   9
ATOM      9  C4  RKD d   1      11.451  10.579   2.247  0.00  0.00    -0.018 A 
ATOM     10  C5  RKD d   1      11.894  11.841   2.619  0.00  0.00    -0.072 A 
ATOM     11  C6  RKD d   1      12.495  12.672   1.707  0.00  0.00    -0.061 A 
ATOM     12  H6  RKD d   1      11.764  12.174   3.642  0.00  0.00     0.084 H 
ATOM     13  C7  RKD d   1      12.661  12.255   0.418  0.00  0.00     0.034 A 
ATOM     14  H7  RKD d   1      12.836  13.655   2.009  0.00  0.00     0.086 H 
ATOM     15 CL8  RKD d   1      13.424  13.315  -0.732  0.00  0.00    -0.084 Cl
ATOM     16  C9  RKD d   1      12.236  11.015   0.016  0.00  0.00    -0.061 A 
ATOM     17  C10 RKD d   1      11.630  10.175   0.929  0.00  0.00    -0.072 A 
ATOM     18  H9  RKD d   1      12.375  10.697  -1.011  0.00  0.00     0.086 H 
ATOM     19  H10 RKD d   1      11.292   9.194   0.616  0.00  0.00     0.084 H 
ENDBRANCH   1   9
BRANCH   1  20
ATOM     20  O7  RKD d   1      11.270   9.932   4.583  0.00  0.00    -0.378 OA
ATOM     21  H8  RKD d   1      12.209   9.788   4.607  0.00  0.00     0.211 HD
ENDBRANCH   1  20
BRANCH   1  22
ATOM     22  C11 RKD d   1       9.245   9.741   3.255  0.00  0.00    -0.018 A 
ATOM     23  C12 RKD d   1       8.530   9.439   2.105  0.00  0.00    -0.073 A 
ATOM     24  C13 RKD d   1       7.147   9.510   2.091  0.00  0.00    -0.071 A 
ATOM     25  H11 RKD d   1       9.060   9.144   1.207  0.00  0.00     0.084 H 
ATOM     26  C14 RKD d   1       6.436   9.888   3.229  0.00  0.00    -0.023 A 
ATOM     27  H12 RKD d   1       6.609   9.268   1.181  0.00  0.00     0.084 H 
ATOM     28  C15 RKD d   1       7.157  10.189   4.381  0.00  0.00    -0.071 A 
ATOM     29  C16 RKD d   1       8.536  10.117   4.392  0.00  0.00    -0.073 A 
ATOM     30  H13 RKD d   1       6.629  10.484   5.281  0.00  0.00     0.084 H 
ATOM     31  H14 RKD d   1       9.075  10.357   5.301  0.00  0.00     0.084 H 
BRANCH  26  32
ATOM     32  C17 RKD d   1       4.957   9.960   3.207  0.00  0.00     0.010 A 
ATOM     33  C18 RKD d   1       4.110  10.026   4.300  0.00  0.00     0.034 A 
ATOM     34  N19 RKD d   1       2.835  10.077   3.934  0.00  0.00    -0.187 NA
ATOM     35  H15 RKD d   1       4.449  10.035   5.335  0.00  0.00     0.118 H 
ATOM     36  N20 RKD d   1       2.871  10.041   2.584  0.00  0.00    -0.289 N 
ATOM     37  C21 RKD d   1       4.125   9.970   2.120  0.00  0.00     0.008 A 
ATOM     38  H16 RKD d   1       2.034  10.065   1.984  0.00  0.00     0.188 HD
ATOM     39  H17 RKD d   1       4.426   9.928   1.074  0.00  0.00     0.115 H 
ENDBRANCH  26  32
ENDBRANCH   1  22
TORSDOF 6
