REMARK  6 active torsions:
REMARK  status: ('A' for Active; 'I' for Inactive)
REMARK    1  A    between atoms: C1_1  and  C4_3 
REMARK    2  A    between atoms: C6_5  and  N10_6 
REMARK    3  A    between atoms: N10_6  and  C14_7 
REMARK    4  A    between atoms: N10_6  and  C12_13 
REMARK    5  A    between atoms: C12_13  and  C22_14 
REMARK    6  A    between atoms: C8_22  and  N29_23 
ROOT
ATOM      1  N10 V65 d   1     -16.810   8.540 -26.782  0.00  0.00    -0.205 N 
ENDROOT
BRANCH   1   2
ATOM      2  C6  V65 d   1     -17.780   7.764 -27.425  0.00  0.00     0.743 A 
ATOM      3  N5  V65 d   1     -18.245   8.270 -28.565  0.00  0.00    -0.041 NA
ATOM      4  C4  V65 d   1     -19.189   7.610 -29.250  0.00  0.00     0.204 A 
ATOM      5  N9  V65 d   1     -19.666   6.447 -28.793  0.00  0.00    -0.041 NA
ATOM      6  C8  V65 d   1     -19.169   5.971 -27.639  0.00  0.00     0.742 A 
ATOM      7  N7  V65 d   1     -18.224   6.604 -26.928  0.00  0.00     0.130 NA
BRANCH   4   8
ATOM      8  C1  V65 d   1     -19.699   8.241 -30.493  0.00  0.00     0.041 C 
ATOM      9  N2  V65 d   1     -20.611   7.665 -31.257  0.00  0.00    -0.308 NA
ATOM     10  H2  V65 d   1     -20.932   8.126 -32.094  0.00  0.00     0.186 HD
ATOM     11  H1  V65 d   1     -19.308   9.214 -30.786  0.00  0.00     0.119 H 
ENDBRANCH   4   8
BRANCH   6  12
ATOM     12  N29 V65 d   1     -19.678   4.748 -27.187  0.00  0.00    -0.209 N 
ATOM     13  C30 V65 d   1     -20.726   4.051 -27.971  0.00  0.00     0.032 C 
ATOM     14  C31 V65 d   1     -20.538   2.527 -27.919  0.00  0.00     0.035 C 
ATOM     15  H20 V65 d   1     -20.672   4.384 -29.018  0.00  0.00     0.068 H 
ATOM     16  H21 V65 d   1     -21.713   4.305 -27.556  0.00  0.00     0.068 H 
ATOM     17  O32 V65 d   1     -20.418   2.084 -26.563  0.00  0.00    -0.388 OA
ATOM     18  H22 V65 d   1     -19.626   2.255 -28.471  0.00  0.00     0.076 H 
ATOM     19  H23 V65 d   1     -21.407   2.039 -28.384  0.00  0.00     0.076 H 
ATOM     20  C33 V65 d   1     -19.246   2.599 -25.929  0.00  0.00     0.035 C 
ATOM     21  C34 V65 d   1     -19.195   4.138 -25.925  0.00  0.00     0.032 C 
ATOM     22  H24 V65 d   1     -18.362   2.220 -26.463  0.00  0.00     0.076 H 
ATOM     23  H25 V65 d   1     -19.225   2.244 -24.888  0.00  0.00     0.076 H 
ATOM     24  H26 V65 d   1     -19.821   4.505 -25.099  0.00  0.00     0.068 H 
ATOM     25  H27 V65 d   1     -18.153   4.452 -25.763  0.00  0.00     0.068 H 
ENDBRANCH   6  12
ENDBRANCH   1   2
BRANCH   1  26
ATOM     26  C14 V65 d   1     -16.347   9.802 -27.386  0.00  0.00     0.029 C 
ATOM     27  C15 V65 d   1     -15.669  10.679 -26.337  0.00  0.00    -0.045 C 
ATOM     28  C16 V65 d   1     -14.911  11.797 -27.069  0.00  0.00    -0.063 C 
ATOM     29  H4  V65 d   1     -14.964  10.076 -25.745  0.00  0.00     0.036 H 
ATOM     30  H5  V65 d   1     -16.427  11.117 -25.670  0.00  0.00     0.036 H 
ATOM     31  C17 V65 d   1     -15.915  12.654 -27.832  0.00  0.00    -0.065 C 
ATOM     32  H6  V65 d   1     -14.191  11.355 -27.774  0.00  0.00     0.033 H 
ATOM     33  H7  V65 d   1     -14.374  12.419 -26.338  0.00  0.00     0.033 H 
ATOM     34  C18 V65 d   1     -16.754  11.762 -28.751  0.00  0.00    -0.063 C 
ATOM     35  H8  V65 d   1     -15.377  13.399 -28.436  0.00  0.00     0.033 H 
ATOM     36  H9  V65 d   1     -16.575  13.168 -27.118  0.00  0.00     0.033 H 
ATOM     37  C19 V65 d   1     -17.457  10.659 -27.962  0.00  0.00    -0.045 C 
ATOM     38  H10 V65 d   1     -16.096  11.301 -29.502  0.00  0.00     0.033 H 
ATOM     39  H11 V65 d   1     -17.511  12.380 -29.256  0.00  0.00     0.033 H 
ATOM     40  H12 V65 d   1     -18.066  11.092 -27.155  0.00  0.00     0.036 H 
ATOM     41  H13 V65 d   1     -18.099  10.061 -28.626  0.00  0.00     0.036 H 
ATOM     42  H3  V65 d   1     -15.632   9.555 -28.185  0.00  0.00     0.073 H 
ENDBRANCH   1  26
BRANCH   1  43
ATOM     43  C12 V65 d   1     -16.152   8.131 -25.523  0.00  0.00     0.036 C 
ATOM     44  H14 V65 d   1     -16.775   7.414 -24.969  0.00  0.00     0.072 H 
ATOM     45  H15 V65 d   1     -15.944   9.004 -24.887  0.00  0.00     0.072 H 
BRANCH  43  46
ATOM     46  C22 V65 d   1     -14.878   7.489 -25.984  0.00  0.00    -0.040 A 
ATOM     47  C23 V65 d   1     -13.776   8.270 -26.307  0.00  0.00    -0.074 A 
ATOM     48  C24 V65 d   1     -12.617   7.664 -26.759  0.00  0.00    -0.061 A 
ATOM     49  H16 V65 d   1     -13.823   9.348 -26.206  0.00  0.00     0.084 H 
ATOM     50  C25 V65 d   1     -12.568   6.272 -26.894  0.00  0.00     0.034 A 
ATOM     51  H17 V65 d   1     -11.750   8.265 -27.008  0.00  0.00     0.086 H 
ATOM     52 CL   V65 d   1     -11.108   5.490 -27.482  0.00  0.00    -0.084 Cl
ATOM     53  C26 V65 d   1     -13.673   5.486 -26.573  0.00  0.00    -0.061 A 
ATOM     54  C27 V65 d   1     -14.827   6.105 -26.122  0.00  0.00    -0.074 A 
ATOM     55  H18 V65 d   1     -13.630   4.408 -26.675  0.00  0.00     0.086 H 
ATOM     56  H19 V65 d   1     -15.697   5.507 -25.875  0.00  0.00     0.084 H 
ENDBRANCH  43  46
ENDBRANCH   1  43
TORSDOF 6
