REMARK  8 active torsions:
REMARK  status: ('A' for Active; 'I' for Inactive)
REMARK    1  A    between atoms: N1_1  and  C1'_9 
REMARK    2  A    between atoms: C2'_10  and  O2'_11 
REMARK    3  A    between atoms: C3'_12  and  O3'_15 
REMARK    4  A    between atoms: C4'_13  and  C5'_16 
REMARK    5  A    between atoms: C5'_16  and  O5'_17 
REMARK    6  A    between atoms: O5'_17  and  PA_18 
REMARK    7  A    between atoms: PA_18  and  O3A_21 
REMARK    8  A    between atoms: O3A_21  and  PB_22 
ROOT
ATOM      1  C1' UDP d   1     137.556 -23.831  30.660  0.00  0.00     0.141 C 
ATOM      2  C2' UDP d   1     137.969 -23.709  32.117  0.00  0.00     0.105 C 
ATOM      3  C3' UDP d   1     137.713 -25.149  32.518  0.00  0.00     0.091 C 
ATOM      4  C4' UDP d   1     136.316 -25.348  31.925  0.00  0.00     0.089 C 
ATOM      5  O4' UDP d   1     136.316 -24.577  30.728  0.00  0.00    -0.353 OA
ATOM      6  H   UDP d   1     138.408 -24.278  30.148  0.00  0.00     0.123 H 
ATOM      7  H   UDP d   1     137.455 -22.932  32.683  0.00  0.00     0.093 H 
ATOM      8  H   UDP d   1     137.783 -25.362  33.585  0.00  0.00     0.091 H 
ATOM      9  H   UDP d   1     136.145 -26.417  31.796  0.00  0.00     0.090 H 
ENDROOT
BRANCH   4  10
ATOM     10  C5' UDP d   1     135.171 -24.857  32.796  0.00  0.00     0.058 C 
ATOM     11  H   UDP d   1     134.597 -24.105  32.255  0.00  0.00     0.079 H 
ATOM     12  H   UDP d   1     135.570 -24.416  33.709  0.00  0.00     0.079 H 
BRANCH  10  13
ATOM     13  O5' UDP d   1     134.321 -25.962  33.128  0.00  0.00    -0.287 OA
BRANCH  13  14
ATOM     14  PA  UDP d   1     133.404 -25.801  34.426  0.00  0.00     0.418 P 
ATOM     15  O1A UDP d   1     132.643 -24.437  34.422  0.00  0.00    -0.624 OA
ATOM     16  O2A UDP d   1     132.710 -27.128  34.617  0.00  0.00    -0.624 OA
BRANCH  14  17
ATOM     17  O3A UDP d   1     134.594 -25.646  35.523  0.00  0.00    -0.173 OA
BRANCH  17  18
ATOM     18  PB  UDP d   1     134.323 -25.081  37.013  0.00  0.00     0.431 P 
ATOM     19  O1B UDP d   1     134.834 -23.661  37.009  0.00  0.00    -0.616 OA
ATOM     20  O2B UDP d   1     135.310 -26.000  37.655  0.00  0.00    -0.616 OA
ATOM     21  O3B UDP d   1     132.821 -25.333  37.280  0.00  0.00    -0.616 OA
ENDBRANCH  17  18
ENDBRANCH  14  17
ENDBRANCH  13  14
ENDBRANCH  10  13
ENDBRANCH   4  10
BRANCH   3  22
ATOM     22  O3' UDP d   1     138.702 -26.036  31.891  0.00  0.00    -0.390 OA
ATOM     23  H   UDP d   1     139.563 -25.884  32.287  0.00  0.00     0.210 HD
ENDBRANCH   3  22
BRANCH   2  24
ATOM     24  O2' UDP d   1     139.345 -23.369  32.286  0.00  0.00    -0.388 OA
ATOM     25  H   UDP d   1     139.545 -23.307  33.223  0.00  0.00     0.210 HD
ENDBRANCH   2  24
BRANCH   1  26
ATOM     26  N1  UDP d   1     137.380 -22.644  29.799  0.00  0.00    -0.280 N 
ATOM     27  C2  UDP d   1     138.152 -22.508  28.607  0.00  0.00     0.331 A 
ATOM     28  N3  UDP d   1     137.913 -21.456  27.825  0.00  0.00    -0.275 N 
ATOM     29  O2  UDP d   1     139.061 -23.325  28.254  0.00  0.00    -0.246 OA
ATOM     30  C4  UDP d   1     136.972 -20.555  28.127  0.00  0.00     0.250 A 
ATOM     31  H   UDP d   1     138.462 -21.335  26.974  0.00  0.00     0.173 HD
ATOM     32  C5  UDP d   1     136.205 -20.670  29.273  0.00  0.00    -0.002 A 
ATOM     33  O4  UDP d   1     136.794 -19.591  27.363  0.00  0.00    -0.268 OA
ATOM     34  C6  UDP d   1     136.423 -21.749  30.108  0.00  0.00    -0.008 A 
ATOM     35  H   UDP d   1     135.445 -19.926  29.512  0.00  0.00     0.094 H 
ATOM     36  H   UDP d   1     135.825 -21.875  31.010  0.00  0.00     0.112 H 
ENDBRANCH   1  26
TORSDOF 8
