REMARK  5 active torsions:
REMARK  status: ('A' for Active; 'I' for Inactive)
REMARK    1  A    between atoms: O4_1  and  C4_2 
REMARK    2  A    between atoms: C3_3  and  O3_4 
REMARK    3  A    between atoms: C2_5  and  O2_11 
REMARK    4  A    between atoms: C5_8  and  C6_9 
REMARK    5  A    between atoms: C6_9  and  O6_10 
ROOT
ATOM      1  C4  IFL d   1       4.247  29.762   1.785  0.00  0.00     0.071 C 
ATOM      2  C3  IFL d   1       2.759  30.087   1.590  0.00  0.00     0.110 C 
ATOM      3  C2  IFL d   1       2.165  30.868   2.699  0.00  0.00     0.217 C 
ATOM      4  N   IFL d   1       2.952  32.061   3.006  0.00  0.00    -0.046 N 
ATOM      5  C7  IFL d   1       4.409  31.867   3.220  0.00  0.00     0.092 C 
ATOM      6  C5  IFL d   1       5.074  30.997   2.142  0.00  0.00     0.017 C 
ATOM      7  H2  IFL d   1       4.640  29.332   0.852  0.00  0.00     0.087 H 
ATOM      8  H3  IFL d   1       2.209  29.142   1.470  0.00  0.00     0.093 H 
ATOM      9  H5  IFL d   1       2.163  30.230   3.595  0.00  0.00     0.133 H 
ATOM     10  H6  IFL d   1       2.572  32.469   3.846  0.00  0.00     0.280 HD
ATOM     11  H7  IFL d   1       2.840  32.706   2.239  0.00  0.00     0.280 HD
ATOM     12  H8  IFL d   1       4.557  31.384   4.197  0.00  0.00     0.076 H 
ATOM     13  H9  IFL d   1       4.896  32.853   3.221  0.00  0.00     0.076 H 
ATOM     14  H10 IFL d   1       6.013  30.631   2.583  0.00  0.00     0.049 H 
ENDROOT
BRANCH   6  15
ATOM     15  C6  IFL d   1       5.461  31.769   0.878  0.00  0.00     0.024 C 
ATOM     16  H11 IFL d   1       4.545  32.064   0.345  0.00  0.00     0.074 H 
ATOM     17  H12 IFL d   1       6.067  31.116   0.232  0.00  0.00     0.074 H 
BRANCH  15  18
ATOM     18  O6  IFL d   1       6.222  32.953   1.193  0.00  0.00    -0.400 OA
ATOM     19  H13 IFL d   1       5.703  33.524   1.747  0.00  0.00     0.209 HD
ENDBRANCH  15  18
ENDBRANCH   6  15
BRANCH   1  20
ATOM     20  O4  IFL d   1       4.372  28.801   2.846  0.00  0.00    -0.392 OA
ATOM     21  H1  IFL d   1       3.896  28.012   2.615  0.00  0.00     0.210 HD
ENDBRANCH   1  20
BRANCH   2  22
ATOM     22  O3  IFL d   1       2.584  30.918   0.427  0.00  0.00    -0.389 OA
ATOM     23  H4  IFL d   1       2.907  30.460  -0.340  0.00  0.00     0.210 HD
ENDBRANCH   2  22
BRANCH   3  24
ATOM     24  O2  IFL d   1       0.862  31.198   2.411  0.00  0.00    -0.368 OA
ATOM     25  H14 IFL d   1       0.474  31.635   3.160  0.00  0.00     0.212 HD
ENDBRANCH   3  24
TORSDOF 5
