REMARK  11 active torsions:
REMARK  status: ('A' for Active; 'I' for Inactive)
REMARK    1  A    between atoms: C3B_8  and  PG_1 
REMARK    2  A    between atoms: PB_5  and  C3B_8 
REMARK    3  A    between atoms: O3A_12  and  PB_5 
REMARK    4  A    between atoms: PA_9  and  O3A_12 
REMARK    5  A    between atoms: PA_9  and  O5'_13 
REMARK    6  A    between atoms: O5'_13  and  C5'_14 
REMARK    7  A    between atoms: C5'_14  and  C4'_15 
REMARK    8  A    between atoms: C3'_17  and  O3'_18 
REMARK    9  A    between atoms: C2'_19  and  O2'_20 
REMARK   10  A    between atoms: C1'_21  and  N9_22 
REMARK   11  A    between atoms: C6_26  and  N6_27 
ROOT
ATOM      1  C4' ACP d   1     -19.091  25.488   0.205  0.00  0.00     0.089 C 
ATOM      2  O4' ACP d   1     -20.308  26.201  -0.117  0.00  0.00    -0.353 OA
ATOM      3  C3' ACP d   1     -18.221  26.446   1.024  0.00  0.00     0.091 C 
ATOM      4  C2' ACP d   1     -19.213  27.522   1.491  0.00  0.00     0.105 C 
ATOM      5  C1' ACP d   1     -20.223  27.536   0.344  0.00  0.00     0.139 C 
ATOM      6  H5  ACP d   1     -18.552  25.269  -0.729  0.00  0.00     0.090 H 
ATOM      7  H6  ACP d   1     -17.808  25.924   1.900  0.00  0.00     0.091 H 
ATOM      8  H8  ACP d   1     -19.694  27.218   2.432  0.00  0.00     0.093 H 
ATOM      9  H10 ACP d   1     -19.841  28.188  -0.455  0.00  0.00     0.122 H 
ENDROOT
BRANCH   1  10
ATOM     10  C5' ACP d   1     -19.417  24.157   0.843  0.00  0.00     0.058 C 
ATOM     11  H3  ACP d   1     -19.919  23.510   0.109  0.00  0.00     0.079 H 
ATOM     12  H4  ACP d   1     -18.489  23.675   1.183  0.00  0.00     0.079 H 
BRANCH  10  13
ATOM     13  O5' ACP d   1     -20.290  24.375   1.971  0.00  0.00    -0.287 OA
BRANCH  13  14
ATOM     14  PA  ACP d   1     -20.465  23.429   3.275  0.00  0.00     0.416 P 
ATOM     15  O1A ACP d   1     -20.959  24.221   4.425  0.00  0.00    -0.624 OA
ATOM     16  O2A ACP d   1     -21.442  22.474   2.603  0.00  0.00    -0.624 OA
BRANCH  14  17
ATOM     17  O3A ACP d   1     -19.131  22.597   3.479  0.00  0.00    -0.203 OA
BRANCH  17  18
ATOM     18  PB  ACP d   1     -18.400  22.008   4.782  0.00  0.00     0.272 P 
ATOM     19  O1B ACP d   1     -17.648  20.905   4.053  0.00  0.00    -0.646 OA
ATOM     20  O2B ACP d   1     -19.608  21.553   5.668  0.00  0.00    -0.646 OA
BRANCH  18  21
ATOM     21  C3B ACP d   1     -17.471  23.221   5.551  0.00  0.00     0.134 C 
ATOM     22  H1  ACP d   1     -16.564  23.391   4.952  0.00  0.00     0.073 H 
ATOM     23  H2  ACP d   1     -18.069  24.144   5.582  0.00  0.00     0.073 H 
BRANCH  21  24
ATOM     24  PG  ACP d   1     -16.984  22.833   7.176  0.00  0.00     0.271 P 
ATOM     25  O1G ACP d   1     -15.791  21.932   7.102  0.00  0.00    -0.639 OA
ATOM     26  O2G ACP d   1     -16.680  24.179   7.874  0.00  0.00    -0.639 OA
ATOM     27  O3G ACP d   1     -18.202  22.188   7.883  0.00  0.00    -0.639 OA
ENDBRANCH  21  24
ENDBRANCH  18  21
ENDBRANCH  17  18
ENDBRANCH  14  17
ENDBRANCH  13  14
ENDBRANCH  10  13
ENDBRANCH   1  10
BRANCH   3  28
ATOM     28  O3' ACP d   1     -17.129  26.948   0.257  0.00  0.00    -0.390 OA
ATOM     29  H7  ACP d   1     -16.611  27.537   0.793  0.00  0.00     0.210 HD
ENDBRANCH   3  28
BRANCH   5  30
ATOM     30  N9  ACP d   1     -21.567  27.991   0.704  0.00  0.00    -0.294 N 
ATOM     31  C8  ACP d   1     -22.313  27.591   1.781  0.00  0.00     0.071 A 
ATOM     32  N7  ACP d   1     -23.515  28.116   1.827  0.00  0.00    -0.236 NA
ATOM     33  H11 ACP d   1     -21.941  26.898   2.534  0.00  0.00     0.144 H 
ATOM     34  C5  ACP d   1     -23.567  28.918   0.697  0.00  0.00     0.149 A 
ATOM     35  C6  ACP d   1     -24.589  29.718   0.144  0.00  0.00     0.155 A 
ATOM     36  C4  ACP d   1     -22.369  28.861   0.000  0.00  0.00     0.167 A 
ATOM     37  N1  ACP d   1     -24.326  30.371  -1.014  0.00  0.00    -0.222 NA
ATOM     38  C2  ACP d   1     -23.114  30.236  -1.568  0.00  0.00     0.091 A 
ATOM     39  N3  ACP d   1     -22.075  29.509  -1.143  0.00  0.00    -0.222 NA
ATOM     40  H14 ACP d   1     -22.953  30.791  -2.485  0.00  0.00     0.146 H 
BRANCH  35  41
ATOM     41  N6  ACP d   1     -25.801  29.855   0.692  0.00  0.00    -0.382 N 
ATOM     42  H12 ACP d   1     -26.506  30.455   0.240  0.00  0.00     0.157 HD
ATOM     43  H13 ACP d   1     -26.030  29.361   1.566  0.00  0.00     0.157 HD
ENDBRANCH  35  41
ENDBRANCH   5  30
BRANCH   4  44
ATOM     44  O2' ACP d   1     -18.618  28.802   1.680  0.00  0.00    -0.388 OA
ATOM     45  H9  ACP d   1     -18.241  29.099   0.860  0.00  0.00     0.210 HD
ENDBRANCH   4  44
TORSDOF 11
