REMARK  12 active torsions:
REMARK  status: ('A' for Active; 'I' for Inactive)
REMARK    1  A    between atoms: C20_1  and  C27_2 
REMARK    2  A    between atoms: N14_18  and  C20_1 
REMARK       I    between atoms: N37_5  and  C41_8 
REMARK       I    between atoms: C41_8  and  N42_9 
REMARK    3  A    between atoms: N3_11  and  C1_12 
REMARK    4  A    between atoms: S7_19  and  N3_11 
REMARK    5  A    between atoms: C1_12  and  C2_13 
REMARK    6  A    between atoms: C1_12  and  C4_15 
REMARK       I    between atoms: C2_13  and  N5_32 
REMARK    7  A    between atoms: C4_15  and  C8_16 
REMARK       I    between atoms: C8_16  and  N14_18 
REMARK    8  A    between atoms: C11_23  and  S7_19 
REMARK    9  A    between atoms: N5_32  and  C9_33 
REMARK   10  A    between atoms: N5_32  and  C10_34 
REMARK   11  A    between atoms: C9_33  and  C16_35 
REMARK   12  A    between atoms: C10_34  and  C17_36 
ROOT
ATOM      1  C1  9MQ d   1      29.893  13.130  25.275  0.00  0.00     0.105 C 
ATOM      2  H   9MQ d   1      29.728  12.064  25.122  0.00  0.00     0.089 H 
ENDROOT
BRANCH   1   3
ATOM      3  N3  9MQ d   1      29.750  13.418  26.661  0.00  0.00    -0.301 N 
ATOM      4  H   9MQ d   1      29.927  14.368  26.986  0.00  0.00     0.173 HD
BRANCH   3   5
ATOM      5  S7  9MQ d   1      29.310  12.275  27.758  0.00  0.00     0.259 S 
ATOM      6  O13 9MQ d   1      28.360  11.426  27.148  0.00  0.00    -0.201 OA
ATOM      7  O12 9MQ d   1      29.063  13.062  28.954  0.00  0.00    -0.201 OA
BRANCH   5   8
ATOM      8  C11 9MQ d   1      30.655  11.305  27.931  0.00  0.00     0.080 A 
ATOM      9  C18 9MQ d   1      30.764  10.060  27.313  0.00  0.00    -0.050 A 
ATOM     10  C25 9MQ d   1      31.940   9.266  27.525  0.00  0.00    -0.025 A 
ATOM     11  H   9MQ d   1      29.962   9.693  26.673  0.00  0.00     0.087 H 
ATOM     12  C31 9MQ d   1      32.088   7.972  26.933  0.00  0.00    -0.072 A 
ATOM     13  C30 9MQ d   1      33.003   9.773  28.362  0.00  0.00    -0.026 A 
ATOM     14  C36 9MQ d   1      33.240   7.241  27.176  0.00  0.00    -0.082 A 
ATOM     15  H   9MQ d   1      31.302   7.565  26.297  0.00  0.00     0.084 H 
ATOM     16  C39 9MQ d   1      34.283   7.769  28.009  0.00  0.00    -0.082 A 
ATOM     17  H   9MQ d   1      33.355   6.253  26.729  0.00  0.00     0.083 H 
ATOM     18  C35 9MQ d   1      34.177   9.006  28.594  0.00  0.00    -0.072 A 
ATOM     19  H   9MQ d   1      35.180   7.174  28.181  0.00  0.00     0.083 H 
ATOM     20  H   9MQ d   1      34.978   9.393  29.224  0.00  0.00     0.084 H 
ATOM     21  C26 9MQ d   1      32.863  11.047  28.966  0.00  0.00    -0.071 A 
ATOM     22  C19 9MQ d   1      31.732  11.777  28.759  0.00  0.00    -0.059 A 
ATOM     23  H   9MQ d   1      33.660  11.443  29.596  0.00  0.00     0.084 H 
ATOM     24  H   9MQ d   1      31.640  12.752  29.237  0.00  0.00     0.085 H 
ENDBRANCH   5   8
ENDBRANCH   3   5
ENDBRANCH   1   3
BRANCH   1  25
ATOM     25  C2  9MQ d   1      31.307  13.590  24.861  0.00  0.00     0.244 C 
ATOM     26  O6  9MQ d   1      31.925  14.432  25.546  0.00  0.00    -0.271 OA
ATOM     27  N5  9MQ d   1      31.868  13.041  23.707  0.00  0.00    -0.336 N 
BRANCH  27  28
ATOM     28  C9  9MQ d   1      31.181  11.955  22.933  0.00  0.00     0.022 C 
ATOM     29  H   9MQ d   1      30.864  12.342  21.965  0.00  0.00     0.071 H 
ATOM     30  H   9MQ d   1      30.308  11.609  23.486  0.00  0.00     0.071 H 
BRANCH  28  31
ATOM     31  C16 9MQ d   1      32.127  10.819  22.731  0.00  0.00    -0.040 A 
ATOM     32  C21 9MQ d   1      32.740  10.195  23.855  0.00  0.00    -0.075 A 
ATOM     33  C28 9MQ d   1      33.656   9.149  23.674  0.00  0.00    -0.082 A 
ATOM     34  H   9MQ d   1      32.495  10.533  24.862  0.00  0.00     0.084 H 
ATOM     35  C34 9MQ d   1      33.959   8.722  22.353  0.00  0.00    -0.083 A 
ATOM     36  H   9MQ d   1      34.128   8.671  24.532  0.00  0.00     0.083 H 
ATOM     37  C29 9MQ d   1      33.335   9.350  21.252  0.00  0.00    -0.082 A 
ATOM     38  H   9MQ d   1      34.670   7.913  22.190  0.00  0.00     0.083 H 
ATOM     39  C22 9MQ d   1      32.415  10.404  21.439  0.00  0.00    -0.075 A 
ATOM     40  H   9MQ d   1      33.568   9.015  20.241  0.00  0.00     0.083 H 
ATOM     41  H   9MQ d   1      31.939  10.883  20.583  0.00  0.00     0.084 H 
ENDBRANCH  28  31
ENDBRANCH  27  28
BRANCH  27  42
ATOM     42  C10 9MQ d   1      33.098  13.590  23.112  0.00  0.00     0.078 C 
ATOM     43  H   9MQ d   1      33.722  12.789  22.716  0.00  0.00     0.081 H 
ATOM     44  H   9MQ d   1      33.685  14.117  23.864  0.00  0.00     0.081 H 
BRANCH  42  45
ATOM     45  C17 9MQ d   1      32.677  14.542  21.998  0.00  0.00     0.191 C 
ATOM     46  O23 9MQ d   1      33.612  14.684  21.068  0.00  0.00    -0.647 OA
ATOM     47  O24 9MQ d   1      31.623  15.137  21.867  0.00  0.00    -0.647 OA
ENDBRANCH  42  45
ENDBRANCH  27  42
ENDBRANCH   1  25
BRANCH   1  48
ATOM     48  C4  9MQ d   1      28.864  13.902  24.400  0.00  0.00     0.037 C 
ATOM     49  H   9MQ d   1      27.881  13.548  24.709  0.00  0.00     0.051 H 
ATOM     50  H   9MQ d   1      29.148  13.713  23.365  0.00  0.00     0.051 H 
BRANCH  48  51
ATOM     51  C8  9MQ d   1      28.834  15.408  24.557  0.00  0.00     0.220 C 
ATOM     52  O15 9MQ d   1      28.216  15.978  25.484  0.00  0.00    -0.274 OA
ATOM     53  N14 9MQ d   1      29.550  16.152  23.598  0.00  0.00    -0.361 N 
ATOM     54  H   9MQ d   1      30.075  15.684  22.859  0.00  0.00     0.162 HD
BRANCH  53  55
ATOM     55  C20 9MQ d   1      29.522  17.638  23.689  0.00  0.00    -0.000 C 
ATOM     56  H   9MQ d   1      29.258  17.984  22.690  0.00  0.00     0.064 H 
ATOM     57  H   9MQ d   1      28.838  17.865  24.507  0.00  0.00     0.064 H 
BRANCH  55  58
ATOM     58  C27 9MQ d   1      30.839  18.369  24.041  0.00  0.00    -0.023 C 
ATOM     59  C32 9MQ d   1      31.355  18.023  25.455  0.00  0.00     0.016 C 
ATOM     60  N37 9MQ d   1      32.579  18.878  25.645  0.00  0.00    -0.218 N 
ATOM     61  H   9MQ d   1      31.585  16.962  25.552  0.00  0.00     0.065 H 
ATOM     62  H   9MQ d   1      30.602  18.221  26.218  0.00  0.00     0.065 H 
ATOM     63  C40 9MQ d   1      33.713  18.696  24.647  0.00  0.00     0.012 C 
ATOM     64  C41 9MQ d   1      32.427  20.094  26.301  0.00  0.00     0.667 C 
ATOM     65  C38 9MQ d   1      33.147  18.946  23.217  0.00  0.00    -0.049 C 
ATOM     66  H   9MQ d   1      34.117  17.686  24.719  0.00  0.00     0.065 H 
ATOM     67  H   9MQ d   1      34.517  19.400  24.860  0.00  0.00     0.065 H 
ATOM     68  C33 9MQ d   1      31.939  18.050  22.978  0.00  0.00    -0.057 C 
ATOM     69  H   9MQ d   1      32.846  19.990  23.125  0.00  0.00     0.035 H 
ATOM     70  H   9MQ d   1      33.917  18.719  22.479  0.00  0.00     0.035 H 
ATOM     71  H   9MQ d   1      31.543  18.231  21.979  0.00  0.00     0.033 H 
ATOM     72  H   9MQ d   1      32.237  17.005  23.065  0.00  0.00     0.033 H 
ATOM     73  N42 9MQ d   1      33.513  20.850  26.342  0.00  0.00    -0.235 N 
ATOM     74  N43 9MQ d   1      31.269  20.421  26.812  0.00  0.00    -0.235 N 
ATOM     75  H   9MQ d   1      33.483  21.762  26.798  0.00  0.00     0.174 HD
ATOM     76  H   9MQ d   1      34.380  20.520  25.918  0.00  0.00     0.174 HD
ATOM     77  H   9MQ d   1      31.155  21.317  27.285  0.00  0.00     0.174 HD
ATOM     78  H   9MQ d   1      30.479  19.780  26.737  0.00  0.00     0.174 HD
ATOM     79  H   9MQ d   1      30.618  19.436  24.032  0.00  0.00     0.044 H 
ENDBRANCH  55  58
ENDBRANCH  53  55
ENDBRANCH  48  51
ENDBRANCH   1  48
TORSDOF 12
