REMARK  11 active torsions:
REMARK  status: ('A' for Active; 'I' for Inactive)
REMARK    1  A    between atoms: N3B_8  and  PG_1 
REMARK    2  A    between atoms: PB_5  and  N3B_8 
REMARK    3  A    between atoms: O3A_12  and  PB_5 
REMARK    4  A    between atoms: PA_9  and  O3A_12 
REMARK    5  A    between atoms: PA_9  and  O5'_13 
REMARK    6  A    between atoms: O5'_13  and  C5'_14 
REMARK    7  A    between atoms: C5'_14  and  C4'_15 
REMARK    8  A    between atoms: C3'_17  and  O3'_18 
REMARK    9  A    between atoms: C2'_19  and  O2'_20 
REMARK   10  A    between atoms: C1'_21  and  N9_22 
REMARK   11  A    between atoms: C6_26  and  N6_27 
ROOT
ATOM      1  C4' ANP d   1     -20.832  39.224  18.657  0.00  0.00     0.089 C 
ATOM      2  O4' ANP d   1     -20.102  38.528  17.626  0.00  0.00    -0.353 OA
ATOM      3  C3' ANP d   1     -22.047  39.801  17.943  0.00  0.00     0.091 C 
ATOM      4  C2' ANP d   1     -21.479  40.173  16.568  0.00  0.00     0.105 C 
ATOM      5  C1' ANP d   1     -20.360  39.134  16.371  0.00  0.00     0.139 C 
ATOM      6  H4  ANP d   1     -20.226  40.056  19.047  0.00  0.00     0.090 H 
ATOM      7  H5  ANP d   1     -22.835  39.041  17.839  0.00  0.00     0.091 H 
ATOM      8  H7  ANP d   1     -22.253  40.064  15.794  0.00  0.00     0.093 H 
ATOM      9  H9  ANP d   1     -19.458  39.668  16.036  0.00  0.00     0.122 H 
ENDROOT
BRANCH   1  10
ATOM     10  C5' ANP d   1     -21.120  38.292  19.809  0.00  0.00     0.058 C 
ATOM     11  H2  ANP d   1     -20.232  38.225  20.454  0.00  0.00     0.079 H 
ATOM     12  H3  ANP d   1     -21.967  38.683  20.391  0.00  0.00     0.079 H 
BRANCH  10  13
ATOM     13  O5' ANP d   1     -21.449  36.978  19.309  0.00  0.00    -0.287 OA
BRANCH  13  14
ATOM     14  PA  ANP d   1     -22.882  36.255  19.532  0.00  0.00     0.417 P 
ATOM     15  O1A ANP d   1     -22.766  34.780  19.525  0.00  0.00    -0.624 OA
ATOM     16  O2A ANP d   1     -23.729  36.897  18.432  0.00  0.00    -0.624 OA
BRANCH  14  17
ATOM     17  O3A ANP d   1     -23.596  36.815  20.829  0.00  0.00    -0.186 OA
BRANCH  17  18
ATOM     18  PB  ANP d   1     -24.750  36.873  21.908  0.00  0.00     0.379 P 
ATOM     19  O1B ANP d   1     -24.404  36.390  23.255  0.00  0.00    -0.629 OA
ATOM     20  O2B ANP d   1     -25.716  35.904  21.110  0.00  0.00    -0.629 OA
BRANCH  18  21
ATOM     21  N3B ANP d   1     -25.476  38.361  21.849  0.00  0.00    -0.218 N 
ATOM     22  H1  ANP d   1     -24.872  39.105  22.135  0.00  0.00     0.179 HD
BRANCH  21  23
ATOM     23  PG  ANP d   1     -26.997  38.881  21.415  0.00  0.00     0.381 P 
ATOM     24  O1G ANP d   1     -27.062  39.577  20.110  0.00  0.00    -0.622 OA
ATOM     25  O2G ANP d   1     -27.963  37.641  21.633  0.00  0.00    -0.622 OA
ATOM     26  O3G ANP d   1     -27.585  39.768  22.596  0.00  0.00    -0.622 OA
ENDBRANCH  21  23
ENDBRANCH  18  21
ENDBRANCH  17  18
ENDBRANCH  14  17
ENDBRANCH  13  14
ENDBRANCH  10  13
ENDBRANCH   1  10
BRANCH   3  27
ATOM     27  O3' ANP d   1     -22.581  40.918  18.645  0.00  0.00    -0.390 OA
ATOM     28  H6  ANP d   1     -21.919  41.596  18.710  0.00  0.00     0.210 HD
ENDBRANCH   3  27
BRANCH   5  29
ATOM     29  N9  ANP d   1     -20.649  38.089  15.388  0.00  0.00    -0.294 N 
ATOM     30  C8  ANP d   1     -21.690  37.196  15.399  0.00  0.00     0.071 A 
ATOM     31  N7  ANP d   1     -21.711  36.387  14.367  0.00  0.00    -0.236 NA
ATOM     32  H10 ANP d   1     -22.433  37.162  16.194  0.00  0.00     0.144 H 
ATOM     33  C5  ANP d   1     -20.604  36.770  13.625  0.00  0.00     0.149 A 
ATOM     34  C6  ANP d   1     -20.066  36.302  12.407  0.00  0.00     0.155 A 
ATOM     35  C4  ANP d   1     -19.936  37.815  14.245  0.00  0.00     0.167 A 
ATOM     36  N1  ANP d   1     -18.942  36.900  11.943  0.00  0.00    -0.222 NA
ATOM     37  C2  ANP d   1     -18.405  37.900  12.652  0.00  0.00     0.091 A 
ATOM     38  N3  ANP d   1     -18.823  38.426  13.809  0.00  0.00    -0.222 NA
ATOM     39  H13 ANP d   1     -17.510  38.344  12.232  0.00  0.00     0.146 H 
BRANCH  34  40
ATOM     40  N6  ANP d   1     -20.605  35.315  11.688  0.00  0.00    -0.382 N 
ATOM     41  H11 ANP d   1     -20.163  35.020  10.806  0.00  0.00     0.157 HD
ATOM     42  H12 ANP d   1     -21.463  34.849  12.015  0.00  0.00     0.157 HD
ENDBRANCH  34  40
ENDBRANCH   5  29
BRANCH   4  43
ATOM     43  O2' ANP d   1     -20.961  41.498  16.510  0.00  0.00    -0.388 OA
ATOM     44  H8  ANP d   1     -21.654  42.117  16.710  0.00  0.00     0.210 HD
ENDBRANCH   4  43
TORSDOF 11
