REMARK  11 active torsions:
REMARK  status: ('A' for Active; 'I' for Inactive)
REMARK    1  A    between atoms: C3B_8  and  PG_1 
REMARK    2  A    between atoms: PB_5  and  C3B_8 
REMARK    3  A    between atoms: O3A_12  and  PB_5 
REMARK    4  A    between atoms: PA_9  and  O3A_12 
REMARK    5  A    between atoms: PA_9  and  O5'_13 
REMARK    6  A    between atoms: O5'_13  and  C5'_14 
REMARK    7  A    between atoms: C5'_14  and  C4'_15 
REMARK    8  A    between atoms: C3'_17  and  O3'_18 
REMARK    9  A    between atoms: C2'_19  and  O2'_20 
REMARK   10  A    between atoms: C1'_21  and  N9_22 
REMARK   11  A    between atoms: C6_26  and  N6_27 
ROOT
ATOM      1  C4' ACP d   1     -22.528  24.185  -1.489  0.00  0.00     0.089 C 
ATOM      2  O4' ACP d   1     -23.723  24.969  -1.704  0.00  0.00    -0.353 OA
ATOM      3  C3' ACP d   1     -21.521  25.092  -0.777  0.00  0.00     0.091 C 
ATOM      4  C2' ACP d   1     -22.388  26.244  -0.244  0.00  0.00     0.105 C 
ATOM      5  C1' ACP d   1     -23.507  26.302  -1.287  0.00  0.00     0.139 C 
ATOM      6  H5  ACP d   1     -22.100  23.909  -2.464  0.00  0.00     0.090 H 
ATOM      7  H6  ACP d   1     -21.067  24.557   0.070  0.00  0.00     0.091 H 
ATOM      8  H8  ACP d   1     -22.794  25.987   0.746  0.00  0.00     0.093 H 
ATOM      9  H10 ACP d   1     -23.166  26.912  -2.137  0.00  0.00     0.122 H 
ENDROOT
BRANCH   1  10
ATOM     10  C5' ACP d   1     -22.883  22.904  -0.777  0.00  0.00     0.058 C 
ATOM     11  H3  ACP d   1     -23.416  22.231  -1.464  0.00  0.00     0.079 H 
ATOM     12  H4  ACP d   1     -21.968  22.411  -0.417  0.00  0.00     0.079 H 
BRANCH  10  13
ATOM     13  O5' ACP d   1     -23.732  23.235   0.341  0.00  0.00    -0.287 OA
BRANCH  13  14
ATOM     14  PA  ACP d   1     -23.810  22.461   1.759  0.00  0.00     0.416 P 
ATOM     15  O1A ACP d   1     -24.064  23.429   2.852  0.00  0.00    -0.624 OA
ATOM     16  O2A ACP d   1     -24.953  21.552   1.301  0.00  0.00    -0.624 OA
BRANCH  14  17
ATOM     17  O3A ACP d   1     -22.528  21.525   1.869  0.00  0.00    -0.203 OA
BRANCH  17  18
ATOM     18  PB  ACP d   1     -21.718  20.893   3.097  0.00  0.00     0.272 P 
ATOM     19  O1B ACP d   1     -21.165  19.722   2.304  0.00  0.00    -0.646 OA
ATOM     20  O2B ACP d   1     -22.868  20.598   4.111  0.00  0.00    -0.646 OA
BRANCH  18  21
ATOM     21  C3B ACP d   1     -20.596  21.986   3.760  0.00  0.00     0.134 C 
ATOM     22  H1  ACP d   1     -19.801  22.167   3.022  0.00  0.00     0.073 H 
ATOM     23  H2  ACP d   1     -21.113  22.931   3.982  0.00  0.00     0.073 H 
BRANCH  21  24
ATOM     24  PG  ACP d   1     -19.877  21.390   5.217  0.00  0.00     0.271 P 
ATOM     25  O1G ACP d   1     -19.405  19.990   4.982  0.00  0.00    -0.639 OA
ATOM     26  O2G ACP d   1     -18.722  22.353   5.569  0.00  0.00    -0.639 OA
ATOM     27  O3G ACP d   1     -20.950  21.494   6.325  0.00  0.00    -0.639 OA
ENDBRANCH  21  24
ENDBRANCH  18  21
ENDBRANCH  17  18
ENDBRANCH  14  17
ENDBRANCH  13  14
ENDBRANCH  10  13
ENDBRANCH   1  10
BRANCH   3  28
ATOM     28  O3' ACP d   1     -20.470  25.489  -1.653  0.00  0.00    -0.390 OA
ATOM     29  H7  ACP d   1     -19.863  26.049  -1.184  0.00  0.00     0.210 HD
ENDBRANCH   3  28
BRANCH   5  30
ATOM     30  N9  ACP d   1     -24.776  26.855  -0.808  0.00  0.00    -0.294 N 
ATOM     31  C8  ACP d   1     -25.458  26.504   0.328  0.00  0.00     0.071 A 
ATOM     32  N7  ACP d   1     -26.556  27.193   0.529  0.00  0.00    -0.236 NA
ATOM     33  H11 ACP d   1     -25.118  25.721   1.005  0.00  0.00     0.144 H 
ATOM     34  C5  ACP d   1     -26.603  28.058  -0.556  0.00  0.00     0.149 A 
ATOM     35  C6  ACP d   1     -27.522  29.061  -0.933  0.00  0.00     0.155 A 
ATOM     36  C4  ACP d   1     -25.518  27.854  -1.394  0.00  0.00     0.167 A 
ATOM     37  N1  ACP d   1     -27.288  29.729  -2.089  0.00  0.00    -0.222 NA
ATOM     38  C2  ACP d   1     -26.200  29.418  -2.804  0.00  0.00     0.091 A 
ATOM     39  N3  ACP d   1     -25.259  28.504  -2.543  0.00  0.00    -0.222 NA
ATOM     40  H14 ACP d   1     -26.063  29.984  -3.719  0.00  0.00     0.146 H 
BRANCH  35  41
ATOM     41  N6  ACP d   1     -28.583  29.407  -0.199  0.00  0.00    -0.382 N 
ATOM     42  H12 ACP d   1     -29.218  30.148  -0.529  0.00  0.00     0.157 HD
ATOM     43  H13 ACP d   1     -28.766  28.933   0.697  0.00  0.00     0.157 HD
ENDBRANCH  35  41
ENDBRANCH   5  30
BRANCH   4  44
ATOM     44  O2' ACP d   1     -21.699  27.486  -0.135  0.00  0.00    -0.388 OA
ATOM     45  H9  ACP d   1     -21.381  27.747  -0.992  0.00  0.00     0.210 HD
ENDBRANCH   4  44
TORSDOF 11
