REMARK  10 active torsions:
REMARK  status: ('A' for Active; 'I' for Inactive)
REMARK    1  A    between atoms: C20_1  and  C27_2 
REMARK    2  A    between atoms: N14_18  and  C20_1 
REMARK       I    between atoms: N37_5  and  C41_8 
REMARK       I    between atoms: C41_8  and  N43_9 
REMARK    3  A    between atoms: N3_11  and  C1_12 
REMARK    4  A    between atoms: S7_19  and  N3_11 
REMARK    5  A    between atoms: C1_12  and  C2_13 
REMARK    6  A    between atoms: C1_12  and  C4_15 
REMARK       I    between atoms: C2_13  and  N5_32 
REMARK    7  A    between atoms: C4_15  and  C8_16 
REMARK       I    between atoms: C8_16  and  N14_18 
REMARK    8  A    between atoms: C11_23  and  S7_19 
REMARK    9  A    between atoms: C21_33  and  C17_38 
REMARK   10  A    between atoms: C10_35  and  C29_41 
ROOT
ATOM      1  C1  9MX d   1      29.673  13.340  25.193  0.00  0.00     0.105 C 
ATOM      2  H   9MX d   1      29.506  12.291  24.946  0.00  0.00     0.089 H 
ENDROOT
BRANCH   1   3
ATOM      3  N3  9MX d   1      29.470  13.437  26.614  0.00  0.00    -0.301 N 
ATOM      4  H   9MX d   1      29.526  14.371  27.021  0.00  0.00     0.173 HD
BRANCH   3   5
ATOM      5  S7  9MX d   1      29.159  12.207  27.645  0.00  0.00     0.259 S 
ATOM      6  O12 9MX d   1      28.827  12.787  28.898  0.00  0.00    -0.201 OA
ATOM      7  O13 9MX d   1      28.217  11.352  27.033  0.00  0.00    -0.201 OA
BRANCH   5   8
ATOM      8  C11 9MX d   1      30.584  11.324  27.861  0.00  0.00     0.080 A 
ATOM      9  C18 9MX d   1      30.772  10.093  27.260  0.00  0.00    -0.050 A 
ATOM     10  C25 9MX d   1      31.965   9.353  27.465  0.00  0.00    -0.025 A 
ATOM     11  H   9MX d   1      29.991   9.685  26.619  0.00  0.00     0.087 H 
ATOM     12  C31 9MX d   1      32.168   8.083  26.847  0.00  0.00    -0.072 A 
ATOM     13  C30 9MX d   1      32.979   9.891  28.308  0.00  0.00    -0.026 A 
ATOM     14  C36 9MX d   1      33.331   7.382  27.060  0.00  0.00    -0.082 A 
ATOM     15  H   9MX d   1      31.395   7.666  26.201  0.00  0.00     0.084 H 
ATOM     16  C39 9MX d   1      34.336   7.929  27.900  0.00  0.00    -0.082 A 
ATOM     17  H   9MX d   1      33.481   6.412  26.587  0.00  0.00     0.083 H 
ATOM     18  C35 9MX d   1      34.173   9.151  28.515  0.00  0.00    -0.072 A 
ATOM     19  H   9MX d   1      35.257   7.370  28.062  0.00  0.00     0.083 H 
ATOM     20  H   9MX d   1      34.958   9.548  29.158  0.00  0.00     0.084 H 
ATOM     21  C26 9MX d   1      32.770  11.152  28.924  0.00  0.00    -0.071 A 
ATOM     22  C19 9MX d   1      31.607  11.841  28.706  0.00  0.00    -0.059 A 
ATOM     23  H   9MX d   1      33.538  11.574  29.573  0.00  0.00     0.084 H 
ATOM     24  H   9MX d   1      31.461  12.807  29.190  0.00  0.00     0.085 H 
ENDBRANCH   5   8
ENDBRANCH   3   5
ENDBRANCH   1   3
BRANCH   1  25
ATOM     25  C2  9MX d   1      31.143  13.746  24.833  0.00  0.00     0.244 C 
ATOM     26  O6  9MX d   1      31.737  14.635  25.480  0.00  0.00    -0.271 OA
ATOM     27  N5  9MX d   1      31.781  13.084  23.800  0.00  0.00    -0.336 N 
ATOM     28  C21 9MX d   1      31.025  12.410  22.761  0.00  0.00     0.099 C 
ATOM     29  C9  9MX d   1      33.194  13.171  23.497  0.00  0.00    -0.001 C 
ATOM     30  C28 9MX d   1      31.549  10.983  22.504  0.00  0.00    -0.033 C 
ATOM     31  H   9MX d   1      30.006  12.327  23.140  0.00  0.00     0.089 H 
ATOM     32  C10 9MX d   1      33.065  10.909  22.334  0.00  0.00    -0.054 C 
ATOM     33  H   9MX d   1      31.099  10.632  21.576  0.00  0.00     0.037 H 
ATOM     34  H   9MX d   1      31.288  10.378  23.372  0.00  0.00     0.037 H 
ATOM     35  C16 9MX d   1      33.823  11.788  23.320  0.00  0.00    -0.047 C 
ATOM     36  H   9MX d   1      33.289  11.292  21.338  0.00  0.00     0.039 H 
ATOM     37  H   9MX d   1      34.831  11.930  22.930  0.00  0.00     0.035 H 
ATOM     38  H   9MX d   1      33.806  11.290  24.289  0.00  0.00     0.035 H 
ATOM     39  H   9MX d   1      33.693  13.670  24.328  0.00  0.00     0.064 H 
ATOM     40  H   9MX d   1      33.311  13.723  22.564  0.00  0.00     0.064 H 
BRANCH  28  41
ATOM     41  C17 9MX d   1      30.937  13.214  21.466  0.00  0.00     0.197 C 
ATOM     42  O23 9MX d   1      31.135  12.468  20.338  0.00  0.00    -0.646 OA
ATOM     43  O24 9MX d   1      30.718  14.430  21.334  0.00  0.00    -0.646 OA
ENDBRANCH  28  41
BRANCH  32  44
ATOM     44  C29 9MX d   1      33.529   9.470  22.458  0.00  0.00    -0.073 C 
ATOM     45  H   9MX d   1      33.258   9.086  23.441  0.00  0.00     0.028 H 
ATOM     46  H   9MX d   1      33.050   8.867  21.686  0.00  0.00     0.028 H 
ATOM     47  H   9MX d   1      34.611   9.427  22.335  0.00  0.00     0.028 H 
ENDBRANCH  32  44
ENDBRANCH   1  25
BRANCH   1  48
ATOM     48  C4  9MX d   1      28.626  14.090  24.303  0.00  0.00     0.037 C 
ATOM     49  H   9MX d   1      27.646  13.800  24.682  0.00  0.00     0.051 H 
ATOM     50  H   9MX d   1      28.852  13.813  23.273  0.00  0.00     0.051 H 
BRANCH  48  51
ATOM     51  C8  9MX d   1      28.661  15.622  24.347  0.00  0.00     0.220 C 
ATOM     52  O15 9MX d   1      27.917  16.247  25.143  0.00  0.00    -0.274 OA
ATOM     53  N14 9MX d   1      29.503  16.297  23.493  0.00  0.00    -0.361 N 
ATOM     54  H   9MX d   1      30.094  15.769  22.851  0.00  0.00     0.162 HD
BRANCH  53  55
ATOM     55  C20 9MX d   1      29.564  17.730  23.491  0.00  0.00    -0.000 C 
ATOM     56  H   9MX d   1      29.187  18.038  22.516  0.00  0.00     0.064 H 
ATOM     57  H   9MX d   1      29.005  18.048  24.371  0.00  0.00     0.064 H 
BRANCH  55  58
ATOM     58  C27 9MX d   1      30.953  18.384  23.624  0.00  0.00    -0.027 C 
ATOM     59  C32 9MX d   1      31.389  18.368  25.091  0.00  0.00    -0.009 C 
ATOM     60  N37 9MX d   1      32.674  18.993  25.352  0.00  0.00    -0.255 NA
ATOM     61  H   9MX d   1      31.481  17.322  25.382  0.00  0.00     0.057 H 
ATOM     62  H   9MX d   1      30.643  18.934  25.649  0.00  0.00     0.057 H 
ATOM     63  C40 9MX d   1      33.467  19.201  24.153  0.00  0.00    -0.014 C 
ATOM     64  C41 9MX d   1      32.585  20.097  26.313  0.00  0.00     0.146 C 
ATOM     65  C38 9MX d   1      33.413  18.087  23.116  0.00  0.00    -0.053 C 
ATOM     66  H   9MX d   1      34.505  19.265  24.480  0.00  0.00     0.056 H 
ATOM     67  H   9MX d   1      33.063  20.090  23.669  0.00  0.00     0.056 H 
ATOM     68  C33 9MX d   1      31.996  17.688  22.753  0.00  0.00    -0.058 C 
ATOM     69  H   9MX d   1      33.899  18.451  22.211  0.00  0.00     0.034 H 
ATOM     70  H   9MX d   1      33.907  17.213  23.540  0.00  0.00     0.034 H 
ATOM     71  H   9MX d   1      31.819  17.979  21.718  0.00  0.00     0.033 H 
ATOM     72  H   9MX d   1      31.899  16.613  22.905  0.00  0.00     0.033 H 
ATOM     73  N43 9MX d   1      31.267  20.312  26.837  0.00  0.00    -0.376 N 
ATOM     74  N42 9MX d   1      33.630  20.803  26.666  0.00  0.00    -0.376 N 
ATOM     75  H   9MX d   1      31.105  21.049  27.524  0.00  0.00     0.158 HD
ATOM     76  H   9MX d   1      30.492  19.728  26.523  0.00  0.00     0.158 HD
ATOM     77  H   9MX d   1      33.531  21.554  27.349  0.00  0.00     0.158 HD
ATOM     78  H   9MX d   1      34.543  20.602  26.258  0.00  0.00     0.158 HD
ATOM     79  H   9MX d   1      30.876  19.414  23.275  0.00  0.00     0.044 H 
ENDBRANCH  55  58
ENDBRANCH  53  55
ENDBRANCH  48  51
ENDBRANCH   1  48
TORSDOF 10
