REMARK  8 active torsions:
REMARK  status: ('A' for Active; 'I' for Inactive)
REMARK    1  A    between atoms: C26_1  and  C25_2 
REMARK    2  A    between atoms: C20_7  and  C16_8 
REMARK    3  A    between atoms: C16_8  and  C17_9 
REMARK    4  A    between atoms: C16_8  and  N15_13 
REMARK    5  A    between atoms: C17_9  and  C18_10 
REMARK       I    between atoms: N15_13  and  C14_14 
REMARK    6  A    between atoms: C14_14  and  C10_16 
REMARK    7  A    between atoms: C12_19  and  O13_20 
REMARK    8  A    between atoms: N7_21  and  C5_22 
ROOT
ATOM      1  N15 S61 d   1     -34.068  11.435  17.151  0.00  0.00    -0.346 N 
ATOM      2  C14 S61 d   1     -34.700  12.619  17.191  0.00  0.00     0.272 C 
ATOM      3  O28 S61 d   1     -34.997  13.262  16.184  0.00  0.00    -0.266 OA
ATOM      4  H   S61 d   1     -33.954  10.963  18.048  0.00  0.00     0.163 HD
ENDROOT
BRANCH   1   5
ATOM      5  C16 S61 d   1     -33.522  10.735  15.990  0.00  0.00     0.048 C 
ATOM      6  H   S61 d   1     -34.001  10.966  15.038  0.00  0.00     0.081 H 
BRANCH   5   7
ATOM      7  C20 S61 d   1     -33.786   9.254  16.207  0.00  0.00    -0.029 A 
ATOM      8  C25 S61 d   1     -35.066   8.713  15.976  0.00  0.00    -0.054 A 
ATOM      9  C24 S61 d   1     -35.255   7.344  16.178  0.00  0.00    -0.077 A 
ATOM     10  C23 S61 d   1     -34.218   6.523  16.581  0.00  0.00    -0.082 A 
ATOM     11  H   S61 d   1     -36.243   6.913  16.014  0.00  0.00     0.084 H 
ATOM     12  C22 S61 d   1     -32.971   7.052  16.797  0.00  0.00    -0.082 A 
ATOM     13  H   S61 d   1     -34.391   5.457  16.727  0.00  0.00     0.083 H 
ATOM     14  C21 S61 d   1     -32.754   8.408  16.614  0.00  0.00    -0.074 A 
ATOM     15  H   S61 d   1     -32.152   6.406  17.112  0.00  0.00     0.083 H 
ATOM     16  H   S61 d   1     -31.761   8.821  16.791  0.00  0.00     0.084 H 
BRANCH   8  17
ATOM     17  C26 S61 d   1     -36.227   9.539  15.478  0.00  0.00    -0.051 C 
ATOM     18  H   S61 d   1     -36.553   9.159  14.510  0.00  0.00     0.033 H 
ATOM     19  H   S61 d   1     -37.049   9.475  16.191  0.00  0.00     0.033 H 
ATOM     20  H   S61 d   1     -35.914  10.578  15.375  0.00  0.00     0.033 H 
ENDBRANCH   8  17
ENDBRANCH   5   7
BRANCH   5  21
ATOM     21  C17 S61 d   1     -32.072  11.210  15.741  0.00  0.00     0.038 C 
ATOM     22  H   S61 d   1     -31.459  10.794  16.541  0.00  0.00     0.052 H 
ATOM     23  H   S61 d   1     -32.096  12.299  15.706  0.00  0.00     0.052 H 
BRANCH  21  24
ATOM     24  C18 S61 d   1     -31.471  10.741  14.437  0.00  0.00     0.174 C 
ATOM     25  O27 S61 d   1     -30.323  10.362  14.352  0.00  0.00    -0.648 OA
ATOM     26  O19 S61 d   1     -32.281  10.794  13.417  0.00  0.00    -0.648 OA
ENDBRANCH  21  24
ENDBRANCH   5  21
ENDBRANCH   1   5
BRANCH   2  27
ATOM     27  C10 S61 d   1     -34.997  13.150  18.548  0.00  0.00     0.149 A 
ATOM     28  N9  S61 d   1     -34.785  12.267  19.547  0.00  0.00    -0.160 NA
ATOM     29  N7  S61 d   1     -35.113  12.969  20.694  0.00  0.00    -0.208 N 
ATOM     30  C12 S61 d   1     -35.528  14.268  20.414  0.00  0.00     0.166 A 
ATOM     31  C11 S61 d   1     -35.452  14.387  19.037  0.00  0.00     0.003 A 
ATOM     32  H   S61 d   1     -35.697  15.269  18.446  0.00  0.00     0.094 H 
BRANCH  29  33
ATOM     33  C5  S61 d   1     -34.993  12.321  21.954  0.00  0.00     0.099 A 
ATOM     34  C4  S61 d   1     -33.753  12.272  22.589  0.00  0.00    -0.052 A 
ATOM     35  C3  S61 d   1     -33.639  11.695  23.850  0.00  0.00    -0.081 A 
ATOM     36  H   S61 d   1     -32.873  12.686  22.098  0.00  0.00     0.087 H 
ATOM     37  C2  S61 d   1     -34.747  11.161  24.486  0.00  0.00    -0.080 A 
ATOM     38  H   S61 d   1     -32.667  11.663  24.342  0.00  0.00     0.083 H 
ATOM     39  C1  S61 d   1     -35.989  11.189  23.872  0.00  0.00    -0.043 A 
ATOM     40  H   S61 d   1     -34.642  10.716  25.475  0.00  0.00     0.083 H 
ATOM     41  C6  S61 d   1     -36.091  11.763  22.629  0.00  0.00     0.145 A 
ATOM     42  H   S61 d   1     -36.864  10.765  24.364  0.00  0.00     0.088 H 
ATOM     43  F8  S61 d   1     -37.300  11.805  22.026  0.00  0.00    -0.204 F 
ENDBRANCH  29  33
BRANCH  30  44
ATOM     44  O13 S61 d   1     -35.890  15.089  21.420  0.00  0.00    -0.345 OA
ATOM     45  H   S61 d   1     -35.149  15.204  22.020  0.00  0.00     0.219 HD
ENDBRANCH  30  44
ENDBRANCH   2  27
TORSDOF 8
