REMARK  8 active torsions:
REMARK  status: ('A' for Active; 'I' for Inactive)
REMARK    1  A    between atoms: N12_1  and  C15_2 
REMARK    2  A    between atoms: S11_12  and  N12_1 
REMARK    3  A    between atoms: C15_2  and  C17_3 
REMARK    4  A    between atoms: C15_2  and  C16_5 
REMARK       I    between atoms: C17_3  and  N19_25 
REMARK    5  A    between atoms: C16_5  and  C18_6 
REMARK    6  A    between atoms: C7_16  and  S11_12 
REMARK    7  A    between atoms: N19_25  and  C23_26 
REMARK    8  A    between atoms: C23_26  and  C26_27 
REMARK       I    between atoms: N30_30  and  C33_33 
REMARK       I    between atoms: C33_33  and  N34_34 
ROOT
ATOM      1  C15 9MU d   1      29.467  13.799  25.203  0.00  0.00     0.100 C 
ATOM      2  H   9MU d   1      29.991  13.701  26.154  0.00  0.00     0.088 H 
ENDROOT
BRANCH   1   3
ATOM      3  N12 9MU d   1      30.402  13.294  24.152  0.00  0.00    -0.301 N 
ATOM      4  H   9MU d   1      30.032  13.003  23.247  0.00  0.00     0.173 HD
BRANCH   3   5
ATOM      5  S11 9MU d   1      32.050  13.200  24.441  0.00  0.00     0.259 S 
ATOM      6  O14 9MU d   1      32.302  14.265  25.384  0.00  0.00    -0.201 OA
ATOM      7  O13 9MU d   1      32.750  13.137  23.237  0.00  0.00    -0.201 OA
BRANCH   5   8
ATOM      8  C7  9MU d   1      32.340  11.749  25.216  0.00  0.00     0.080 A 
ATOM      9  C3  9MU d   1      32.471  11.660  26.611  0.00  0.00    -0.050 A 
ATOM     10  C1  9MU d   1      32.857  10.440  27.230  0.00  0.00    -0.025 A 
ATOM     11  H   9MU d   1      32.274  12.537  27.227  0.00  0.00     0.087 H 
ATOM     12  C4  9MU d   1      32.998  10.365  28.651  0.00  0.00    -0.072 A 
ATOM     13  C2  9MU d   1      33.098   9.272  26.433  0.00  0.00    -0.026 A 
ATOM     14  C8  9MU d   1      33.362   9.171  29.238  0.00  0.00    -0.082 A 
ATOM     15  H   9MU d   1      32.819  11.246  29.267  0.00  0.00     0.084 H 
ATOM     16  C10 9MU d   1      33.599   8.017  28.440  0.00  0.00    -0.082 A 
ATOM     17  H   9MU d   1      33.469   9.111  30.321  0.00  0.00     0.083 H 
ATOM     18  C6  9MU d   1      33.477   8.049  27.066  0.00  0.00    -0.072 A 
ATOM     19  H   9MU d   1      33.884   7.084  28.926  0.00  0.00     0.083 H 
ATOM     20  H   9MU d   1      33.667   7.155  26.473  0.00  0.00     0.084 H 
ATOM     21  C5  9MU d   1      32.946   9.351  25.025  0.00  0.00    -0.071 A 
ATOM     22  C9  9MU d   1      32.577  10.555  24.444  0.00  0.00    -0.059 A 
ATOM     23  H   9MU d   1      33.118   8.472  24.404  0.00  0.00     0.084 H 
ATOM     24  H   9MU d   1      32.462  10.600  23.361  0.00  0.00     0.085 H 
ENDBRANCH   5   8
ENDBRANCH   3   5
ENDBRANCH   1   3
BRANCH   1  25
ATOM     25  C17 9MU d   1      29.127  15.279  24.944  0.00  0.00     0.241 C 
ATOM     26  O20 9MU d   1      28.366  15.874  25.707  0.00  0.00    -0.271 OA
ATOM     27  N19 9MU d   1      29.730  15.893  23.863  0.00  0.00    -0.359 N 
ATOM     28  H   9MU d   1      30.363  15.340  23.285  0.00  0.00     0.162 HD
BRANCH  27  29
ATOM     29  C23 9MU d   1      29.507  17.303  23.500  0.00  0.00     0.000 C 
ATOM     30  H   9MU d   1      28.687  17.678  24.112  0.00  0.00     0.064 H 
ATOM     31  H   9MU d   1      29.293  17.341  22.432  0.00  0.00     0.064 H 
BRANCH  29  32
ATOM     32  C26 9MU d   1      30.756  18.208  23.769  0.00  0.00    -0.023 C 
ATOM     33  C28 9MU d   1      31.185  18.105  25.277  0.00  0.00     0.016 C 
ATOM     34  N30 9MU d   1      32.394  18.975  25.433  0.00  0.00    -0.218 N 
ATOM     35  H   9MU d   1      31.407  17.074  25.551  0.00  0.00     0.065 H 
ATOM     36  H   9MU d   1      30.380  18.432  25.936  0.00  0.00     0.065 H 
ATOM     37  C32 9MU d   1      33.599  18.652  24.608  0.00  0.00     0.012 C 
ATOM     38  C33 9MU d   1      32.342  20.096  26.319  0.00  0.00     0.667 C 
ATOM     39  C31 9MU d   1      33.155  18.732  23.106  0.00  0.00    -0.049 C 
ATOM     40  H   9MU d   1      33.978  17.658  24.848  0.00  0.00     0.065 H 
ATOM     41  H   9MU d   1      34.407  19.355  24.811  0.00  0.00     0.065 H 
ATOM     42  C29 9MU d   1      31.930  17.852  22.811  0.00  0.00    -0.057 C 
ATOM     43  H   9MU d   1      32.889  19.766  22.887  0.00  0.00     0.035 H 
ATOM     44  H   9MU d   1      33.982  18.378  22.490  0.00  0.00     0.035 H 
ATOM     45  H   9MU d   1      31.611  18.024  21.783  0.00  0.00     0.033 H 
ATOM     46  H   9MU d   1      32.202  16.807  22.959  0.00  0.00     0.033 H 
ATOM     47  N34 9MU d   1      33.456  20.878  26.439  0.00  0.00    -0.235 N 
ATOM     48  N35 9MU d   1      31.269  20.312  26.952  0.00  0.00    -0.235 N 
ATOM     49  H   9MU d   1      34.295  20.655  25.904  0.00  0.00     0.174 HD
ATOM     50  H   9MU d   1      33.448  21.684  27.064  0.00  0.00     0.174 HD
ATOM     51  H   9MU d   1      30.468  19.694  26.824  0.00  0.00     0.174 HD
ATOM     52  H   9MU d   1      31.204  21.105  27.591  0.00  0.00     0.174 HD
ATOM     53  H   9MU d   1      30.483  19.243  23.564  0.00  0.00     0.044 H 
ENDBRANCH  29  32
ENDBRANCH  27  29
ENDBRANCH   1  25
BRANCH   1  54
ATOM     54  C16 9MU d   1      28.165  12.953  25.346  0.00  0.00    -0.013 C 
ATOM     55  H   9MU d   1      27.714  12.775  24.370  0.00  0.00     0.043 H 
ATOM     56  H   9MU d   1      27.428  13.482  25.950  0.00  0.00     0.043 H 
BRANCH  54  57
ATOM     57  C18 9MU d   1      28.555  11.634  26.007  0.00  0.00    -0.056 A 
ATOM     58  C21 9MU d   1      28.705  11.581  27.457  0.00  0.00    -0.077 A 
ATOM     59  C24 9MU d   1      29.162  10.385  28.092  0.00  0.00    -0.082 A 
ATOM     60  H   9MU d   1      28.467  12.458  28.059  0.00  0.00     0.084 H 
ATOM     61  C27 9MU d   1      29.460   9.236  27.282  0.00  0.00    -0.083 A 
ATOM     62  H   9MU d   1      29.283  10.345  29.175  0.00  0.00     0.083 H 
ATOM     63  C25 9MU d   1      29.303   9.269  25.861  0.00  0.00    -0.082 A 
ATOM     64  H   9MU d   1      29.812   8.322  27.760  0.00  0.00     0.083 H 
ATOM     65  C22 9MU d   1      28.852  10.458  25.216  0.00  0.00    -0.077 A 
ATOM     66  H   9MU d   1      29.529   8.382  25.269  0.00  0.00     0.083 H 
ATOM     67  H   9MU d   1      28.731  10.482  24.133  0.00  0.00     0.084 H 
ENDBRANCH  54  57
ENDBRANCH   1  54
TORSDOF 8
