REMARK  15 active torsions:
REMARK  status: ('A' for Active; 'I' for Inactive)
REMARK    1  A    between atoms: C35_1  and  C30_2 
REMARK    2  A    between atoms: C29_7  and  C24_8 
REMARK    3  A    between atoms: C24_8  and  C25_9 
REMARK    4  A    between atoms: C24_8  and  N23_13 
REMARK    5  A    between atoms: C25_9  and  C26_10 
REMARK       I    between atoms: N23_13  and  C21_14 
REMARK    6  A    between atoms: C21_14  and  C10_16 
REMARK    7  A    between atoms: C12_19  and  O13_20 
REMARK    8  A    between atoms: O13_20  and  C14_21 
REMARK    9  A    between atoms: C14_21  and  C15_22 
REMARK   10  A    between atoms: C15_22  and  C17_23 
REMARK   11  A    between atoms: C15_22  and  O16_27 
REMARK   12  A    between atoms: C17_23  and  C19_24 
REMARK   13  A    between atoms: C17_23  and  C20_25 
REMARK   14  A    between atoms: C17_23  and  C18_26 
REMARK   15  A    between atoms: N8_28  and  C6_29 
ROOT
ATOM      1  C10 S35 d   1     -34.841  13.104  18.753  0.00  0.00     0.149 A 
ATOM      2  N9  S35 d   1     -34.792  12.273  19.791  0.00  0.00    -0.160 NA
ATOM      3  C11 S35 d   1     -35.091  14.343  19.173  0.00  0.00     0.003 A 
ATOM      4  C12 S35 d   1     -35.233  14.208  20.494  0.00  0.00     0.168 A 
ATOM      5  N8  S35 d   1     -34.987  12.934  20.808  0.00  0.00    -0.208 N 
ATOM      6  H12 S35 d   1     -35.163  15.253  18.579  0.00  0.00     0.094 H 
ENDROOT
BRANCH   1   7
ATOM      7  C21 S35 d   1     -34.587  12.659  17.307  0.00  0.00     0.272 C 
ATOM      8  N23 S35 d   1     -33.940  11.491  17.219  0.00  0.00    -0.346 N 
ATOM      9  H11 S35 d   1     -33.717  11.025  18.075  0.00  0.00     0.163 HD
ATOM     10  O22 S35 d   1     -34.946  13.354  16.353  0.00  0.00    -0.266 OA
BRANCH   8  11
ATOM     11  C24 S35 d   1     -33.529  10.834  15.966  0.00  0.00     0.048 C 
ATOM     12  H8  S35 d   1     -34.148  11.215  15.140  0.00  0.00     0.081 H 
BRANCH  11  13
ATOM     13  C29 S35 d   1     -33.774   9.299  16.079  0.00  0.00    -0.029 A 
ATOM     14  C30 S35 d   1     -35.048   8.739  15.827  0.00  0.00    -0.054 A 
ATOM     15  C31 S35 d   1     -35.246   7.358  15.948  0.00  0.00    -0.077 A 
ATOM     16  C32 S35 d   1     -34.198   6.516  16.331  0.00  0.00    -0.082 A 
ATOM     17  H4  S35 d   1     -36.224   6.937  15.742  0.00  0.00     0.084 H 
ATOM     18  C33 S35 d   1     -32.939   7.060  16.596  0.00  0.00    -0.082 A 
ATOM     19  H5  S35 d   1     -34.361   5.448  16.422  0.00  0.00     0.083 H 
ATOM     20  C34 S35 d   1     -32.735   8.437  16.473  0.00  0.00    -0.074 A 
ATOM     21  H6  S35 d   1     -32.121   6.415  16.897  0.00  0.00     0.083 H 
ATOM     22  H7  S35 d   1     -31.755   8.849  16.686  0.00  0.00     0.084 H 
BRANCH  14  23
ATOM     23  C35 S35 d   1     -36.257   9.586  15.402  0.00  0.00    -0.051 C 
ATOM     24  H1  S35 d   1     -37.132   8.933  15.265  0.00  0.00     0.033 H 
ATOM     25  H2  S35 d   1     -36.031  10.099  14.456  0.00  0.00     0.033 H 
ATOM     26  H3  S35 d   1     -36.474  10.332  16.181  0.00  0.00     0.033 H 
ENDBRANCH  14  23
ENDBRANCH  11  13
BRANCH  11  27
ATOM     27  C25 S35 d   1     -32.061  11.220  15.683  0.00  0.00     0.038 C 
ATOM     28  H9  S35 d   1     -31.425  10.724  16.431  0.00  0.00     0.052 H 
ATOM     29  H10 S35 d   1     -31.966  12.311  15.786  0.00  0.00     0.052 H 
BRANCH  27  30
ATOM     30  C26 S35 d   1     -31.558  10.824  14.286  0.00  0.00     0.174 C 
ATOM     31  O28 S35 d   1     -32.335  10.985  13.322  0.00  0.00    -0.648 OA
ATOM     32  O27 S35 d   1     -30.380  10.417  14.210  0.00  0.00    -0.648 OA
ENDBRANCH  27  30
ENDBRANCH  11  27
ENDBRANCH   8  11
ENDBRANCH   1   7
BRANCH   5  33
ATOM     33  C6  S35 d   1     -35.046  12.389  22.023  0.00  0.00     0.099 A 
ATOM     34  C5  S35 d   1     -33.876  12.184  22.763  0.00  0.00    -0.052 A 
ATOM     35  C4  S35 d   1     -33.945  11.577  24.022  0.00  0.00    -0.081 A 
ATOM     36  H26 S35 d   1     -32.918  12.495  22.362  0.00  0.00     0.087 H 
ATOM     37  C3  S35 d   1     -35.177  11.161  24.537  0.00  0.00    -0.080 A 
ATOM     38  H27 S35 d   1     -33.040  11.429  24.600  0.00  0.00     0.083 H 
ATOM     39  C2  S35 d   1     -36.345  11.354  23.792  0.00  0.00    -0.043 A 
ATOM     40  H28 S35 d   1     -35.227  10.690  25.512  0.00  0.00     0.083 H 
ATOM     41  C1  S35 d   1     -36.277  11.957  22.530  0.00  0.00     0.145 A 
ATOM     42  H29 S35 d   1     -37.302  11.037  24.191  0.00  0.00     0.088 H 
ATOM     43  F7  S35 d   1     -37.402  12.136  21.808  0.00  0.00    -0.204 F 
ENDBRANCH   5  33
BRANCH   4  44
ATOM     44  O13 S35 d   1     -35.453  15.200  21.417  0.00  0.00    -0.332 OA
BRANCH  44  45
ATOM     45  C14 S35 d   1     -36.421  16.236  21.098  0.00  0.00     0.052 C 
ATOM     46  H13 S35 d   1     -37.238  16.207  21.834  0.00  0.00     0.079 H 
ATOM     47  H14 S35 d   1     -36.828  16.054  20.092  0.00  0.00     0.079 H 
BRANCH  45  48
ATOM     48  C15 S35 d   1     -35.753  17.635  21.132  0.00  0.00     0.063 C 
ATOM     49  H15 S35 d   1     -35.340  17.784  20.123  0.00  0.00     0.087 H 
BRANCH  48  50
ATOM     50  C17 S35 d   1     -36.687  18.868  21.374  0.00  0.00    -0.023 C 
BRANCH  50  51
ATOM     51  C19 S35 d   1     -35.990  20.121  20.834  0.00  0.00    -0.067 C 
ATOM     52  H16 S35 d   1     -36.634  20.998  20.997  0.00  0.00     0.028 H 
ATOM     53  H17 S35 d   1     -35.800  20.000  19.757  0.00  0.00     0.028 H 
ATOM     54  H18 S35 d   1     -35.035  20.265  21.360  0.00  0.00     0.028 H 
ENDBRANCH  50  51
BRANCH  50  55
ATOM     55  C20 S35 d   1     -38.030  18.743  20.635  0.00  0.00    -0.067 C 
ATOM     56  H19 S35 d   1     -38.565  17.852  20.995  0.00  0.00     0.028 H 
ATOM     57  H20 S35 d   1     -37.847  18.649  19.555  0.00  0.00     0.028 H 
ATOM     58  H21 S35 d   1     -38.639  19.639  20.827  0.00  0.00     0.028 H 
ENDBRANCH  50  55
BRANCH  50  59
ATOM     59  C18 S35 d   1     -36.972  19.088  22.870  0.00  0.00    -0.067 C 
ATOM     60  H22 S35 d   1     -36.021  19.180  23.415  0.00  0.00     0.028 H 
ATOM     61  H23 S35 d   1     -37.540  18.233  23.265  0.00  0.00     0.028 H 
ATOM     62  H24 S35 d   1     -37.559  20.009  23.000  0.00  0.00     0.028 H 
ENDBRANCH  50  59
ENDBRANCH  48  50
BRANCH  48  63
ATOM     63  O16 S35 d   1     -34.631  17.628  22.033  0.00  0.00    -0.393 OA
ATOM     64  H25 S35 d   1     -34.089  16.868  21.856  0.00  0.00     0.210 HD
ENDBRANCH  48  63
ENDBRANCH  45  48
ENDBRANCH  44  45
ENDBRANCH   4  44
TORSDOF 15
