REMARK WARNING: 32 MAX_TORS EXCEEDED!!!
REMARK  63 active torsions:
REMARK  status: ('A' for Active; 'I' for Inactive)
REMARK    1  A    between atoms: C_1  and  CH3_3 
REMARK       I    between atoms: C_1  and  N_4 
REMARK    2  A    between atoms: N_4  and  CA_5 
REMARK    3  A    between atoms: CA_5  and  C_6 
REMARK    4  A    between atoms: CA_5  and  CB_8 
REMARK       I    between atoms: C_6  and  N_13 
REMARK    5  A    between atoms: CB_8  and  CG_9 
REMARK    6  A    between atoms: CG_9  and  CD_10 
REMARK    7  A    between atoms: CD_10  and  CE_11 
REMARK    8  A    between atoms: CE_11  and  NZ_12 
REMARK    9  A    between atoms: N_13  and  CA_14 
REMARK   10  A    between atoms: CA_14  and  C_15 
REMARK   11  A    between atoms: CA_14  and  CB_17 
REMARK       I    between atoms: C_15  and  N_22 
REMARK   12  A    between atoms: CB_17  and  CG_18 
REMARK   13  A    between atoms: CG_18  and  CD_19 
REMARK   14  A    between atoms: CD_19  and  CE_20 
REMARK   15  A    between atoms: CE_20  and  NZ_21 
REMARK   16  A    between atoms: N_22  and  CA_23 
REMARK   17  A    between atoms: CA_23  and  C_24 
REMARK   18  A    between atoms: CA_23  and  CB_26 
REMARK       I    between atoms: C_24  and  N_33 
REMARK   19  A    between atoms: CB_26  and  CG_27 
REMARK   20  A    between atoms: CG_27  and  CD_28 
REMARK   21  A    between atoms: CD_28  and  NE_29 
REMARK       I    between atoms: NE_29  and  CZ_30 
REMARK       I    between atoms: CZ_30  and  NH1_31 
REMARK       I    between atoms: CZ_30  and  NH2_32 
REMARK   22  A    between atoms: N_33  and  CA_34 
REMARK   23  A    between atoms: CA_34  and  C_35 
REMARK   24  A    between atoms: CA_34  and  CB_37 
REMARK       I    between atoms: C_35  and  N_45 
REMARK   25  A    between atoms: CB_37  and  CG_38 
REMARK   26  A    between atoms: CZ_43  and  OH_44 
REMARK   27  A    between atoms: N_45  and  CA_46 
REMARK   28  A    between atoms: CA_46  and  C_47 
REMARK   29  A    between atoms: CA_46  and  CB_49 
REMARK       I    between atoms: C_47  and  N_51 
REMARK   30  A    between atoms: CB_49  and  OG_50 
REMARK   31  A    between atoms: N_51  and  CA_52 
REMARK   32  A    between atoms: CA_52  and  C_53 
REMARK   33  A    between atoms: CA_52  and  CB_55 
REMARK       I    between atoms: C_53  and  N_62 
REMARK   34  A    between atoms: CB_55  and  CG_56 
REMARK   35  A    between atoms: CG_56  and  CD_57 
REMARK   36  A    between atoms: CD_57  and  NE_58 
REMARK       I    between atoms: NE_58  and  CZ_59 
REMARK       I    between atoms: CZ_59  and  NH1_60 
REMARK   37  A    between atoms: N_62  and  CA_63 
REMARK   38  A    between atoms: CA_63  and  C_64 
REMARK   39  A    between atoms: CA_63  and  CB_66 
REMARK       I    between atoms: C_64  and  N_71 
REMARK   40  A    between atoms: CB_66  and  CG_67 
REMARK   41  A    between atoms: CG_67  and  CD_68 
REMARK   42  A    between atoms: N_71  and  CA_72 
REMARK   43  A    between atoms: CA_72  and  C_73 
REMARK   44  A    between atoms: CA_72  and  CB_75 
REMARK       I    between atoms: C_73  and  N_82 
REMARK   45  A    between atoms: CB_75  and  CG_76 
REMARK   46  A    between atoms: N_82  and  CA_83 
REMARK   47  A    between atoms: CA_83  and  C_84 
REMARK   48  A    between atoms: CA_83  and  CB_86 
REMARK       I    between atoms: C_84  and  N_90 
REMARK   49  A    between atoms: CB_86  and  CG_87 
REMARK   50  A    between atoms: CG_87  and  CD1_88 
REMARK   51  A    between atoms: CG_87  and  CD2_89 
REMARK   52  A    between atoms: N_90  and  CA_91 
REMARK   53  A    between atoms: CA_91  and  C_92 
REMARK   54  A    between atoms: CA_91  and  CB_94 
REMARK       I    between atoms: C_92  and  N_98 
REMARK   55  A    between atoms: CB_94  and  CG_95 
REMARK   56  A    between atoms: CG_95  and  CD1_96 
REMARK   57  A    between atoms: CG_95  and  CD2_97 
REMARK   58  A    between atoms: N_98  and  CA_99 
REMARK   59  A    between atoms: CA_99  and  C_100 
REMARK       I    between atoms: C_100  and  N_102 
REMARK   60  A    between atoms: N_102  and  CA_103 
REMARK   61  A    between atoms: CA_103  and  C_104 
REMARK   62  A    between atoms: CA_103  and  CB_106 
REMARK       I    between atoms: C_104  and  N_113 
REMARK   63  A    between atoms: CB_106  and  CG_107 
ROOT
ATOM      1  CA  ARG d   1     -43.151  -0.592 -10.822  0.00  0.00     0.089 C 
ATOM      2  H58 ARG d   1     -42.159  -1.049 -10.689  0.00  0.00     0.087 H 
ENDROOT
BRANCH   1   3
ATOM      3  N   ARG d   1     -43.993  -1.580 -11.494  0.00  0.00    -0.346 N 
ATOM      4  C   SER d   1     -44.102  -2.822 -11.031  0.00  0.00     0.243 C 
ATOM      5  O   SER d   1     -43.504  -3.216 -10.032  0.00  0.00    -0.271 OA
ATOM      6  H57 ARG d   1     -44.496  -1.317 -12.317  0.00  0.00     0.163 HD
BRANCH   4   7
ATOM      7  CA  SER d   1     -45.026  -3.765 -11.786  0.00  0.00     0.109 C 
ATOM      8  H53 SER d   1     -44.842  -3.672 -12.867  0.00  0.00     0.090 H 
BRANCH   7   9
ATOM      9  N   SER d   1     -44.738  -5.138 -11.364  0.00  0.00    -0.344 N 
ATOM     10  C   TYR d   1     -43.643  -5.773 -11.773  0.00  0.00     0.241 C 
ATOM     11  O   TYR d   1     -42.845  -5.289 -12.584  0.00  0.00    -0.271 OA
ATOM     12  H52 SER d   1     -45.378  -5.608 -10.756  0.00  0.00     0.163 HD
BRANCH  10  13
ATOM     13  CA  TYR d   1     -43.406  -7.163 -11.204  0.00  0.00     0.093 C 
ATOM     14  H44 TYR d   1     -44.326  -7.526 -10.723  0.00  0.00     0.088 H 
BRANCH  13  15
ATOM     15  N   TYR d   1     -43.044  -8.053 -12.294  0.00  0.00    -0.346 N 
ATOM     16  C   ARG d   1     -43.637  -9.230 -12.476  0.00  0.00     0.241 C 
ATOM     17  O   ARG d   1     -44.532  -9.666 -11.747  0.00  0.00    -0.271 OA
ATOM     18  H43 TYR d   1     -42.325  -7.771 -12.929  0.00  0.00     0.163 HD
BRANCH  16  19
ATOM     19  CA  ARG d   1     -43.136 -10.035 -13.654  0.00  0.00     0.089 C 
ATOM     20  H31 ARG d   1     -42.135  -9.671 -13.928  0.00  0.00     0.087 H 
BRANCH  19  21
ATOM     21  N   ARG d   1     -43.028 -11.430 -13.274  0.00  0.00    -0.346 N 
ATOM     22  C   LYS d   1     -41.854 -12.050 -13.259  0.00  0.00     0.241 C 
ATOM     23  O   LYS d   1     -40.816 -11.530 -13.661  0.00  0.00    -0.271 OA
ATOM     24  H30 ARG d   1     -43.853 -11.934 -13.018  0.00  0.00     0.163 HD
BRANCH  22  25
ATOM     25  CA  LYS d   1     -41.857 -13.470 -12.733  0.00  0.00     0.089 C 
ATOM     26  H18 LYS d   1     -42.870 -13.720 -12.383  0.00  0.00     0.087 H 
BRANCH  25  27
ATOM     27  N   LYS d   1     -41.499 -14.369 -13.813  0.00  0.00    -0.346 N 
ATOM     28  C   LYS d   1     -42.260 -15.400 -14.149  0.00  0.00     0.241 C 
ATOM     29  O   LYS d   1     -43.251 -15.739 -13.507  0.00  0.00    -0.271 OA
ATOM     30  H17 LYS d   1     -40.652 -14.206 -14.319  0.00  0.00     0.163 HD
BRANCH  28  31
ATOM     31  CA  LYS d   1     -41.816 -16.190 -15.380  0.00  0.00     0.089 C 
ATOM     32  H5  LYS d   1     -40.840 -15.799 -15.702  0.00  0.00     0.087 H 
BRANCH  31  33
ATOM     33  N   LYS d   1     -41.645 -17.645 -15.054  0.00  0.00    -0.348 N 
ATOM     34  C   ACE d   1     -40.951 -18.052 -13.981  0.00  0.00     0.214 C 
ATOM     35  O   ACE d   1     -39.795 -17.706 -13.782  0.00  0.00    -0.274 OA
ATOM     36  H4  LYS d   1     -42.060 -18.330 -15.653  0.00  0.00     0.163 HD
BRANCH  34  37
ATOM     37  CH3 ACE d   1     -41.772 -18.562 -12.812  0.00  0.00    -0.003 C 
ATOM     38  H1  ACE d   1     -42.781 -18.828 -13.161  0.00  0.00     0.040 H 
ATOM     39  H2  ACE d   1     -41.845 -17.777 -12.045  0.00  0.00     0.040 H 
ATOM     40  H3  ACE d   1     -41.286 -19.450 -12.382  0.00  0.00     0.040 H 
ENDBRANCH  34  37
ENDBRANCH  31  33
BRANCH  31  41
ATOM     41  CB  LYS d   1     -42.810 -15.989 -16.530  0.00  0.00    -0.038 C 
ATOM     42  H6  LYS d   1     -42.968 -14.908 -16.661  0.00  0.00     0.036 H 
ATOM     43  H7  LYS d   1     -43.760 -16.467 -16.249  0.00  0.00     0.036 H 
BRANCH  41  44
ATOM     44  CG  LYS d   1     -42.365 -16.568 -17.867  0.00  0.00    -0.061 C 
ATOM     45  H8  LYS d   1     -43.258 -16.783 -18.473  0.00  0.00     0.033 H 
ATOM     46  H9  LYS d   1     -41.815 -17.502 -17.681  0.00  0.00     0.033 H 
BRANCH  44  47
ATOM     47  CD  LYS d   1     -41.464 -15.617 -18.645  0.00  0.00    -0.043 C 
ATOM     48  H10 LYS d   1     -40.578 -15.387 -18.035  0.00  0.00     0.035 H 
ATOM     49  H11 LYS d   1     -42.018 -14.690 -18.851  0.00  0.00     0.035 H 
BRANCH  47  50
ATOM     50  CE  LYS d   1     -41.009 -16.226 -19.969  0.00  0.00     0.080 C 
ATOM     51  H12 LYS d   1     -40.448 -15.464 -20.530  0.00  0.00     0.075 H 
ATOM     52  H13 LYS d   1     -41.900 -16.522 -20.543  0.00  0.00     0.075 H 
BRANCH  50  53
ATOM     53  NZ  LYS d   1     -40.136 -17.426 -19.793  0.00  0.00    -0.079 N 
ATOM     54  H14 LYS d   1     -39.869 -17.782 -20.697  0.00  0.00     0.274 HD
ATOM     55  H15 LYS d   1     -40.640 -18.137 -19.287  0.00  0.00     0.274 HD
ATOM     56  H16 LYS d   1     -39.310 -17.168 -19.276  0.00  0.00     0.274 HD
ENDBRANCH  50  53
ENDBRANCH  47  50
ENDBRANCH  44  47
ENDBRANCH  41  44
ENDBRANCH  31  41
ENDBRANCH  28  31
ENDBRANCH  25  27
BRANCH  25  57
ATOM     57  CB  LYS d   1     -40.888 -13.609 -11.556  0.00  0.00    -0.038 C 
ATOM     58  H19 LYS d   1     -40.859 -12.648 -11.021  0.00  0.00     0.036 H 
ATOM     59  H20 LYS d   1     -39.890 -13.834 -11.960  0.00  0.00     0.036 H 
BRANCH  57  60
ATOM     60  CG  LYS d   1     -41.249 -14.694 -10.557  0.00  0.00    -0.061 C 
ATOM     61  H21 LYS d   1     -40.359 -14.938  -9.958  0.00  0.00     0.033 H 
ATOM     62  H22 LYS d   1     -41.579 -15.589 -11.105  0.00  0.00     0.033 H 
BRANCH  60  63
ATOM     63  CD  LYS d   1     -42.369 -14.247  -9.620  0.00  0.00    -0.043 C 
ATOM     64  H23 LYS d   1     -43.245 -13.959 -10.220  0.00  0.00     0.035 H 
ATOM     65  H24 LYS d   1     -42.024 -13.381  -9.036  0.00  0.00     0.035 H 
BRANCH  63  66
ATOM     66  CE  LYS d   1     -42.768 -15.364  -8.664  0.00  0.00     0.080 C 
ATOM     67  H25 LYS d   1     -41.853 -15.869  -8.320  0.00  0.00     0.075 H 
ATOM     68  H26 LYS d   1     -43.398 -16.080  -9.212  0.00  0.00     0.075 H 
BRANCH  66  69
ATOM     69  NZ  LYS d   1     -43.523 -14.896  -7.467  0.00  0.00    -0.079 N 
ATOM     70  H27 LYS d   1     -43.752 -15.686  -6.884  0.00  0.00     0.274 HD
ATOM     71  H28 LYS d   1     -44.372 -14.440  -7.762  0.00  0.00     0.274 HD
ATOM     72  H29 LYS d   1     -42.956 -14.246  -6.945  0.00  0.00     0.274 HD
ENDBRANCH  66  69
ENDBRANCH  63  66
ENDBRANCH  60  63
ENDBRANCH  57  60
ENDBRANCH  25  57
ENDBRANCH  22  25
ENDBRANCH  19  21
BRANCH  19  73
ATOM     73  CB  ARG d   1     -44.054  -9.851 -14.855  0.00  0.00    -0.036 C 
ATOM     74  H32 ARG d   1     -44.093  -8.780 -15.103  0.00  0.00     0.036 H 
ATOM     75  H33 ARG d   1     -45.060 -10.201 -14.581  0.00  0.00     0.036 H 
BRANCH  73  76
ATOM     76  CG  ARG d   1     -43.600 -10.612 -16.085  0.00  0.00    -0.048 C 
ATOM     77  H34 ARG d   1     -43.969 -11.646 -16.019  0.00  0.00     0.035 H 
ATOM     78  H35 ARG d   1     -42.500 -10.617 -16.114  0.00  0.00     0.035 H 
BRANCH  76  79
ATOM     79  CD  ARG d   1     -44.122  -9.985 -17.369  0.00  0.00     0.009 C 
ATOM     80  H36 ARG d   1     -43.431  -9.191 -17.689  0.00  0.00     0.064 H 
ATOM     81  H37 ARG d   1     -45.116  -9.553 -17.181  0.00  0.00     0.064 H 
BRANCH  79  82
ATOM     82  NE  ARG d   1     -44.228 -10.984 -18.433  0.00  0.00    -0.227 N 
ATOM     83  CZ  ARG d   1     -43.195 -11.514 -19.094  0.00  0.00     0.665 C 
ATOM     84  NH1 ARG d   1     -41.943 -11.145 -18.813  0.00  0.00    -0.235 N 
ATOM     85  NH2 ARG d   1     -43.416 -12.420 -20.046  0.00  0.00    -0.235 N 
ATOM     86  H39 ARG d   1     -41.155 -11.561 -19.330  0.00  0.00     0.174 HD
ATOM     87  H40 ARG d   1     -41.765 -10.444 -18.079  0.00  0.00     0.174 HD
ATOM     88  H41 ARG d   1     -44.379 -12.709 -20.268  0.00  0.00     0.174 HD
ATOM     89  H42 ARG d   1     -42.623 -12.831 -20.560  0.00  0.00     0.174 HD
ATOM     90  H38 ARG d   1     -45.172 -11.303 -18.692  0.00  0.00     0.177 HD
ENDBRANCH  79  82
ENDBRANCH  76  79
ENDBRANCH  73  76
ENDBRANCH  19  73
ENDBRANCH  16  19
ENDBRANCH  13  15
BRANCH  13  91
ATOM     91  CB  TYR d   1     -42.282  -7.115 -10.171  0.00  0.00    -0.014 C 
ATOM     92  H45 TYR d   1     -42.539  -6.348  -9.426  0.00  0.00     0.043 H 
ATOM     93  H46 TYR d   1     -41.357  -6.826 -10.691  0.00  0.00     0.043 H 
BRANCH  91  94
ATOM     94  CG  TYR d   1     -42.015  -8.421  -9.427  0.00  0.00    -0.056 A 
ATOM     95  CD1 TYR d   1     -42.867  -8.855  -8.409  0.00  0.00    -0.074 A 
ATOM     96  CE1 TYR d   1     -42.623 -10.034  -7.718  0.00  0.00    -0.051 A 
ATOM     97  H47 TYR d   1     -43.736  -8.259  -8.153  0.00  0.00     0.084 H 
ATOM     98  CZ  TYR d   1     -41.511 -10.797  -8.026  0.00  0.00     0.065 A 
ATOM     99  H49 TYR d   1     -43.303 -10.356  -6.938  0.00  0.00     0.087 H 
ATOM    100  CE2 TYR d   1     -40.643 -10.390  -9.029  0.00  0.00    -0.051 A 
ATOM    101  CD2 TYR d   1     -40.894  -9.205  -9.719  0.00  0.00    -0.074 A 
ATOM    102  H50 TYR d   1     -39.774 -10.990  -9.275  0.00  0.00     0.087 H 
ATOM    103  H48 TYR d   1     -40.208  -8.886 -10.495  0.00  0.00     0.084 H 
BRANCH  98 104
ATOM    104  OH  TYR d   1     -41.282 -11.969  -7.328  0.00  0.00    -0.361 OA
ATOM    105  H51 TYR d   1     -41.969 -12.092  -6.684  0.00  0.00     0.217 HD
ENDBRANCH  98 104
ENDBRANCH  91  94
ENDBRANCH  13  91
ENDBRANCH  10  13
ENDBRANCH   7   9
BRANCH   7 106
ATOM    106  CB  SER d   1     -46.477  -3.403 -11.496  0.00  0.00     0.044 C 
ATOM    107  H54 SER d   1     -47.127  -4.223 -11.836  0.00  0.00     0.077 H 
ATOM    108  H55 SER d   1     -46.734  -2.482 -12.039  0.00  0.00     0.077 H 
BRANCH 106 109
ATOM    109  OG  SER d   1     -46.680  -3.195 -10.109  0.00  0.00    -0.398 OA
ATOM    110  H56 SER d   1     -47.590  -2.971  -9.953  0.00  0.00     0.209 HD
ENDBRANCH 106 109
ENDBRANCH   7 106
ENDBRANCH   4   7
ENDBRANCH   1   3
BRANCH   1 111
ATOM    111  C   ARG d   1     -43.670  -0.223  -9.427  0.00  0.00     0.241 C 
ATOM    112  O   ARG d   1     -42.873   0.064  -8.531  0.00  0.00    -0.271 OA
ATOM    113  N   GLU d   1     -44.995  -0.246  -9.252  0.00  0.00    -0.346 N 
ATOM    114  H70 GLU d   1     -45.577  -0.513 -10.020  0.00  0.00     0.163 HD
BRANCH 113 115
ATOM    115  CA  GLU d   1     -45.631   0.106  -7.973  0.00  0.00     0.090 C 
ATOM    116  H71 GLU d   1     -45.180   1.045  -7.620  0.00  0.00     0.087 H 
BRANCH 115 117
ATOM    117  C   GLU d   1     -45.372  -0.972  -6.925  0.00  0.00     0.241 C 
ATOM    118  O   GLU d   1     -45.078  -0.661  -5.773  0.00  0.00    -0.271 OA
ATOM    119  N   PHE d   1     -45.477  -2.235  -7.336  0.00  0.00    -0.346 N 
ATOM    120  H76 PHE d   1     -45.807  -2.420  -8.262  0.00  0.00     0.163 HD
BRANCH 119 121
ATOM    121  CA  PHE d   1     -45.124  -3.353  -6.473  0.00  0.00     0.093 C 
ATOM    122  H77 PHE d   1     -45.778  -3.318  -5.589  0.00  0.00     0.088 H 
BRANCH 121 123
ATOM    123  C   PHE d   1     -43.675  -3.253  -5.994  0.00  0.00     0.241 C 
ATOM    124  O   PHE d   1     -43.415  -3.324  -4.796  0.00  0.00    -0.271 OA
ATOM    125  N   LEU d   1     -42.748  -3.081  -6.939  0.00  0.00    -0.346 N 
ATOM    126  H85 LEU d   1     -43.045  -3.004  -7.891  0.00  0.00     0.163 HD
BRANCH 125 127
ATOM    127  CA  LEU d   1     -41.315  -3.000  -6.645  0.00  0.00     0.089 C 
ATOM    128  H86 LEU d   1     -41.031  -3.932  -6.134  0.00  0.00     0.087 H 
BRANCH 127 129
ATOM    129  C   LEU d   1     -40.971  -1.840  -5.711  0.00  0.00     0.241 C 
ATOM    130  O   LEU d   1     -40.184  -2.009  -4.766  0.00  0.00    -0.271 OA
ATOM    131  N   LEU d   1     -41.570  -0.678  -5.973  0.00  0.00    -0.346 N 
ATOM    132  H96 LEU d   1     -42.205  -0.627  -6.744  0.00  0.00     0.163 HD
BRANCH 131 133
ATOM    133  CA  LEU d   1     -41.333   0.527  -5.173  0.00  0.00     0.089 C 
ATOM    134  H97 LEU d   1     -40.243   0.661  -5.107  0.00  0.00     0.087 H 
BRANCH 133 135
ATOM    135  C   LEU d   1     -41.862   0.409  -3.738  0.00  0.00     0.240 C 
ATOM    136  O   LEU d   1     -41.371   1.093  -2.840  0.00  0.00    -0.271 OA
ATOM    137  N   GLY d   1     -42.845  -0.465  -3.528  0.00  0.00    -0.351 N 
ATOM    138 7H10 GLY d   1     -43.253  -0.928  -4.315  0.00  0.00     0.163 HD
BRANCH 137 139
ATOM    139  CA  GLY d   1     -43.352  -0.774  -2.186  0.00  0.00     0.069 C 
ATOM    140 8H10 GLY d   1     -44.192  -1.478  -2.284  0.00  0.00     0.078 H 
ATOM    141 9H10 GLY d   1     -43.707   0.159  -1.725  0.00  0.00     0.078 H 
BRANCH 139 142
ATOM    142  C   GLY d   1     -42.306  -1.397  -1.270  0.00  0.00     0.236 C 
ATOM    143  O   GLY d   1     -42.388  -1.269  -0.045  0.00  0.00    -0.272 OA
ATOM    144  N   PHE d   1     -41.315  -2.063  -1.863  0.00  0.00    -0.346 N 
ATOM    145 0H11 PHE d   1     -41.328  -2.164  -2.858  0.00  0.00     0.163 HD
BRANCH 144 146
ATOM    146  CA  PHE d   1     -40.206  -2.653  -1.104  0.00  0.00     0.093 C 
ATOM    147 1H11 PHE d   1     -40.605  -2.958  -0.126  0.00  0.00     0.088 H 
BRANCH 146 148
ATOM    148  C   PHE d   1     -39.049  -1.691  -0.848  0.00  0.00     0.238 C 
ATOM    149  O   PHE d   1     -38.065  -2.081  -0.216  0.00  0.00    -0.271 OA
ATOM    150  N   NH2 d   1     -39.118  -0.530  -1.473  0.00  0.00    -0.368 N 
ATOM    151 9H11 NH2 d   1     -38.393   0.148  -1.350  0.00  0.00     0.159 HD
ATOM    152 0H12 NH2 d   1     -39.895  -0.329  -2.069  0.00  0.00     0.159 HD
ENDBRANCH 146 148
BRANCH 146 153
ATOM    153  CB  PHE d   1     -39.681  -3.894  -1.812  0.00  0.00    -0.014 C 
ATOM    154 2H11 PHE d   1     -38.748  -4.206  -1.320  0.00  0.00     0.043 H 
ATOM    155 3H11 PHE d   1     -39.474  -3.634  -2.861  0.00  0.00     0.043 H 
BRANCH 153 156
ATOM    156  CG  PHE d   1     -40.632  -5.042  -1.790  0.00  0.00    -0.056 A 
ATOM    157  CD1 PHE d   1     -41.659  -5.129  -2.731  0.00  0.00    -0.077 A 
ATOM    158  CE1 PHE d   1     -42.553  -6.186  -2.704  0.00  0.00    -0.082 A 
ATOM    159 4H11 PHE d   1     -41.758  -4.362  -3.490  0.00  0.00     0.084 H 
ATOM    160  CZ  PHE d   1     -42.425  -7.173  -1.736  0.00  0.00    -0.083 A 
ATOM    161 6H11 PHE d   1     -43.350  -6.243  -3.436  0.00  0.00     0.083 H 
ATOM    162  CE2 PHE d   1     -41.410  -7.092  -0.792  0.00  0.00    -0.082 A 
ATOM    163 8H11 PHE d   1     -43.117  -8.007  -1.717  0.00  0.00     0.083 H 
ATOM    164  CD2 PHE d   1     -40.519  -6.031  -0.823  0.00  0.00    -0.077 A 
ATOM    165 7H11 PHE d   1     -41.315  -7.858  -0.031  0.00  0.00     0.083 H 
ATOM    166 5H11 PHE d   1     -39.727  -5.973  -0.085  0.00  0.00     0.084 H 
ENDBRANCH 153 156
ENDBRANCH 146 153
ENDBRANCH 144 146
ENDBRANCH 139 142
ENDBRANCH 137 139
ENDBRANCH 133 135
BRANCH 133 167
ATOM    167  CB  LEU d   1     -41.912   1.775  -5.865  0.00  0.00    -0.035 C 
ATOM    168  H98 LEU d   1     -41.977   2.571  -5.109  0.00  0.00     0.037 H 
ATOM    169  H99 LEU d   1     -42.923   1.518  -6.215  0.00  0.00     0.037 H 
BRANCH 167 170
ATOM    170  CG  LEU d   1     -41.142   2.342  -7.063  0.00  0.00    -0.059 C 
ATOM    171 0H10 LEU d   1     -40.867   1.499  -7.714  0.00  0.00     0.038 H 
BRANCH 170 172
ATOM    172  CD1 LEU d   1     -42.016   3.290  -7.875  0.00  0.00    -0.073 C 
ATOM    173 1H10 LEU d   1     -41.440   3.681  -8.726  0.00  0.00     0.028 H 
ATOM    174 2H10 LEU d   1     -42.341   4.125  -7.238  0.00  0.00     0.028 H 
ATOM    175 3H10 LEU d   1     -42.898   2.748  -8.247  0.00  0.00     0.028 H 
ENDBRANCH 170 172
BRANCH 170 176
ATOM    176  CD2 LEU d   1     -39.853   3.024  -6.617  0.00  0.00    -0.073 C 
ATOM    177 4H10 LEU d   1     -39.246   2.315  -6.035  0.00  0.00     0.028 H 
ATOM    178 5H10 LEU d   1     -40.097   3.897  -5.993  0.00  0.00     0.028 H 
ATOM    179 6H10 LEU d   1     -39.287   3.352  -7.501  0.00  0.00     0.028 H 
ENDBRANCH 170 176
ENDBRANCH 167 170
ENDBRANCH 133 167
ENDBRANCH 131 133
ENDBRANCH 127 129
BRANCH 127 180
ATOM    180  CB  LEU d   1     -40.493  -2.903  -7.938  0.00  0.00    -0.035 C 
ATOM    181  H87 LEU d   1     -39.455  -2.678  -7.650  0.00  0.00     0.037 H 
ATOM    182  H88 LEU d   1     -40.901  -2.066  -8.523  0.00  0.00     0.037 H 
BRANCH 180 183
ATOM    183  CG  LEU d   1     -40.456  -4.129  -8.860  0.00  0.00    -0.059 C 
ATOM    184  H89 LEU d   1     -41.492  -4.353  -9.154  0.00  0.00     0.038 H 
BRANCH 183 185
ATOM    185  CD1 LEU d   1     -39.664  -3.834 -10.131  0.00  0.00    -0.073 C 
ATOM    186  H90 LEU d   1     -39.654  -4.728 -10.772  0.00  0.00     0.028 H 
ATOM    187  H91 LEU d   1     -38.632  -3.562  -9.865  0.00  0.00     0.028 H 
ATOM    188  H92 LEU d   1     -40.136  -3.000 -10.672  0.00  0.00     0.028 H 
ENDBRANCH 183 185
BRANCH 183 189
ATOM    189  CD2 LEU d   1     -39.900  -5.365  -8.153  0.00  0.00    -0.073 C 
ATOM    190  H93 LEU d   1     -40.484  -5.560  -7.241  0.00  0.00     0.028 H 
ATOM    191  H94 LEU d   1     -38.848  -5.191  -7.884  0.00  0.00     0.028 H 
ATOM    192  H95 LEU d   1     -39.968  -6.234  -8.825  0.00  0.00     0.028 H 
ENDBRANCH 183 189
ENDBRANCH 180 183
ENDBRANCH 127 180
ENDBRANCH 125 127
ENDBRANCH 121 123
BRANCH 121 193
ATOM    193  CB  PHE d   1     -45.359  -4.688  -7.187  0.00  0.00    -0.014 C 
ATOM    194  H78 PHE d   1     -44.641  -4.769  -8.016  0.00  0.00     0.043 H 
ATOM    195  H79 PHE d   1     -46.383  -4.691  -7.588  0.00  0.00     0.043 H 
BRANCH 193 196
ATOM    196  CG  PHE d   1     -45.194  -5.891  -6.297  0.00  0.00    -0.056 A 
ATOM    197  CD1 PHE d   1     -46.250  -6.342  -5.509  0.00  0.00    -0.077 A 
ATOM    198  CE1 PHE d   1     -46.102  -7.453  -4.693  0.00  0.00    -0.082 A 
ATOM    199  H80 PHE d   1     -47.199  -5.818  -5.534  0.00  0.00     0.084 H 
ATOM    200  CZ  PHE d   1     -44.890  -8.120  -4.646  0.00  0.00    -0.083 A 
ATOM    201  H82 PHE d   1     -46.935  -7.799  -4.092  0.00  0.00     0.083 H 
ATOM    202  CE2 PHE d   1     -43.828  -7.683  -5.422  0.00  0.00    -0.082 A 
ATOM    203  H84 PHE d   1     -44.772  -8.984  -4.002  0.00  0.00     0.083 H 
ATOM    204  CD2 PHE d   1     -43.981  -6.572  -6.239  0.00  0.00    -0.077 A 
ATOM    205  H83 PHE d   1     -42.880  -8.208  -5.391  0.00  0.00     0.083 H 
ATOM    206  H81 PHE d   1     -43.146  -6.230  -6.840  0.00  0.00     0.084 H 
ENDBRANCH 193 196
ENDBRANCH 121 193
ENDBRANCH 119 121
ENDBRANCH 115 117
BRANCH 115 207
ATOM    207  CB  GLU d   1     -47.147   0.334  -8.129  0.00  0.00    -0.029 C 
ATOM    208  H72 GLU d   1     -47.562   0.555  -7.134  0.00  0.00     0.037 H 
ATOM    209  H73 GLU d   1     -47.593  -0.595  -8.514  0.00  0.00     0.037 H 
BRANCH 207 210
ATOM    210  CG  GLU d   1     -47.542   1.469  -9.066  0.00  0.00     0.018 C 
ATOM    211  H74 GLU d   1     -46.861   2.316  -8.895  0.00  0.00     0.049 H 
ATOM    212  H75 GLU d   1     -48.572   1.774  -8.830  0.00  0.00     0.049 H 
BRANCH 210 213
ATOM    213  CD  GLU d   1     -47.477   1.087 -10.542  0.00  0.00     0.172 C 
ATOM    214  OE1 GLU d   1     -47.308  -0.115 -10.856  0.00  0.00    -0.648 OA
ATOM    215  OE2 GLU d   1     -47.597   1.996 -11.398  0.00  0.00    -0.648 OA
ENDBRANCH 210 213
ENDBRANCH 207 210
ENDBRANCH 115 207
ENDBRANCH 113 115
ENDBRANCH   1 111
BRANCH   1 216
ATOM    216  CB  ARG d   1     -42.969   0.658 -11.683  0.00  0.00    -0.036 C 
ATOM    217  H59 ARG d   1     -42.460   0.364 -12.613  0.00  0.00     0.036 H 
ATOM    218  H60 ARG d   1     -42.338   1.368 -11.129  0.00  0.00     0.036 H 
BRANCH 216 219
ATOM    219  CG  ARG d   1     -44.258   1.360 -12.052  0.00  0.00    -0.048 C 
ATOM    220  H61 ARG d   1     -44.746   1.711 -11.131  0.00  0.00     0.035 H 
ATOM    221  H62 ARG d   1     -44.916   0.644 -12.566  0.00  0.00     0.035 H 
BRANCH 219 222
ATOM    222  CD  ARG d   1     -44.024   2.553 -12.966  0.00  0.00     0.009 C 
ATOM    223  H63 ARG d   1     -44.943   3.156 -13.002  0.00  0.00     0.064 H 
ATOM    224  H64 ARG d   1     -43.788   2.184 -13.975  0.00  0.00     0.064 H 
BRANCH 222 225
ATOM    225  NE  ARG d   1     -42.924   3.399 -12.506  0.00  0.00    -0.227 N 
ATOM    226  CZ  ARG d   1     -43.011   4.277 -11.514  0.00  0.00     0.665 C 
ATOM    227  NH1 ARG d   1     -44.150   4.440 -10.853  0.00  0.00    -0.235 N 
ATOM    228  NH2 ARG d   1     -41.953   4.989 -11.175  0.00  0.00    -0.235 N 
ATOM    229  H66 ARG d   1     -44.206   5.124 -10.085  0.00  0.00     0.174 HD
ATOM    230  H67 ARG d   1     -44.978   3.882 -11.108  0.00  0.00     0.174 HD
ATOM    231  H68 ARG d   1     -41.066   4.867 -11.684  0.00  0.00     0.174 HD
ATOM    232  H69 ARG d   1     -42.014   5.666 -10.402  0.00  0.00     0.174 HD
ATOM    233  H65 ARG d   1     -42.017   3.307 -12.986  0.00  0.00     0.177 HD
ENDBRANCH 222 225
ENDBRANCH 219 222
ENDBRANCH 216 219
ENDBRANCH   1 216
TORSDOF 63
