REMARK  4 active torsions:
REMARK  status: ('A' for Active; 'I' for Inactive)
REMARK    1  A    between atoms: CAF_6  and  NAG_7 
REMARK    2  A    between atoms: NAG_7  and  CAH_8 
REMARK    3  A    between atoms: CAJ_10  and  CAN_14 
REMARK    4  A    between atoms: CAN_14  and  CAO_15 
ROOT
ATOM      1  CAH 3RA d   1     -37.867 -22.141  25.772  0.00  0.00     0.730 A 
ATOM      2  NAI 3RA d   1     -37.215 -21.433  26.694  0.00  0.00    -0.061 NA
ATOM      3  CAJ 3RA d   1     -36.841 -22.276  27.649  0.00  0.00     0.128 A 
ATOM      4  CAK 3RA d   1     -37.308 -23.517  27.265  0.00  0.00     0.309 A 
ATOM      5  NAL 3RA d   1     -37.926 -23.415  26.107  0.00  0.00    -0.019 NA
ATOM      6  OAM 3RA d   1     -37.176 -24.561  27.902  0.00  0.00    -0.263 OA
ENDROOT
BRANCH   3   7
ATOM      7  CAN 3RA d   1     -36.151 -22.129  28.858  0.00  0.00     0.005 C 
ATOM      8  H7  3RA d   1     -35.308 -22.833  28.798  0.00  0.00     0.049 H 
ATOM      9  H8  3RA d   1     -36.853 -22.465  29.635  0.00  0.00     0.049 H 
BRANCH   7  10
ATOM     10  CAO 3RA d   1     -35.601 -20.934  29.348  0.00  0.00    -0.050 A 
ATOM     11  CAP 3RA d   1     -35.835 -19.694  28.768  0.00  0.00    -0.042 A 
ATOM     12  CAQ 3RA d   1     -35.248 -18.564  29.296  0.00  0.00     0.105 A 
ATOM     13  H9  3RA d   1     -36.479 -19.615  27.900  0.00  0.00     0.088 H 
ATOM     14  CAR 3RA d   1     -34.440 -18.656  30.420  0.00  0.00     0.105 A 
ATOM     15  OAU 3RA d   1     -35.308 -17.264  28.909  0.00  0.00    -0.323 OA
ATOM     16  CAS 3RA d   1     -34.213 -19.883  31.009  0.00  0.00    -0.047 A 
ATOM     17  OAW 3RA d   1     -34.000 -17.417  30.743  0.00  0.00    -0.323 OA
ATOM     18  CAT 3RA d   1     -34.801 -21.020  30.482  0.00  0.00    -0.074 A 
ATOM     19  H10 3RA d   1     -33.575 -19.956  31.883  0.00  0.00     0.087 H 
ATOM     20  H11 3RA d   1     -34.637 -21.981  30.955  0.00  0.00     0.084 H 
ATOM     21  CAV 3RA d   1     -34.145 -16.684  29.501  0.00  0.00     0.115 C 
ATOM     22  H12 3RA d   1     -34.294 -15.611  29.692  0.00  0.00     0.118 H 
ATOM     23  H13 3RA d   1     -33.264 -16.823  28.857  0.00  0.00     0.118 H 
ENDBRANCH   7  10
ENDBRANCH   3   7
BRANCH   1  24
ATOM     24  NAG 3RA d   1     -38.379 -21.687  24.636  0.00  0.00    -0.188 N 
ATOM     25  H6  3RA d   1     -38.942 -22.325  24.056  0.00  0.00     0.184 HD
BRANCH  24  26
ATOM     26  CAF 3RA d   1     -38.192 -20.440  24.219  0.00  0.00     0.049 A 
ATOM     27  CAA 3RA d   1     -38.264 -19.367  25.083  0.00  0.00    -0.057 A 
ATOM     28  CAB 3RA d   1     -38.066 -18.087  24.579  0.00  0.00    -0.081 A 
ATOM     29  H1  3RA d   1     -38.471 -19.519  26.136  0.00  0.00     0.086 H 
ATOM     30  CAC 3RA d   1     -37.816 -17.839  23.240  0.00  0.00    -0.083 A 
ATOM     31  H2  3RA d   1     -38.109 -17.247  25.263  0.00  0.00     0.083 H 
ATOM     32  CAD 3RA d   1     -37.745 -18.910  22.376  0.00  0.00    -0.081 A 
ATOM     33  H3  3RA d   1     -37.679 -16.826  22.880  0.00  0.00     0.083 H 
ATOM     34  CAE 3RA d   1     -37.934 -20.203  22.871  0.00  0.00    -0.057 A 
ATOM     35  H4  3RA d   1     -37.544 -18.751  21.323  0.00  0.00     0.083 H 
ATOM     36  H5  3RA d   1     -37.878 -21.043  22.188  0.00  0.00     0.086 H 
ENDBRANCH  24  26
ENDBRANCH   1  24
TORSDOF 4
