REMARK  22 active torsions:
REMARK  status: ('A' for Active; 'I' for Inactive)
REMARK    1  A    between atoms: C1_1  and  C2_3 
REMARK       I    between atoms: NAX_25  and  C1_1 
REMARK    2  A    between atoms: C2_3  and  C3_4 
REMARK    3  A    between atoms: C3_4  and  C4_5 
REMARK    4  A    between atoms: C4_5  and  C5_6 
REMARK    5  A    between atoms: C5_6  and  C6_7 
REMARK    6  A    between atoms: C6_7  and  C7_8 
REMARK    7  A    between atoms: C7_8  and  C8_9 
REMARK    8  A    between atoms: C8_9  and  C9_10 
REMARK    9  A    between atoms: C9_10  and  C10_11 
REMARK   10  A    between atoms: C10_11  and  C11_12 
REMARK   11  A    between atoms: C11_12  and  C12_13 
REMARK   12  A    between atoms: C12_13  and  C13_14 
REMARK   13  A    between atoms: C13_14  and  C14_15 
REMARK   14  A    between atoms: C14_15  and  C15_16 
REMARK   15  A    between atoms: C15_16  and  C16_17 
REMARK   16  A    between atoms: C16_17  and  C17_18 
REMARK   17  A    between atoms: C17_18  and  C18_19 
REMARK   18  A    between atoms: C18_19  and  C19_20 
REMARK   19  A    between atoms: C19_20  and  C20_21 
REMARK   20  A    between atoms: C23_23  and  C22_22 
REMARK   21  A    between atoms: C22_22  and  OAC_24 
REMARK   22  A    between atoms: C23_23  and  NAX_25 
ROOT
ATOM      1  C9  A9M d   1      21.864  15.437  -4.775  0.00  0.00    -0.065 C 
ATOM      2  H15 A9M d   1      22.914  15.763  -4.755  0.00  0.00     0.033 H 
ATOM      3  H16 A9M d   1      21.210  16.313  -4.893  0.00  0.00     0.033 H 
ENDROOT
BRANCH   1   4
ATOM      4  C8  A9M d   1      21.546  14.788  -3.429  0.00  0.00    -0.065 C 
ATOM      5  H13 A9M d   1      20.500  14.450  -3.454  0.00  0.00     0.033 H 
ATOM      6  H14 A9M d   1      22.209  13.919  -3.306  0.00  0.00     0.033 H 
BRANCH   4   7
ATOM      7  C7  A9M d   1      21.720  15.688  -2.211  0.00  0.00    -0.065 C 
ATOM      8  H11 A9M d   1      21.038  16.548  -2.286  0.00  0.00     0.033 H 
ATOM      9  H12 A9M d   1      21.495  15.120  -1.296  0.00  0.00     0.033 H 
BRANCH   7  10
ATOM     10  C6  A9M d   1      23.158  16.179  -2.167  0.00  0.00    -0.065 C 
ATOM     11  H9  A9M d   1      23.809  15.309  -2.338  0.00  0.00     0.033 H 
ATOM     12  H10 A9M d   1      23.286  16.900  -2.988  0.00  0.00     0.033 H 
BRANCH  10  13
ATOM     13  C5  A9M d   1      23.633  16.862  -0.878  0.00  0.00    -0.065 C 
ATOM     14  H7  A9M d   1      24.495  16.293  -0.500  0.00  0.00     0.033 H 
ATOM     15  H8  A9M d   1      23.953  17.881  -1.142  0.00  0.00     0.033 H 
BRANCH  13  16
ATOM     16  C4  A9M d   1      22.624  16.978   0.262  0.00  0.00    -0.065 C 
ATOM     17  H5  A9M d   1      22.205  17.995   0.282  0.00  0.00     0.033 H 
ATOM     18  H6  A9M d   1      21.813  16.250   0.113  0.00  0.00     0.033 H 
BRANCH  16  19
ATOM     19  C3  A9M d   1      23.335  16.691   1.579  0.00  0.00    -0.057 C 
ATOM     20  H3  A9M d   1      24.232  17.322   1.669  0.00  0.00     0.033 H 
ATOM     21  H4  A9M d   1      22.660  16.891   2.424  0.00  0.00     0.033 H 
BRANCH  19  22
ATOM     22  C2  A9M d   1      23.731  15.218   1.564  0.00  0.00     0.009 C 
ATOM     23  H1  A9M d   1      22.854  14.613   1.289  0.00  0.00     0.047 H 
ATOM     24  H2  A9M d   1      24.527  15.068   0.820  0.00  0.00     0.047 H 
BRANCH  22  25
ATOM     25  C1  A9M d   1      24.237  14.769   2.933  0.00  0.00     0.217 C 
ATOM     26  O1  A9M d   1      25.225  15.285   3.457  0.00  0.00    -0.274 OA
ATOM     27  NAX A9M d   1      23.527  13.762   3.458  0.00  0.00    -0.359 N 
ATOM     28  H45 A9M d   1      22.764  13.392   2.928  0.00  0.00     0.162 HD
BRANCH  27  29
ATOM     29  C23 A9M d   1      23.811  13.179   4.763  0.00  0.00     0.015 C 
ATOM     30  H42 A9M d   1      24.625  13.731   5.256  0.00  0.00     0.067 H 
ATOM     31  H43 A9M d   1      22.912  13.210   5.396  0.00  0.00     0.067 H 
BRANCH  29  32
ATOM     32  C22 A9M d   1      24.225  11.752   4.519  0.00  0.00     0.031 C 
ATOM     33  H40 A9M d   1      23.613  11.307   3.720  0.00  0.00     0.076 H 
ATOM     34  H41 A9M d   1      24.115  11.159   5.439  0.00  0.00     0.076 H 
BRANCH  32  35
ATOM     35  OAC A9M d   1      25.583  11.804   4.127  0.00  0.00    -0.399 OA
ATOM     36  H44 A9M d   1      26.097  12.198   4.822  0.00  0.00     0.209 HD
ENDBRANCH  32  35
ENDBRANCH  29  32
ENDBRANCH  27  29
ENDBRANCH  22  25
ENDBRANCH  19  22
ENDBRANCH  16  19
ENDBRANCH  13  16
ENDBRANCH  10  13
ENDBRANCH   7  10
ENDBRANCH   4   7
ENDBRANCH   1   4
BRANCH   1  37
ATOM     37  C10 A9M d   1      21.672  14.537  -5.994  0.00  0.00    -0.065 C 
ATOM     38  H17 A9M d   1      20.834  14.914  -6.599  0.00  0.00     0.033 H 
ATOM     39  H18 A9M d   1      21.452  13.512  -5.661  0.00  0.00     0.033 H 
BRANCH  37  40
ATOM     40  C11 A9M d   1      22.948  14.534  -6.839  0.00  0.00    -0.065 C 
ATOM     41  H19 A9M d   1      23.742  15.014  -6.248  0.00  0.00     0.033 H 
ATOM     42  H20 A9M d   1      22.752  15.130  -7.743  0.00  0.00     0.033 H 
BRANCH  40  43
ATOM     43  C12 A9M d   1      23.467  13.159  -7.289  0.00  0.00    -0.065 C 
ATOM     44  H21 A9M d   1      24.482  13.036  -6.884  0.00  0.00     0.033 H 
ATOM     45  H22 A9M d   1      23.508  13.161  -8.388  0.00  0.00     0.033 H 
BRANCH  43  46
ATOM     46  C13 A9M d   1      22.641  11.941  -6.855  0.00  0.00    -0.065 C 
ATOM     47  H23 A9M d   1      22.562  11.244  -7.702  0.00  0.00     0.033 H 
ATOM     48  H24 A9M d   1      21.636  12.278  -6.563  0.00  0.00     0.033 H 
BRANCH  46  49
ATOM     49  C14 A9M d   1      23.284  11.210  -5.669  0.00  0.00    -0.065 C 
ATOM     50  H25 A9M d   1      23.930  10.419  -6.077  0.00  0.00     0.033 H 
ATOM     51  H26 A9M d   1      22.474  10.755  -5.081  0.00  0.00     0.033 H 
BRANCH  49  52
ATOM     52  C15 A9M d   1      24.135  12.053  -4.710  0.00  0.00    -0.065 C 
ATOM     53  H27 A9M d   1      23.498  12.852  -4.302  0.00  0.00     0.033 H 
ATOM     54  H28 A9M d   1      24.958  12.499  -5.288  0.00  0.00     0.033 H 
BRANCH  52  55
ATOM     55  C16 A9M d   1      24.745  11.285  -3.532  0.00  0.00    -0.065 C 
ATOM     56  H29 A9M d   1      25.472  11.929  -3.016  0.00  0.00     0.033 H 
ATOM     57  H30 A9M d   1      25.255  10.386  -3.909  0.00  0.00     0.033 H 
BRANCH  55  58
ATOM     58  C17 A9M d   1      23.641  10.865  -2.539  0.00  0.00    -0.065 C 
ATOM     59  H31 A9M d   1      23.920   9.905  -2.080  0.00  0.00     0.033 H 
ATOM     60  H32 A9M d   1      22.694  10.748  -3.087  0.00  0.00     0.033 H 
BRANCH  58  61
ATOM     61  C18 A9M d   1      23.448  11.912  -1.427  0.00  0.00    -0.065 C 
ATOM     62  H33 A9M d   1      22.448  11.793  -0.985  0.00  0.00     0.033 H 
ATOM     63  H34 A9M d   1      23.542  12.920  -1.857  0.00  0.00     0.033 H 
BRANCH  61  64
ATOM     64  C19 A9M d   1      24.510  11.725  -0.335  0.00  0.00    -0.069 C 
ATOM     65  H35 A9M d   1      24.847  12.712   0.014  0.00  0.00     0.032 H 
ATOM     66  H36 A9M d   1      25.365  11.173  -0.753  0.00  0.00     0.032 H 
BRANCH  64  67
ATOM     67  C20 A9M d   1      23.935  10.940   0.852  0.00  0.00    -0.077 C 
ATOM     68  H37 A9M d   1      24.712  10.818   1.621  0.00  0.00     0.027 H 
ATOM     69  H38 A9M d   1      23.600   9.950   0.509  0.00  0.00     0.027 H 
ATOM     70  H39 A9M d   1      23.082  11.489   1.276  0.00  0.00     0.027 H 
ENDBRANCH  64  67
ENDBRANCH  61  64
ENDBRANCH  58  61
ENDBRANCH  55  58
ENDBRANCH  52  55
ENDBRANCH  49  52
ENDBRANCH  46  49
ENDBRANCH  43  46
ENDBRANCH  40  43
ENDBRANCH  37  40
ENDBRANCH   1  37
TORSDOF 22
