REMARK  2 active torsions:
REMARK  status: ('A' for Active; 'I' for Inactive)
REMARK    1  A    between atoms: C11_4  and  N14_1 
REMARK    2  A    between atoms: C5_14  and  C20_16 
ROOT
ATOM      1  C11 LY2 d   1      16.964 -56.032  14.321  0.00  0.00     0.129 A 
ATOM      2  C1  LY2 d   1      21.444 -54.458  12.767  0.00  0.00    -0.081 A 
ATOM      3  C2  LY2 d   1      20.837 -55.727  12.796  0.00  0.00    -0.066 A 
ATOM      4  C6  LY2 d   1      20.767 -53.328  13.242  0.00  0.00    -0.069 A 
ATOM      5  C3  LY2 d   1      19.536 -55.894  13.281  0.00  0.00     0.049 A 
ATOM      6  C4  LY2 d   1      18.892 -54.760  13.757  0.00  0.00     0.102 A 
ATOM      7  C9  LY2 d   1      18.891 -57.145  13.336  0.00  0.00     0.188 A 
ATOM      8  C5  LY2 d   1      19.459 -53.499  13.741  0.00  0.00     0.009 A 
ATOM      9  O12 LY2 d   1      17.608 -54.826  14.260  0.00  0.00    -0.297 OA
ATOM     10  C10 LY2 d   1      17.603 -57.203  13.881  0.00  0.00     0.010 A 
ATOM     11  O13 LY2 d   1      19.394 -58.190  12.894  0.00  0.00    -0.287 OA
ATOM     12  H9  LY2 d   1      22.448 -54.354  12.372  0.00  0.00     0.083 H 
ATOM     13  H10 LY2 d   1      21.387 -56.589  12.437  0.00  0.00     0.085 H 
ATOM     14  H11 LY2 d   1      21.235 -52.350  13.227  0.00  0.00     0.085 H 
ATOM     15  H17 LY2 d   1      17.093 -58.162  13.964  0.00  0.00     0.095 H 
ENDROOT
BRANCH   1  16
ATOM     16  N14 LY2 d   1      15.762 -56.066  14.924  0.00  0.00    -0.259 NA
ATOM     17  C15 LY2 d   1      15.250 -54.680  15.064  0.00  0.00     0.005 C 
ATOM     18  C16 LY2 d   1      13.820 -54.634  15.467  0.00  0.00     0.031 C 
ATOM     19  H1  LY2 d   1      15.360 -54.165  14.098  0.00  0.00     0.059 H 
ATOM     20  H2  LY2 d   1      15.847 -54.160  15.827  0.00  0.00     0.059 H 
ATOM     21  O17 LY2 d   1      13.078 -55.362  14.477  0.00  0.00    -0.389 OA
ATOM     22  H5  LY2 d   1      13.473 -53.591  15.507  0.00  0.00     0.076 H 
ATOM     23  H6  LY2 d   1      13.691 -55.102  16.454  0.00  0.00     0.076 H 
ATOM     24  C18 LY2 d   1      13.373 -56.787  14.688  0.00  0.00     0.031 C 
ATOM     25  C19 LY2 d   1      14.835 -57.076  14.335  0.00  0.00     0.005 C 
ATOM     26  H7  LY2 d   1      13.195 -57.044  15.743  0.00  0.00     0.076 H 
ATOM     27  H8  LY2 d   1      12.716 -57.394  14.047  0.00  0.00     0.076 H 
ATOM     28  H3  LY2 d   1      15.103 -58.071  14.720  0.00  0.00     0.059 H 
ATOM     29  H4  LY2 d   1      14.945 -57.064  13.241  0.00  0.00     0.059 H 
ENDBRANCH   1  16
BRANCH   8  30
ATOM     30  C20 LY2 d   1      18.670 -52.465  14.233  0.00  0.00    -0.023 A 
ATOM     31  C25 LY2 d   1      18.701 -51.195  13.652  0.00  0.00    -0.072 A 
ATOM     32  C24 LY2 d   1      17.877 -50.154  14.130  0.00  0.00    -0.082 A 
ATOM     33  H12 LY2 d   1      19.369 -51.006  12.820  0.00  0.00     0.084 H 
ATOM     34  C23 LY2 d   1      17.016 -50.393  15.204  0.00  0.00    -0.083 A 
ATOM     35  H13 LY2 d   1      17.912 -49.175  13.667  0.00  0.00     0.083 H 
ATOM     36  C22 LY2 d   1      16.976 -51.674  15.776  0.00  0.00    -0.082 A 
ATOM     37  H16 LY2 d   1      16.387 -49.599  15.591  0.00  0.00     0.083 H 
ATOM     38  C21 LY2 d   1      17.787 -52.711  15.291  0.00  0.00    -0.072 A 
ATOM     39  H15 LY2 d   1      16.307 -51.865  16.607  0.00  0.00     0.083 H 
ATOM     40  H14 LY2 d   1      17.730 -53.699  15.734  0.00  0.00     0.084 H 
ENDBRANCH   8  30
TORSDOF 2
