REMARK  5 active torsions:
REMARK  status: ('A' for Active; 'I' for Inactive)
REMARK    1  A    between atoms: C8_8  and  N34_34 
REMARK    2  A    between atoms: C10_10  and  C11_11 
REMARK    3  A    between atoms: C10_10  and  C24_24 
REMARK    4  A    between atoms: C15_15  and  C17_17 
REMARK    5  A    between atoms: C28_28  and  C30_30 
ROOT
ATOM      1  C1  7F3 d   1       8.281   3.025 -18.266  0.00  0.00    -0.079 A 
ATOM      2  C2  7F3 d   1       7.738   2.620 -19.494  0.00  0.00    -0.073 A 
ATOM      3  C3  7F3 d   1       6.382   2.848 -19.756  0.00  0.00    -0.004 A 
ATOM      4  C4  7F3 d   1       5.550   3.377 -18.761  0.00  0.00     0.055 A 
ATOM      5  C5  7F3 d   1       6.086   3.758 -17.517  0.00  0.00     0.131 A 
ATOM      6  C6  7F3 d   1       7.459   3.586 -17.277  0.00  0.00    -0.045 A 
ATOM      7  F7  7F3 d   1       5.288   4.343 -16.585  0.00  0.00    -0.205 F 
ATOM      8  C8  7F3 d   1       4.184   3.398 -19.333  0.00  0.00     0.110 A 
ATOM      9  N9  7F3 d   1       4.181   2.950 -20.544  0.00  0.00    -0.354 N 
ATOM     10  C10 7F3 d   1       5.535   2.563 -20.997  0.00  0.00     0.115 A 
ATOM     11  H1  7F3 d   1       9.342   2.904 -18.080  0.00  0.00     0.083 H 
ATOM     12  H2  7F3 d   1       8.363   2.134 -20.234  0.00  0.00     0.084 H 
ATOM     13  H3  7F3 d   1       7.884   3.887 -16.326  0.00  0.00     0.088 H 
ATOM     14  H4  7F3 d   1       3.335   2.871 -21.126  0.00  0.00     0.163 HD
ENDROOT
BRANCH  10  15
ATOM     15  C11 7F3 d   1       5.706   1.090 -21.319  0.00  0.00    -0.020 A 
ATOM     16  C12 7F3 d   1       6.516   0.655 -22.385  0.00  0.00    -0.071 A 
ATOM     17  C13 7F3 d   1       6.718  -0.703 -22.613  0.00  0.00    -0.044 A 
ATOM     18  H5  7F3 d   1       6.987   1.384 -23.034  0.00  0.00     0.084 H 
ATOM     19  C14 7F3 d   1       6.128  -1.638 -21.765  0.00  0.00     0.127 A 
ATOM     20  H6  7F3 d   1       7.330  -1.031 -23.445  0.00  0.00     0.088 H 
ATOM     21  C15 7F3 d   1       5.332  -1.226 -20.678  0.00  0.00     0.016 A 
ATOM     22  F23 7F3 d   1       6.335  -2.945 -21.961  0.00  0.00    -0.205 F 
ATOM     23  C16 7F3 d   1       5.155   0.147 -20.470  0.00  0.00    -0.060 A 
ATOM     24  H7  7F3 d   1       4.570   0.480 -19.620  0.00  0.00     0.086 H 
BRANCH  21  25
ATOM     25  C17 7F3 d   1       4.712  -2.212 -19.711  0.00  0.00     0.012 A 
ATOM     26  C18 7F3 d   1       5.452  -3.299 -19.164  0.00  0.00     0.016 A 
ATOM     27  N19 7F3 d   1       4.899  -4.108 -18.249  0.00  0.00    -0.253 NA
ATOM     28  H8  7F3 d   1       6.471  -3.474 -19.490  0.00  0.00     0.116 H 
ATOM     29  C20 7F3 d   1       3.643  -3.839 -17.871  0.00  0.00     0.086 A 
ATOM     30  N21 7F3 d   1       2.871  -2.848 -18.316  0.00  0.00    -0.253 NA
ATOM     31  H9  7F3 d   1       3.209  -4.495 -17.126  0.00  0.00     0.146 H 
ATOM     32  C22 7F3 d   1       3.386  -2.040 -19.245  0.00  0.00     0.016 A 
ATOM     33  H10 7F3 d   1       2.779  -1.238 -19.650  0.00  0.00     0.116 H 
ENDBRANCH  21  25
ENDBRANCH  10  15
BRANCH  10  34
ATOM     34  C24 7F3 d   1       5.866   3.436 -22.212  0.00  0.00    -0.017 A 
ATOM     35  C25 7F3 d   1       7.080   4.142 -22.319  0.00  0.00    -0.057 A 
ATOM     36  C26 7F3 d   1       7.337   4.951 -23.427  0.00  0.00     0.003 A 
ATOM     37  H11 7F3 d   1       7.822   4.056 -21.533  0.00  0.00     0.086 H 
ATOM     38  N27 7F3 d   1       6.518   5.019 -24.460  0.00  0.00    -0.256 NA
ATOM     39  H12 7F3 d   1       8.243   5.546 -23.440  0.00  0.00     0.114 H 
ATOM     40  C28 7F3 d   1       5.374   4.342 -24.395  0.00  0.00     0.140 A 
ATOM     41  C29 7F3 d   1       4.983   3.554 -23.308  0.00  0.00    -0.041 A 
ATOM     42  H13 7F3 d   1       4.025   3.046 -23.307  0.00  0.00     0.088 H 
BRANCH  40  43
ATOM     43  C30 7F3 d   1       4.435   4.493 -25.564  0.00  0.00     0.434 C 
ATOM     44  F31 7F3 d   1       4.941   3.826 -26.658  0.00  0.00    -0.165 F 
ATOM     45  F32 7F3 d   1       3.181   3.974 -25.300  0.00  0.00    -0.165 F 
ATOM     46  F33 7F3 d   1       4.225   5.819 -25.881  0.00  0.00    -0.165 F 
ENDBRANCH  40  43
ENDBRANCH  10  34
BRANCH   8  47
ATOM     47  N34 7F3 d   1       3.054   3.818 -18.668  0.00  0.00    -0.385 N 
ATOM     48  H14 7F3 d   1       3.125   4.165 -17.701  0.00  0.00     0.157 HD
ATOM     49  H15 7F3 d   1       2.138   3.785 -19.138  0.00  0.00     0.157 HD
ENDBRANCH   8  47
TORSDOF 5
