REMARK  9 active torsions:
REMARK  status: ('A' for Active; 'I' for Inactive)
REMARK    1  A    between atoms: C1_1  and  C2_2 
REMARK    2  A    between atoms: C2_2  and  N3_3 
REMARK    3  A    between atoms: C5_5  and  C11_11 
REMARK    4  A    between atoms: C7_7  and  C10_10 
REMARK    5  A    between atoms: C11_11  and  C22_22 
REMARK    6  A    between atoms: C18_18  and  N20_20 
REMARK    7  A    between atoms: C26_26  and  C28_28 
REMARK    8  A    between atoms: C30_30  and  C34_34 
REMARK    9  A    between atoms: C35_35  and  C36_36 
ROOT
ATOM      1  C11 I6X d   1       5.562   2.812 -21.019  0.00  0.00     0.117 A 
ATOM      2  C12 I6X d   1       6.375   3.115 -19.789  0.00  0.00    -0.004 A 
ATOM      3  C13 I6X d   1       7.743   3.034 -19.590  0.00  0.00    -0.073 A 
ATOM      4  C14 I6X d   1       8.261   3.383 -18.353  0.00  0.00    -0.079 A 
ATOM      5  C15 I6X d   1       7.429   3.820 -17.336  0.00  0.00    -0.045 A 
ATOM      6  C16 I6X d   1       6.057   3.870 -17.532  0.00  0.00     0.131 A 
ATOM      7  C17 I6X d   1       5.557   3.511 -18.771  0.00  0.00     0.055 A 
ATOM      8  C18 I6X d   1       4.196   3.443 -19.306  0.00  0.00     0.110 A 
ATOM      9  N19 I6X d   1       4.183   3.032 -20.533  0.00  0.00    -0.354 N 
ATOM     10  F21 I6X d   1       5.286   4.302 -16.523  0.00  0.00    -0.205 F 
ATOM     11  H11 I6X d   1       8.398   2.703 -20.388  0.00  0.00     0.084 H 
ATOM     12  H12 I6X d   1       9.329   3.313 -18.180  0.00  0.00     0.083 H 
ATOM     13  H13 I6X d   1       7.851   4.124 -16.385  0.00  0.00     0.088 H 
ATOM     14  H14 I6X d   1       3.332   2.880 -21.092  0.00  0.00     0.163 HD
ENDROOT
BRANCH   1  15
ATOM     15  C5  I6X d   1       5.790   3.815 -22.141  0.00  0.00    -0.004 A 
ATOM     16  C4  I6X d   1       6.713   4.787 -22.093  0.00  0.00    -0.008 A 
ATOM     17  N3  I6X d   1       6.937   5.656 -23.144  0.00  0.00    -0.324 N 
ATOM     18  H6  I6X d   1       7.310   4.896 -21.189  0.00  0.00     0.112 H 
ATOM     19  C8  I6X d   1       6.179   5.626 -24.320  0.00  0.00     0.253 A 
ATOM     20  C7  I6X d   1       5.117   4.570 -24.393  0.00  0.00     0.007 A 
ATOM     21  O9  I6X d   1       6.310   6.396 -25.263  0.00  0.00    -0.267 OA
ATOM     22  C6  I6X d   1       4.970   3.742 -23.343  0.00  0.00    -0.061 A 
ATOM     23  H7  I6X d   1       4.197   2.977 -23.394  0.00  0.00     0.085 H 
BRANCH  17  24
ATOM     24  C2  I6X d   1       7.985   6.642 -22.930  0.00  0.00    -0.001 C 
ATOM     25  H4  I6X d   1       8.557   6.367 -22.031  0.00  0.00     0.064 H 
ATOM     26  H5  I6X d   1       8.655   6.648 -23.803  0.00  0.00     0.064 H 
BRANCH  24  27
ATOM     27  C1  I6X d   1       7.407   8.031 -22.742  0.00  0.00    -0.061 C 
ATOM     28  H1  I6X d   1       8.224   8.750 -22.583  0.00  0.00     0.029 H 
ATOM     29  H2  I6X d   1       6.740   8.035 -21.867  0.00  0.00     0.029 H 
ATOM     30  H3  I6X d   1       6.838   8.316 -23.639  0.00  0.00     0.029 H 
ENDBRANCH  24  27
ENDBRANCH  17  24
BRANCH  20  31
ATOM     31  C10 I6X d   1       4.289   4.477 -25.630  0.00  0.00    -0.046 C 
ATOM     32  H8  I6X d   1       3.562   3.658 -25.524  0.00  0.00     0.033 H 
ATOM     33  H9  I6X d   1       4.941   4.279 -26.494  0.00  0.00     0.033 H 
ATOM     34  H10 I6X d   1       3.753   5.425 -25.785  0.00  0.00     0.033 H 
ENDBRANCH  20  31
ENDBRANCH   1  15
BRANCH   1  35
ATOM     35  C22 I6X d   1       5.856   1.377 -21.419  0.00  0.00    -0.020 A 
ATOM     36  C23 I6X d   1       6.666   1.080 -22.507  0.00  0.00    -0.074 A 
ATOM     37  C24 I6X d   1       6.951  -0.235 -22.839  0.00  0.00    -0.082 A 
ATOM     38  H17 I6X d   1       7.080   1.885 -23.103  0.00  0.00     0.084 H 
ATOM     39  C25 I6X d   1       6.439  -1.256 -22.060  0.00  0.00    -0.072 A 
ATOM     40  H18 I6X d   1       7.569  -0.461 -23.701  0.00  0.00     0.083 H 
ATOM     41  C26 I6X d   1       5.638  -1.006 -20.959  0.00  0.00    -0.024 A 
ATOM     42  H19 I6X d   1       6.672  -2.283 -22.319  0.00  0.00     0.084 H 
ATOM     43  C27 I6X d   1       5.362   0.322 -20.655  0.00  0.00    -0.063 A 
ATOM     44  H20 I6X d   1       4.741   0.544 -19.794  0.00  0.00     0.085 H 
BRANCH  41  45
ATOM     45  C28 I6X d   1       5.152  -2.110 -20.119  0.00  0.00    -0.007 A 
ATOM     46  C29 I6X d   1       3.961  -2.086 -19.407  0.00  0.00    -0.051 A 
ATOM     47  C30 I6X d   1       3.638  -3.126 -18.558  0.00  0.00     0.036 A 
ATOM     48  H21 I6X d   1       3.282  -1.248 -19.518  0.00  0.00     0.087 H 
ATOM     49  C31 I6X d   1       4.505  -4.197 -18.471  0.00  0.00     0.020 A 
ATOM     50  N32 I6X d   1       5.647  -4.286 -19.158  0.00  0.00    -0.271 NA
ATOM     51  H22 I6X d   1       4.244  -5.013 -17.807  0.00  0.00     0.117 H 
ATOM     52  C33 I6X d   1       5.936  -3.241 -19.941  0.00  0.00     0.013 A 
ATOM     53  H23 I6X d   1       6.871  -3.281 -20.488  0.00  0.00     0.116 H 
BRANCH  47  54
ATOM     54  C34 I6X d   1       2.474  -3.174 -17.748  0.00  0.00    -0.066 C 
ATOM     55  C35 I6X d   1       1.492  -3.219 -17.062  0.00  0.00    -0.105 C 
BRANCH  55  56
ATOM     56  C36 I6X d   1       0.297  -3.273 -16.226  0.00  0.00    -0.021 C 
ATOM     57  H24 I6X d   1      -0.573  -2.931 -16.807  0.00  0.00     0.044 H 
ATOM     58  H25 I6X d   1       0.432  -2.621 -15.350  0.00  0.00     0.044 H 
ATOM     59  H26 I6X d   1       0.130  -4.307 -15.891  0.00  0.00     0.044 H 
ENDBRANCH  55  56
ENDBRANCH  47  54
ENDBRANCH  41  45
ENDBRANCH   1  35
BRANCH   8  60
ATOM     60  N20 I6X d   1       3.077   3.726 -18.559  0.00  0.00    -0.385 N 
ATOM     61  H15 I6X d   1       3.175   4.049 -17.586  0.00  0.00     0.157 HD
ATOM     62  H16 I6X d   1       2.140   3.615 -18.972  0.00  0.00     0.157 HD
ENDBRANCH   8  60
TORSDOF 9
