REMARK  5 active torsions:
REMARK  status: ('A' for Active; 'I' for Inactive)
REMARK    1  A    between atoms: C8_8  and  N34_32 
REMARK    2  A    between atoms: C10_10  and  C11_11 
REMARK    3  A    between atoms: C10_10  and  C24_23 
REMARK    4  A    between atoms: C15_15  and  C17_17 
REMARK    5  A    between atoms: C28_27  and  C30_29 
ROOT
ATOM      1  C1  32D d   1       8.161   3.319 -18.345  0.00  0.00    -0.079 A 
ATOM      2  C2  32D d   1       7.640   2.958 -19.577  0.00  0.00    -0.073 A 
ATOM      3  C3  32D d   1       6.277   3.076 -19.792  0.00  0.00    -0.004 A 
ATOM      4  C4  32D d   1       5.480   3.528 -18.784  0.00  0.00     0.055 A 
ATOM      5  C5  32D d   1       5.977   3.906 -17.548  0.00  0.00     0.131 A 
ATOM      6  C6  32D d   1       7.340   3.797 -17.335  0.00  0.00    -0.045 A 
ATOM      7  F7  32D d   1       5.213   4.407 -16.558  0.00  0.00    -0.205 F 
ATOM      8  C8  32D d   1       4.117   3.512 -19.324  0.00  0.00     0.110 A 
ATOM      9  N9  32D d   1       4.082   3.072 -20.547  0.00  0.00    -0.354 N 
ATOM     10  C10 32D d   1       5.454   2.775 -21.026  0.00  0.00     0.115 A 
ATOM     11  H1  32D d   1       9.226   3.226 -18.168  0.00  0.00     0.083 H 
ATOM     12  H2  32D d   1       8.290   2.588 -20.362  0.00  0.00     0.084 H 
ATOM     13  H3  32D d   1       7.765   4.085 -16.380  0.00  0.00     0.088 H 
ATOM     14  H4  32D d   1       3.224   2.947 -21.104  0.00  0.00     0.163 HD
ENDROOT
BRANCH  10  15
ATOM     15  C11 32D d   1       5.671   1.307 -21.329  0.00  0.00    -0.020 A 
ATOM     16  C12 32D d   1       6.536   0.906 -22.337  0.00  0.00    -0.074 A 
ATOM     17  C13 32D d   1       6.726  -0.434 -22.602  0.00  0.00    -0.082 A 
ATOM     18  H5  32D d   1       7.066   1.651 -22.920  0.00  0.00     0.084 H 
ATOM     19  C14 32D d   1       6.086  -1.395 -21.840  0.00  0.00    -0.072 A 
ATOM     20  H6  32D d   1       7.380  -0.736 -23.412  0.00  0.00     0.083 H 
ATOM     21  C15 32D d   1       5.234  -1.033 -20.813  0.00  0.00    -0.022 A 
ATOM     22  H7  32D d   1       6.255  -2.445 -22.051  0.00  0.00     0.084 H 
ATOM     23  C16 32D d   1       5.046   0.323 -20.578  0.00  0.00    -0.063 A 
ATOM     24  H8  32D d   1       4.384   0.624 -19.775  0.00  0.00     0.085 H 
BRANCH  21  25
ATOM     25  C17 32D d   1       4.628  -2.042 -19.952  0.00  0.00     0.009 A 
ATOM     26  C18 32D d   1       5.319  -3.166 -19.538  0.00  0.00     0.015 A 
ATOM     27  N19 32D d   1       4.856  -4.074 -18.670  0.00  0.00    -0.253 NA
ATOM     28  H9  32D d   1       6.310  -3.324 -19.947  0.00  0.00     0.116 H 
ATOM     29  C20 32D d   1       3.622  -3.831 -18.204  0.00  0.00     0.086 A 
ATOM     30  N21 32D d   1       2.826  -2.809 -18.543  0.00  0.00    -0.253 NA
ATOM     31  H10 32D d   1       3.229  -4.534 -17.479  0.00  0.00     0.146 H 
ATOM     32  C22 32D d   1       3.364  -1.937 -19.408  0.00  0.00     0.015 A 
ATOM     33  H11 32D d   1       2.761  -1.086 -19.702  0.00  0.00     0.116 H 
ENDBRANCH  21  25
ENDBRANCH  10  15
BRANCH  10  34
ATOM     34  C24 32D d   1       5.752   3.694 -22.223  0.00  0.00    -0.017 A 
ATOM     35  C25 32D d   1       6.930   4.415 -22.197  0.00  0.00    -0.057 A 
ATOM     36  C26 32D d   1       7.271   5.243 -23.235  0.00  0.00     0.003 A 
ATOM     37  H12 32D d   1       7.593   4.325 -21.345  0.00  0.00     0.086 H 
ATOM     38  N27 32D d   1       6.516   5.401 -24.323  0.00  0.00    -0.260 NA
ATOM     39  H13 32D d   1       8.200   5.797 -23.168  0.00  0.00     0.114 H 
ATOM     40  C28 32D d   1       5.359   4.738 -24.374  0.00  0.00     0.098 A 
ATOM     41  C29 32D d   1       4.946   3.869 -23.360  0.00  0.00    -0.044 A 
ATOM     42  H14 32D d   1       4.008   3.333 -23.451  0.00  0.00     0.087 H 
BRANCH  40  43
ATOM     43  C30 32D d   1       4.596   4.946 -25.654  0.00  0.00     0.249 C 
ATOM     44  F31 32D d   1       3.453   5.724 -25.620  0.00  0.00    -0.207 F 
ATOM     45  F32 32D d   1       4.321   3.792 -26.313  0.00  0.00    -0.207 F 
ATOM     46  H15 32D d   1       5.297   5.500 -26.296  0.00  0.00     0.155 H 
ENDBRANCH  40  43
ENDBRANCH  10  34
BRANCH   8  47
ATOM     47  N34 32D d   1       3.033   3.858 -18.561  0.00  0.00    -0.385 N 
ATOM     48  H16 32D d   1       3.168   4.197 -17.598  0.00  0.00     0.157 HD
ATOM     49  H17 32D d   1       2.083   3.779 -18.950  0.00  0.00     0.157 HD
ENDBRANCH   8  47
TORSDOF 5
