REMARK  6 active torsions:
REMARK  status: ('A' for Active; 'I' for Inactive)
REMARK    1  A    between atoms: CAC_3  and  CAA_1 
REMARK    2  A    between atoms: CAD_4  and  CAC_3 
REMARK    3  A    between atoms: CAE_5  and  CAD_4 
REMARK    4  A    between atoms: CAF_6  and  CAE_5 
REMARK    5  A    between atoms: SAJ_10  and  CAF_6 
REMARK    6  A    between atoms: SAJ_10  and  CAK_11 
ROOT
ATOM      1  CAE C9H d   1      21.953 -16.893  27.456  0.00  0.00    -0.057 C 
ATOM      2  H   C9H d   1      22.374 -17.190  28.417  0.00  0.00     0.034 H 
ATOM      3  H   C9H d   1      22.677 -16.926  26.642  0.00  0.00     0.034 H 
ENDROOT
BRANCH   1   4
ATOM      4  CAD C9H d   1      21.468 -15.443  27.589  0.00  0.00    -0.065 C 
ATOM      5  H   C9H d   1      22.162 -14.803  27.044  0.00  0.00     0.033 H 
ATOM      6  H   C9H d   1      20.454 -15.388  27.192  0.00  0.00     0.033 H 
BRANCH   4   7
ATOM      7  CAC C9H d   1      21.432 -14.968  29.057  0.00  0.00    -0.069 C 
ATOM      8  H   C9H d   1      21.511 -15.841  29.705  0.00  0.00     0.032 H 
ATOM      9  H   C9H d   1      22.260 -14.277  29.218  0.00  0.00     0.032 H 
BRANCH   7  10
ATOM     10  CAA C9H d   1      20.122 -14.241  29.377  0.00  0.00    -0.077 C 
ATOM     11  H   C9H d   1      20.023 -13.370  28.729  0.00  0.00     0.027 H 
ATOM     12  H   C9H d   1      19.283 -14.917  29.211  0.00  0.00     0.027 H 
ATOM     13  H   C9H d   1      20.131 -13.920  30.419  0.00  0.00     0.027 H 
ENDBRANCH   7  10
ENDBRANCH   4   7
ENDBRANCH   1   4
BRANCH   1  14
ATOM     14  CAF C9H d   1      20.826 -17.879  27.117  0.00  0.00    -0.016 C 
ATOM     15  H   C9H d   1      19.869 -17.365  27.211  0.00  0.00     0.049 H 
ATOM     16  H   C9H d   1      20.881 -18.724  27.803  0.00  0.00     0.049 H 
BRANCH  14  17
ATOM     17  SAJ C9H d   1      20.998 -18.502  25.392  0.00  0.00    -0.090 SA
BRANCH  17  18
ATOM     18  CAK C9H d   1      19.543 -19.451  25.156  0.00  0.00     0.188 A 
ATOM     19  NAH C9H d   1      18.300 -18.990  25.247  0.00  0.00    -0.123 NA
ATOM     20  NAG C9H d   1      17.543 -19.935  25.024  0.00  0.00    -0.143 NA
ATOM     21  CAB C9H d   1      18.244 -21.050  24.767  0.00  0.00     0.087 A 
ATOM     22  NAI C9H d   1      19.529 -20.742  24.852  0.00  0.00    -0.327 N 
ATOM     23  H   C9H d   1      17.831 -22.031  24.531  0.00  0.00     0.146 H 
ATOM     24  H   C9H d   1      20.329 -21.359  24.715  0.00  0.00     0.168 HD
ENDBRANCH  17  18
ENDBRANCH  14  17
ENDBRANCH   1  14
TORSDOF 6
