REMARK  5 active torsions:
REMARK  status: ('A' for Active; 'I' for Inactive)
REMARK    1  A    between atoms: C01_1  and  C02_2 
REMARK    2  A    between atoms: C04_4  and  C05_5 
REMARK    3  A    between atoms: C05_5  and  N06_6 
REMARK    4  A    between atoms: N09_9  and  C10_10 
REMARK    5  A    between atoms: N22_22  and  C23_23 
ROOT
ATOM      1  N06 VEK d   1     -22.333 -11.963 -13.889  0.00  0.00    -0.063 N 
ATOM      2  C07 VEK d   1     -23.152 -12.977 -13.196  0.00  0.00     0.098 C 
ATOM      3  C08 VEK d   1     -24.266 -13.515 -14.087  0.00  0.00     0.018 C 
ATOM      4  N09 VEK d   1     -23.869 -13.701 -15.484  0.00  0.00    -0.374 N 
ATOM      5  C26 VEK d   1     -22.383 -13.695 -15.717  0.00  0.00     0.018 C 
ATOM      6  C27 VEK d   1     -21.658 -12.451 -15.095  0.00  0.00     0.098 C 
ATOM      7  H7  VEK d   1     -23.025 -11.336 -14.269  0.00  0.00     0.280 HD
ATOM      8  H8  VEK d   1     -23.601 -12.521 -12.302  0.00  0.00     0.078 H 
ATOM      9  H9  VEK d   1     -22.503 -13.812 -12.895  0.00  0.00     0.078 H 
ATOM     10  H10 VEK d   1     -25.107 -12.806 -14.057  0.00  0.00     0.066 H 
ATOM     11  H11 VEK d   1     -24.591 -14.487 -13.687  0.00  0.00     0.066 H 
ATOM     12  H19 VEK d   1     -22.201 -13.698 -16.802  0.00  0.00     0.066 H 
ATOM     13  H20 VEK d   1     -21.957 -14.606 -15.271  0.00  0.00     0.066 H 
ATOM     14  H21 VEK d   1     -20.628 -12.735 -14.834  0.00  0.00     0.078 H 
ATOM     15  H22 VEK d   1     -21.638 -11.643 -15.841  0.00  0.00     0.078 H 
ENDROOT
BRANCH   4  16
ATOM     16  C10 VEK d   1     -24.580 -14.688 -16.366  0.00  0.00     0.082 A 
ATOM     17  C11 VEK d   1     -24.517 -14.570 -17.743  0.00  0.00     0.057 A 
ATOM     18 BR   VEK d   1     -23.767 -12.999 -18.596  0.00  0.00    -0.047 Br
ATOM     19  C13 VEK d   1     -25.117 -15.564 -18.635  0.00  0.00     0.024 A 
ATOM     20  N14 VEK d   1     -25.768 -16.691 -18.090  0.00  0.00    -0.239 NA
ATOM     21  H12 VEK d   1     -25.061 -15.435 -19.710  0.00  0.00     0.117 H 
ATOM     22  C15 VEK d   1     -25.831 -16.848 -16.682  0.00  0.00     0.160 A 
ATOM     23  N16 VEK d   1     -26.390 -17.842 -15.921  0.00  0.00    -0.322 N 
ATOM     24  C25 VEK d   1     -25.256 -15.879 -15.810  0.00  0.00     0.133 A 
ATOM     25  C17 VEK d   1     -26.173 -17.514 -14.555  0.00  0.00     0.158 A 
ATOM     26  H13 VEK d   1     -26.879 -18.676 -16.275  0.00  0.00     0.169 HD
ATOM     27  C18 VEK d   1     -26.672 -18.262 -13.476  0.00  0.00     0.099 A 
ATOM     28  N24 VEK d   1     -25.487 -16.313 -14.502  0.00  0.00    -0.223 NA
ATOM     29  C19 VEK d   1     -27.663 -19.287 -13.623  0.00  0.00     0.033 A 
ATOM     30  N22 VEK d   1     -26.393 -18.113 -12.149  0.00  0.00    -0.342 N 
ATOM     31  N20 VEK d   1     -27.956 -19.744 -12.371  0.00  0.00    -0.254 NA
ATOM     32  H14 VEK d   1     -28.100 -19.635 -14.558  0.00  0.00     0.118 H 
ATOM     33  C21 VEK d   1     -27.190 -19.037 -11.446  0.00  0.00     0.066 A 
ATOM     34  H15 VEK d   1     -27.205 -19.175 -10.366  0.00  0.00     0.143 H 
BRANCH  30  35
ATOM     35  C23 VEK d   1     -25.439 -17.176 -11.534  0.00  0.00    -0.013 C 
ATOM     36  H16 VEK d   1     -24.957 -16.575 -12.319  0.00  0.00     0.057 H 
ATOM     37  H17 VEK d   1     -24.673 -17.741 -10.983  0.00  0.00     0.057 H 
ATOM     38  H18 VEK d   1     -25.974 -16.511 -10.840  0.00  0.00     0.057 H 
ENDBRANCH  30  35
ENDBRANCH   4  16
BRANCH   1  39
ATOM     39  C05 VEK d   1     -21.580 -11.092 -13.004  0.00  0.00     0.125 C 
ATOM     40  H5  VEK d   1     -21.783 -11.341 -11.952  0.00  0.00     0.086 H 
ATOM     41  H6  VEK d   1     -20.501 -11.180 -13.200  0.00  0.00     0.086 H 
BRANCH  39  42
ATOM     42  C04 VEK d   1     -22.078  -9.665 -13.331  0.00  0.00     0.090 A 
ATOM     43  C03 VEK d   1     -21.468  -8.701 -14.308  0.00  0.00    -0.025 A 
ATOM     44  C02 VEK d   1     -22.315  -7.529 -14.333  0.00  0.00     0.077 A 
ATOM     45  H4  VEK d   1     -20.559  -8.855 -14.888  0.00  0.00     0.090 H 
ATOM     46  O29 VEK d   1     -23.416  -7.742 -13.407  0.00  0.00    -0.218 OA
ATOM     47  N28 VEK d   1     -23.256  -9.087 -12.799  0.00  0.00    -0.131 NA
BRANCH  44  48
ATOM     48  C01 VEK d   1     -22.131  -6.251 -15.194  0.00  0.00    -0.029 C 
ATOM     49  H1  VEK d   1     -21.221  -6.348 -15.804  0.00  0.00     0.036 H 
ATOM     50  H2  VEK d   1     -22.039  -5.375 -14.535  0.00  0.00     0.036 H 
ATOM     51  H3  VEK d   1     -23.003  -6.124 -15.853  0.00  0.00     0.036 H 
ENDBRANCH  44  48
ENDBRANCH  39  42
ENDBRANCH   1  39
TORSDOF 5
