REMARK  3 active torsions:
REMARK  status: ('A' for Active; 'I' for Inactive)
REMARK    1  A    between atoms: C08_9  and  C01_2 
REMARK    2  A    between atoms: C03_4  and  C06_7 
REMARK    3  A    between atoms: C06_7  and  O07_8 
ROOT
ATOM      1  C01 NON d   1      43.014  -3.467 236.413  0.00  0.00     0.120 A 
ATOM      2  C02 NON d   1      41.820  -2.823 236.560  0.00  0.00    -0.019 A 
ATOM      3  C03 NON d   1      41.776  -2.056 237.671  0.00  0.00     0.088 A 
ATOM      4  N04 NON d   1      42.987  -2.180 238.252  0.00  0.00    -0.130 NA
ATOM      5  O05 NON d   1      43.822  -3.093 237.456  0.00  0.00    -0.212 OA
ATOM      6  H   NON d   1      40.992  -2.917 235.857  0.00  0.00     0.091 H 
ENDROOT
BRANCH   1   7
ATOM      7  C08 NON d   1      43.432  -4.353 235.396  0.00  0.00     0.040 A 
ATOM      8  S09 NON d   1      44.654  -5.546 235.502  0.00  0.00    -0.099 SA
ATOM      9  C10 NON d   1      44.550  -6.112 233.939  0.00  0.00    -0.044 A 
ATOM     10  C11 NON d   1      43.585  -5.379 233.373  0.00  0.00    -0.075 A 
ATOM     11  H   NON d   1      45.139  -6.905 233.479  0.00  0.00     0.095 H 
ATOM     12  C12 NON d   1      42.983  -4.437 234.140  0.00  0.00    -0.063 A 
ATOM     13  H   NON d   1      43.294  -5.533 232.334  0.00  0.00     0.084 H 
ATOM     14  H   NON d   1      42.189  -3.794 233.759  0.00  0.00     0.085 H 
ENDBRANCH   1   7
BRANCH   3  15
ATOM     15  C06 NON d   1      40.581  -1.168 238.170  0.00  0.00     0.059 C 
ATOM     16  H   NON d   1      40.193  -0.685 237.273  0.00  0.00     0.083 H 
ATOM     17  H   NON d   1      41.001  -0.545 238.960  0.00  0.00     0.083 H 
BRANCH  15  18
ATOM     18  O07 NON d   1      39.407  -1.835 238.788  0.00  0.00    -0.395 OA
ATOM     19  H   NON d   1      38.761  -1.172 239.043  0.00  0.00     0.209 HD
ENDBRANCH  15  18
ENDBRANCH   3  15
TORSDOF 3
