REMARK  6 active torsions:
REMARK  status: ('A' for Active; 'I' for Inactive)
REMARK       I    between atoms: C14_2  and  N1_3 
REMARK    1  A    between atoms: C14_2  and  C2_15 
REMARK    2  A    between atoms: N1_3  and  C15_4 
REMARK    3  A    between atoms: C15_4  and  C16_5 
REMARK    4  A    between atoms: C1_19  and  C_20 
REMARK    5  A    between atoms: C7_21  and  O1_25 
REMARK    6  A    between atoms: O1_25  and  C8_26 
ROOT
ATOM      1  C2  7I1 d   1      24.415  42.186  61.198  0.00  0.00     0.150 A 
ATOM      2  O   7I1 d   1      23.216  41.830  60.993  0.00  0.00    -0.304 OA
ATOM      3  C3  7I1 d   1      22.931  40.703  61.768  0.00  0.00     0.090 A 
ATOM      4  C13 7I1 d   1      24.043  40.338  62.505  0.00  0.00     0.040 A 
ATOM      5  C1  7I1 d   1      24.991  41.343  62.160  0.00  0.00    -0.007 A 
ATOM      6  C7  7I1 d   1      23.948  39.261  63.413  0.00  0.00     0.083 A 
ATOM      7  C6  7I1 d   1      22.769  38.524  63.463  0.00  0.00    -0.050 A 
ATOM      8  C5  7I1 d   1      21.684  38.830  62.611  0.00  0.00    -0.078 A 
ATOM      9  C4  7I1 d   1      21.733  39.966  61.803  0.00  0.00    -0.049 A 
ATOM     10  H   7I1 d   1      22.681  37.699  64.169  0.00  0.00     0.087 H 
ATOM     11  H   7I1 d   1      20.810  38.179  62.585  0.00  0.00     0.083 H 
ATOM     12  H   7I1 d   1      20.868  40.274  61.216  0.00  0.00     0.087 H 
ENDROOT
BRANCH   1  13
ATOM     13  C14 7I1 d   1      25.021  43.422  60.537  0.00  0.00     0.276 C 
ATOM     14  O2  7I1 d   1      26.232  43.746  60.701  0.00  0.00    -0.265 OA
ATOM     15  N1  7I1 d   1      24.098  44.140  59.847  0.00  0.00    -0.351 N 
ATOM     16  H   7I1 d   1      23.181  43.715  59.708  0.00  0.00     0.163 HD
BRANCH  15  17
ATOM     17  C15 7I1 d   1      24.318  45.501  59.276  0.00  0.00     0.020 C 
ATOM     18  H   7I1 d   1      23.987  45.531  58.238  0.00  0.00     0.071 H 
ATOM     19  H   7I1 d   1      25.378  45.752  59.300  0.00  0.00     0.071 H 
BRANCH  17  20
ATOM     20  C16 7I1 d   1      23.511  46.512  60.122  0.00  0.00    -0.029 A 
ATOM     21  C25 7I1 d   1      24.106  46.936  61.290  0.00  0.00    -0.018 A 
ATOM     22  C24 7I1 d   1      25.386  46.438  61.597  0.00  0.00    -0.072 A 
ATOM     23  C20 7I1 d   1      23.488  47.850  62.165  0.00  0.00    -0.025 A 
ATOM     24  C23 7I1 d   1      26.022  46.788  62.751  0.00  0.00    -0.082 A 
ATOM     25  H   7I1 d   1      25.878  45.760  60.899  0.00  0.00     0.084 H 
ATOM     26  C22 7I1 d   1      25.432  47.671  63.631  0.00  0.00    -0.082 A 
ATOM     27  H   7I1 d   1      27.002  46.368  62.979  0.00  0.00     0.083 H 
ATOM     28  C21 7I1 d   1      24.165  48.212  63.376  0.00  0.00    -0.072 A 
ATOM     29  H   7I1 d   1      25.961  47.953  64.541  0.00  0.00     0.083 H 
ATOM     30  H   7I1 d   1      23.702  48.897  64.086  0.00  0.00     0.084 H 
ATOM     31  C19 7I1 d   1      22.213  48.353  61.907  0.00  0.00    -0.072 A 
ATOM     32  C18 7I1 d   1      21.602  47.929  60.700  0.00  0.00    -0.082 A 
ATOM     33  H   7I1 d   1      21.714  49.035  62.596  0.00  0.00     0.084 H 
ATOM     34  C17 7I1 d   1      22.228  47.034  59.822  0.00  0.00    -0.074 A 
ATOM     35  H   7I1 d   1      20.613  48.312  60.447  0.00  0.00     0.083 H 
ATOM     36  H   7I1 d   1      21.725  46.737  58.902  0.00  0.00     0.084 H 
ENDBRANCH  17  20
ENDBRANCH  15  17
ENDBRANCH   1  13
BRANCH   5  37
ATOM     37  C   7I1 d   1      26.387  41.375  62.746  0.00  0.00    -0.047 C 
ATOM     38  H   7I1 d   1      27.118  41.246  61.948  0.00  0.00     0.033 H 
ATOM     39  H   7I1 d   1      26.551  42.333  63.239  0.00  0.00     0.033 H 
ATOM     40  H   7I1 d   1      26.494  40.568  63.471  0.00  0.00     0.033 H 
ENDBRANCH   5  37
BRANCH   6  41
ATOM     41  O1  7I1 d   1      25.124  38.902  64.129  0.00  0.00    -0.345 OA
BRANCH  41  42
ATOM     42  C8  7I1 d   1      25.043  38.326  65.467  0.00  0.00     0.048 C 
ATOM     43  C12 7I1 d   1      24.473  39.436  66.299  0.00  0.00    -0.018 C 
ATOM     44  C11 7I1 d   1      25.507  40.566  66.474  0.00  0.00     0.084 C 
ATOM     45  H   7I1 d   1      24.209  39.043  67.281  0.00  0.00     0.039 H 
ATOM     46  H   7I1 d   1      23.592  39.837  65.798  0.00  0.00     0.039 H 
ATOM     47  N   7I1 d   1      26.843  40.109  66.846  0.00  0.00    -0.075 N 
ATOM     48  H   7I1 d   1      25.150  41.203  67.283  0.00  0.00     0.075 H 
ATOM     49  H   7I1 d   1      25.598  41.069  65.511  0.00  0.00     0.075 H 
ATOM     50  C10 7I1 d   1      27.451  38.981  66.146  0.00  0.00     0.084 C 
ATOM     51  H   7I1 d   1      26.743  39.787  67.809  0.00  0.00     0.277 HD
ATOM     52  H   7I1 d   1      27.451  40.899  66.632  0.00  0.00     0.277 HD
ATOM     53  C9  7I1 d   1      26.450  37.847  65.863  0.00  0.00    -0.018 C 
ATOM     54  H   7I1 d   1      28.240  38.579  66.781  0.00  0.00     0.075 H 
ATOM     55  H   7I1 d   1      27.825  39.344  65.189  0.00  0.00     0.075 H 
ATOM     56  H   7I1 d   1      26.843  37.276  65.021  0.00  0.00     0.039 H 
ATOM     57  H   7I1 d   1      26.346  37.275  66.785  0.00  0.00     0.039 H 
ATOM     58  H   7I1 d   1      24.411  37.445  65.579  0.00  0.00     0.084 H 
ENDBRANCH  41  42
ENDBRANCH   6  41
TORSDOF 6
