REMARK  7 active torsions:
REMARK  status: ('A' for Active; 'I' for Inactive)
REMARK    1  A    between atoms: C14_2  and  C15_3 
REMARK    2  A    between atoms: C14_2  and  C2_11 
REMARK    3  A    between atoms: C15_3  and  C16_4 
REMARK    4  A    between atoms: C16_4  and  C17_5 
REMARK    5  A    between atoms: C1_15  and  C_16 
REMARK    6  A    between atoms: C7_17  and  O1_21 
REMARK    7  A    between atoms: O1_21  and  C8_22 
ROOT
ATOM      1  C2  C23 d   1      23.451  44.340  62.037  0.00  0.00     0.128 A 
ATOM      2  O   C23 d   1      22.268  43.897  61.838  0.00  0.00    -0.306 OA
ATOM      3  C3  C23 d   1      22.164  42.728  62.547  0.00  0.00     0.089 A 
ATOM      4  C13 C23 d   1      23.339  42.396  63.217  0.00  0.00     0.040 A 
ATOM      5  C1  C23 d   1      24.183  43.480  62.861  0.00  0.00    -0.009 A 
ATOM      6  C7  C23 d   1      23.394  41.245  64.034  0.00  0.00     0.083 A 
ATOM      7  C6  C23 d   1      22.248  40.453  64.112  0.00  0.00    -0.050 A 
ATOM      8  C5  C23 d   1      21.069  40.757  63.417  0.00  0.00    -0.078 A 
ATOM      9  C4  C23 d   1      21.013  41.916  62.646  0.00  0.00    -0.049 A 
ATOM     10  H   C23 d   1      22.270  39.562  64.739  0.00  0.00     0.087 H 
ATOM     11  H   C23 d   1      20.206  40.094  63.479  0.00  0.00     0.083 H 
ATOM     12  H   C23 d   1      20.095  42.192  62.127  0.00  0.00     0.087 H 
ENDROOT
BRANCH   1  13
ATOM     13  C14 C23 d   1      23.939  45.564  61.314  0.00  0.00     0.183 C 
ATOM     14  O2  C23 d   1      23.137  46.103  60.564  0.00  0.00    -0.290 OA
BRANCH  13  15
ATOM     15  C15 C23 d   1      25.412  45.988  61.306  0.00  0.00     0.001 C 
ATOM     16  H   C23 d   1      25.937  45.403  60.550  0.00  0.00     0.045 H 
ATOM     17  H   C23 d   1      25.827  45.817  62.299  0.00  0.00     0.045 H 
BRANCH  15  18
ATOM     18  C16 C23 d   1      25.568  47.520  60.953  0.00  0.00    -0.034 C 
ATOM     19  H   C23 d   1      24.878  47.769  60.147  0.00  0.00     0.040 H 
ATOM     20  H   C23 d   1      26.598  47.709  60.649  0.00  0.00     0.040 H 
BRANCH  18  21
ATOM     21  C17 C23 d   1      25.239  48.398  62.182  0.00  0.00    -0.058 A 
ATOM     22  C22 C23 d   1      26.223  48.681  63.150  0.00  0.00    -0.077 A 
ATOM     23  C21 C23 d   1      25.909  49.450  64.290  0.00  0.00    -0.082 A 
ATOM     24  H   C23 d   1      27.236  48.302  63.017  0.00  0.00     0.084 H 
ATOM     25  C20 C23 d   1      24.613  49.955  64.451  0.00  0.00    -0.083 A 
ATOM     26  H   C23 d   1      26.672  49.650  65.042  0.00  0.00     0.083 H 
ATOM     27  C19 C23 d   1      23.611  49.629  63.525  0.00  0.00    -0.082 A 
ATOM     28  H   C23 d   1      24.382  50.602  65.297  0.00  0.00     0.083 H 
ATOM     29  C18 C23 d   1      23.912  48.870  62.393  0.00  0.00    -0.077 A 
ATOM     30  H   C23 d   1      22.589  49.971  63.691  0.00  0.00     0.083 H 
ATOM     31  H   C23 d   1      23.130  48.638  61.669  0.00  0.00     0.084 H 
ENDBRANCH  18  21
ENDBRANCH  15  18
ENDBRANCH  13  15
ENDBRANCH   1  13
BRANCH   5  32
ATOM     32  C   C23 d   1      25.617  43.564  63.356  0.00  0.00    -0.048 C 
ATOM     33  H   C23 d   1      26.295  43.573  62.502  0.00  0.00     0.033 H 
ATOM     34  H   C23 d   1      25.747  44.479  63.934  0.00  0.00     0.033 H 
ATOM     35  H   C23 d   1      25.834  42.701  63.985  0.00  0.00     0.033 H 
ENDBRANCH   5  32
BRANCH   6  36
ATOM     36  O1  C23 d   1      24.530  40.915  64.772  0.00  0.00    -0.345 OA
BRANCH  36  37
ATOM     37  C8  C23 d   1      24.409  40.730  66.199  0.00  0.00     0.048 C 
ATOM     38  C12 C23 d   1      25.472  39.756  66.752  0.00  0.00    -0.018 C 
ATOM     39  C11 C23 d   1      26.834  40.418  66.856  0.00  0.00     0.084 C 
ATOM     40  H   C23 d   1      25.551  38.909  66.071  0.00  0.00     0.039 H 
ATOM     41  H   C23 d   1      25.165  39.440  67.749  0.00  0.00     0.039 H 
ATOM     42  N   C23 d   1      26.772  41.739  67.467  0.00  0.00    -0.075 N 
ATOM     43  H   C23 d   1      27.227  40.535  65.846  0.00  0.00     0.075 H 
ATOM     44  H   C23 d   1      27.465  39.788  67.483  0.00  0.00     0.075 H 
ATOM     45  C10 C23 d   1      25.747  42.670  67.040  0.00  0.00     0.084 C 
ATOM     46  H   C23 d   1      27.653  42.186  67.212  0.00  0.00     0.277 HD
ATOM     47  H   C23 d   1      26.570  41.562  68.451  0.00  0.00     0.277 HD
ATOM     48  C9  C23 d   1      24.364  42.048  66.981  0.00  0.00    -0.018 C 
ATOM     49  H   C23 d   1      26.002  43.005  66.035  0.00  0.00     0.075 H 
ATOM     50  H   C23 d   1      25.714  43.482  67.766  0.00  0.00     0.075 H 
ATOM     51  H   C23 d   1      24.019  41.849  67.996  0.00  0.00     0.039 H 
ATOM     52  H   C23 d   1      23.684  42.737  66.480  0.00  0.00     0.039 H 
ATOM     53  H   C23 d   1      23.437  40.263  66.356  0.00  0.00     0.084 H 
ENDBRANCH  36  37
ENDBRANCH   6  36
TORSDOF 7
