REMARK  6 active torsions:
REMARK  status: ('A' for Active; 'I' for Inactive)
REMARK    1  A    between atoms: C_1  and  C1_2 
REMARK    2  A    between atoms: C2_3  and  C14_5 
REMARK    3  A    between atoms: C15_7  and  C16_8 
REMARK    4  A    between atoms: C16_8  and  C17_9 
REMARK    5  A    between atoms: C7_22  and  O1_23 
REMARK    6  A    between atoms: O1_23  and  C8_24 
ROOT
ATOM      1  C1  X25 d   1      23.870  42.001  63.208  0.00  0.00    -0.008 A 
ATOM      2  C2  X25 d   1      23.111  42.693  62.359  0.00  0.00     0.138 A 
ATOM      3  O   X25 d   1      22.054  42.204  62.253  0.00  0.00    -0.305 OA
ATOM      4  C3  X25 d   1      22.037  41.088  62.920  0.00  0.00     0.089 A 
ATOM      5  C13 X25 d   1      23.210  40.893  63.626  0.00  0.00     0.040 A 
ATOM      6  C4  X25 d   1      20.977  40.209  63.019  0.00  0.00    -0.049 A 
ATOM      7  C5  X25 d   1      21.148  39.112  63.819  0.00  0.00    -0.078 A 
ATOM      8  C6  X25 d   1      22.353  38.949  64.526  0.00  0.00    -0.050 A 
ATOM      9  C7  X25 d   1      23.418  39.840  64.449  0.00  0.00     0.083 A 
ATOM     10  H   X25 d   1      20.044  40.381  62.483  0.00  0.00     0.087 H 
ATOM     11  H   X25 d   1      20.355  38.369  63.908  0.00  0.00     0.083 H 
ATOM     12  H   X25 d   1      22.458  38.076  65.170  0.00  0.00     0.087 H 
ENDROOT
BRANCH   2  13
ATOM     13  C14 X25 d   1      23.497  43.900  61.815  0.00  0.00     0.231 A 
ATOM     14  N1  X25 d   1      24.659  44.501  62.005  0.00  0.00    -0.202 NA
ATOM     15  C15 X25 d   1      24.571  45.514  61.213  0.00  0.00     0.160 A 
ATOM     16  N2  X25 d   1      23.403  45.525  60.641  0.00  0.00    -0.110 NA
ATOM     17  O2  X25 d   1      22.790  44.455  61.058  0.00  0.00    -0.189 OA
BRANCH  15  18
ATOM     18  C16 X25 d   1      25.569  46.557  61.065  0.00  0.00     0.018 C 
ATOM     19  H   X25 d   1      25.468  47.188  60.182  0.00  0.00     0.052 H 
ATOM     20  H   X25 d   1      26.587  46.216  60.879  0.00  0.00     0.052 H 
BRANCH  18  21
ATOM     21  C17 X25 d   1      25.336  47.240  62.393  0.00  0.00    -0.051 A 
ATOM     22  C18 X25 d   1      24.077  47.631  62.744  0.00  0.00    -0.076 A 
ATOM     23  C19 X25 d   1      23.916  48.275  63.953  0.00  0.00    -0.082 A 
ATOM     24  H   X25 d   1      23.226  47.441  62.090  0.00  0.00     0.084 H 
ATOM     25  C20 X25 d   1      24.972  48.508  64.810  0.00  0.00    -0.083 A 
ATOM     26  H   X25 d   1      22.920  48.611  64.241  0.00  0.00     0.083 H 
ATOM     27  C21 X25 d   1      26.227  48.108  64.444  0.00  0.00    -0.082 A 
ATOM     28  H   X25 d   1      24.808  49.005  65.766  0.00  0.00     0.083 H 
ATOM     29  C22 X25 d   1      26.372  47.464  63.250  0.00  0.00    -0.076 A 
ATOM     30  H   X25 d   1      27.086  48.298  65.087  0.00  0.00     0.083 H 
ATOM     31  H   X25 d   1      27.364  47.112  62.968  0.00  0.00     0.084 H 
ENDBRANCH  18  21
ENDBRANCH  15  18
ENDBRANCH   2  13
BRANCH   1  32
ATOM     32  C   X25 d   1      25.184  42.201  63.733  0.00  0.00    -0.048 C 
ATOM     33  H   X25 d   1      25.902  42.225  62.913  0.00  0.00     0.033 H 
ATOM     34  H   X25 d   1      25.217  43.146  64.275  0.00  0.00     0.033 H 
ATOM     35  H   X25 d   1      25.432  41.383  64.410  0.00  0.00     0.033 H 
ENDBRANCH   1  32
BRANCH   9  36
ATOM     36  O1  X25 d   1      24.556  39.675  65.177  0.00  0.00    -0.345 OA
BRANCH  36  37
ATOM     37  C8  X25 d   1      24.478  39.404  66.633  0.00  0.00     0.048 C 
ATOM     38  C9  X25 d   1      25.167  38.133  67.116  0.00  0.00    -0.018 C 
ATOM     39  C10 X25 d   1      26.656  38.344  67.154  0.00  0.00     0.084 C 
ATOM     40  H   X25 d   1      24.936  37.316  66.433  0.00  0.00     0.039 H 
ATOM     41  H   X25 d   1      24.812  37.889  68.117  0.00  0.00     0.039 H 
ATOM     42  N   X25 d   1      27.046  39.562  67.868  0.00  0.00    -0.075 N 
ATOM     43  H   X25 d   1      27.003  38.438  66.125  0.00  0.00     0.075 H 
ATOM     44  H   X25 d   1      27.097  37.497  67.679  0.00  0.00     0.075 H 
ATOM     45  C11 X25 d   1      26.201  40.730  67.862  0.00  0.00     0.084 C 
ATOM     46  H   X25 d   1      27.894  39.868  67.390  0.00  0.00     0.277 HD
ATOM     47  H   X25 d   1      27.068  39.278  68.847  0.00  0.00     0.277 HD
ATOM     48  C12 X25 d   1      24.715  40.536  67.616  0.00  0.00    -0.018 C 
ATOM     49  H   X25 d   1      26.554  41.337  67.029  0.00  0.00     0.075 H 
ATOM     50  H   X25 d   1      26.275  41.145  68.867  0.00  0.00     0.075 H 
ATOM     51  H   X25 d   1      24.230  40.290  68.561  0.00  0.00     0.039 H 
ATOM     52  H   X25 d   1      24.303  41.456  67.201  0.00  0.00     0.039 H 
ATOM     53  H   X25 d   1      23.399  39.249  66.661  0.00  0.00     0.084 H 
ENDBRANCH  36  37
ENDBRANCH   9  36
TORSDOF 6
