REMARK  9 active torsions:
REMARK  status: ('A' for Active; 'I' for Inactive)
REMARK    1  A    between atoms: C1_4  and  C_1 
REMARK    2  A    between atoms: C7_12  and  O1_5 
REMARK    3  A    between atoms: O1_5  and  C8_13 
REMARK    4  A    between atoms: C14_19  and  C2_6 
REMARK    5  A    between atoms: OAR_29  and  C14_19 
REMARK    6  A    between atoms: OAQ_28  and  C15_20 
REMARK    7  A    between atoms: C20_22  and  C19_21 
REMARK    8  A    between atoms: C19_21  and  OAR_29 
REMARK    9  A    between atoms: C24_26  and  OAQ_28 
ROOT
ATOM      1  O   4XB d   1      22.024  42.146  62.487  0.00  0.00    -0.303 OA
ATOM      2  C1  4XB d   1      24.076  41.818  63.403  0.00  0.00    -0.006 A 
ATOM      3  C2  4XB d   1      23.247  42.671  62.579  0.00  0.00     0.158 A 
ATOM      4  C3  4XB d   1      22.047  40.984  63.166  0.00  0.00     0.090 A 
ATOM      5  C4  4XB d   1      20.935  40.073  63.362  0.00  0.00    -0.049 A 
ATOM      6  C5  4XB d   1      21.150  38.939  64.118  0.00  0.00    -0.078 A 
ATOM      7  C6  4XB d   1      22.380  38.668  64.740  0.00  0.00    -0.050 A 
ATOM      8  C7  4XB d   1      23.466  39.562  64.556  0.00  0.00     0.083 A 
ATOM      9  C13 4XB d   1      23.278  40.723  63.804  0.00  0.00     0.040 A 
ATOM     10  H   4XB d   1      19.958  40.279  62.925  0.00  0.00     0.087 H 
ATOM     11  H   4XB d   1      20.334  38.226  64.237  0.00  0.00     0.083 H 
ATOM     12  H   4XB d   1      22.499  37.779  65.359  0.00  0.00     0.087 H 
ENDROOT
BRANCH   3  13
ATOM     13  C14 4XB d   1      23.536  43.981  61.953  0.00  0.00     0.318 C 
ATOM     14  O2  4XB d   1      22.635  44.669  61.577  0.00  0.00    -0.257 OA
BRANCH  13  15
ATOM     15  OAR 4XB d   1      24.886  44.462  61.841  0.00  0.00    -0.311 OA
BRANCH  15  16
ATOM     16  C19 4XB d   1      25.016  45.785  61.396  0.00  0.00     0.053 C 
ATOM     17  H   4XB d   1      25.968  45.915  60.880  0.00  0.00     0.082 H 
ATOM     18  H   4XB d   1      24.214  46.026  60.698  0.00  0.00     0.082 H 
BRANCH  16  19
ATOM     19  C20 4XB d   1      24.949  46.688  62.587  0.00  0.00    -0.031 A 
ATOM     20  C21 4XB d   1      26.057  46.969  63.406  0.00  0.00    -0.075 A 
ATOM     21  C22 4XB d   1      25.897  47.791  64.523  0.00  0.00    -0.080 A 
ATOM     22  H   4XB d   1      27.034  46.548  63.170  0.00  0.00     0.084 H 
ATOM     23  C23 4XB d   1      24.661  48.381  64.834  0.00  0.00    -0.051 A 
ATOM     24  H   4XB d   1      26.753  47.980  65.170  0.00  0.00     0.083 H 
ATOM     25  C24 4XB d   1      23.583  48.068  63.977  0.00  0.00     0.068 A 
ATOM     26  H   4XB d   1      24.540  49.044  65.690  0.00  0.00     0.087 H 
ATOM     27  C25 4XB d   1      23.726  47.248  62.878  0.00  0.00    -0.043 A 
ATOM     28  H   4XB d   1      22.868  47.043  62.238  0.00  0.00     0.088 H 
BRANCH  25  29
ATOM     29  OAQ 4XB d   1      22.355  48.596  64.232  0.00  0.00    -0.356 OA
BRANCH  29  30
ATOM     30  C15 4XB d   1      21.237  48.684  63.342  0.00  0.00     0.010 C 
ATOM     31  H   4XB d   1      21.515  49.275  62.469  0.00  0.00     0.066 H 
ATOM     32  H   4XB d   1      20.946  47.682  63.026  0.00  0.00     0.066 H 
ATOM     33  H   4XB d   1      20.402  49.162  63.855  0.00  0.00     0.066 H 
ENDBRANCH  29  30
ENDBRANCH  25  29
ENDBRANCH  16  19
ENDBRANCH  15  16
ENDBRANCH  13  15
ENDBRANCH   3  13
BRANCH   2  34
ATOM     34  C   4XB d   1      25.503  41.993  63.803  0.00  0.00    -0.047 C 
ATOM     35  H   4XB d   1      26.128  42.026  62.910  0.00  0.00     0.033 H 
ATOM     36  H   4XB d   1      25.612  42.924  64.359  0.00  0.00     0.033 H 
ATOM     37  H   4XB d   1      25.808  41.156  64.431  0.00  0.00     0.033 H 
ENDBRANCH   2  34
BRANCH   8  38
ATOM     38  O1  4XB d   1      24.713  39.324  65.147  0.00  0.00    -0.345 OA
BRANCH  38  39
ATOM     39  C8  4XB d   1      24.939  38.827  66.483  0.00  0.00     0.048 C 
ATOM     40  C9  4XB d   1      26.383  38.505  66.950  0.00  0.00    -0.018 C 
ATOM     41  C10 4XB d   1      27.126  39.721  67.484  0.00  0.00     0.084 C 
ATOM     42  H   4XB d   1      26.934  38.134  66.086  0.00  0.00     0.039 H 
ATOM     43  H   4XB d   1      26.314  37.779  67.760  0.00  0.00     0.039 H 
ATOM     44  N   4XB d   1      26.319  40.778  68.108  0.00  0.00    -0.075 N 
ATOM     45  H   4XB d   1      27.782  39.346  68.269  0.00  0.00     0.075 H 
ATOM     46  H   4XB d   1      27.601  40.182  66.618  0.00  0.00     0.075 H 
ATOM     47  C11 4XB d   1      24.913  40.968  67.723  0.00  0.00     0.084 C 
ATOM     48  H   4XB d   1      26.777  41.644  67.824  0.00  0.00     0.277 HD
ATOM     49  H   4XB d   1      26.277  40.514  69.092  0.00  0.00     0.277 HD
ATOM     50  C12 4XB d   1      24.218  39.664  67.509  0.00  0.00    -0.018 C 
ATOM     51  H   4XB d   1      24.886  41.529  66.789  0.00  0.00     0.075 H 
ATOM     52  H   4XB d   1      24.405  41.500  68.528  0.00  0.00     0.075 H 
ATOM     53  H   4XB d   1      24.200  39.119  68.453  0.00  0.00     0.039 H 
ATOM     54  H   4XB d   1      23.208  39.862  67.150  0.00  0.00     0.039 H 
ATOM     55  H   4XB d   1      24.512  37.828  66.402  0.00  0.00     0.084 H 
ENDBRANCH  38  39
ENDBRANCH   8  38
TORSDOF 9
