REMARK  7 active torsions:
REMARK  status: ('A' for Active; 'I' for Inactive)
REMARK    1  A    between atoms: C1_1  and  C4_4 
REMARK    2  A    between atoms: C1_1  and  C5_5 
REMARK    3  A    between atoms: C2_3  and  N3_11 
REMARK    4  A    between atoms: C7_7  and  C14_15 
REMARK    5  A    between atoms: C18_23  and  C11_12 
REMARK    6  A    between atoms: C16_17  and  C21_20 
REMARK    7  A    between atoms: C22_24  and  C23_25 
ROOT
ATOM      1  C5  1B1 d   1       5.842   1.080 -21.123  0.00  0.00    -0.007 A 
ATOM      2  C6  1B1 d   1       5.406   0.031 -20.351  0.00  0.00    -0.062 A 
ATOM      3  C7  1B1 d   1       5.632  -1.283 -20.685  0.00  0.00    -0.024 A 
ATOM      4  C8  1B1 d   1       6.329  -1.554 -21.844  0.00  0.00    -0.072 A 
ATOM      5  C9  1B1 d   1       6.790  -0.509 -22.623  0.00  0.00    -0.082 A 
ATOM      6  C10 1B1 d   1       6.563   0.803 -22.266  0.00  0.00    -0.072 A 
ATOM      7  H3  1B1 d   1       4.861   0.249 -19.440  0.00  0.00     0.085 H 
ATOM      8  H4  1B1 d   1       6.514  -2.580 -22.142  0.00  0.00     0.084 H 
ATOM      9  H5  1B1 d   1       7.340  -0.725 -23.532  0.00  0.00     0.083 H 
ATOM     10  H6  1B1 d   1       6.948   1.610 -22.878  0.00  0.00     0.084 H 
ENDROOT
BRANCH   1  11
ATOM     11  C1  1B1 d   1       5.584   2.487 -20.652  0.00  0.00     0.159 A 
ATOM     12  N1  1B1 d   1       4.179   2.801 -20.362  0.00  0.00    -0.343 N 
ATOM     13  C2  1B1 d   1       4.154   3.120 -19.108  0.00  0.00     0.121 A 
ATOM     14  H1  1B1 d   1       3.384   2.773 -21.016  0.00  0.00     0.164 HD
ATOM     15  C18 1B1 d   1       5.519   3.011 -18.525  0.00  0.00     0.071 A 
ATOM     16  N17 1B1 d   1       6.376   2.649 -19.406  0.00  0.00    -0.254 NA
BRANCH  13  17
ATOM     17  N3  1B1 d   1       3.064   3.489 -18.361  0.00  0.00    -0.384 N 
ATOM     18  H7  1B1 d   1       3.178   3.720 -17.364  0.00  0.00     0.157 HD
ATOM     19  H8  1B1 d   1       2.132   3.535 -18.797  0.00  0.00     0.157 HD
ENDBRANCH  13  17
BRANCH  15  20
ATOM     20  C11 1B1 d   1       5.858   3.272 -17.086  0.00  0.00    -0.032 C 
ATOM     21  H9  1B1 d   1       6.936   3.118 -16.930  0.00  0.00     0.035 H 
ATOM     22  H10 1B1 d   1       5.292   2.580 -16.445  0.00  0.00     0.035 H 
ATOM     23  H11 1B1 d   1       5.595   4.309 -16.829  0.00  0.00     0.035 H 
ENDBRANCH  15  20
BRANCH  11  24
ATOM     24  C4  1B1 d   1       6.127   3.466 -21.645  0.00  0.00    -0.005 A 
ATOM     25  C13 1B1 d   1       5.785   4.921 -21.463  0.00  0.00    -0.057 A 
ATOM     26  C12 1B1 d   1       5.247   4.157 -22.650  0.00  0.00    -0.057 A 
ATOM     27  H12 1B1 d   1       6.558   5.690 -21.608  0.00  0.00     0.033 H 
ATOM     28  H13 1B1 d   1       5.107   5.230 -20.654  0.00  0.00     0.033 H 
ATOM     29  H14 1B1 d   1       4.177   3.910 -22.706  0.00  0.00     0.033 H 
ATOM     30  H15 1B1 d   1       5.627   4.370 -23.660  0.00  0.00     0.033 H 
ATOM     31  H2  1B1 d   1       7.143   3.163 -21.939  0.00  0.00     0.047 H 
ENDBRANCH  11  24
ENDBRANCH   1  11
BRANCH   3  32
ATOM     32  C14 1B1 d   1       5.195  -2.349 -19.801  0.00  0.00    -0.007 A 
ATOM     33  C15 1B1 d   1       4.008  -2.327 -19.108  0.00  0.00    -0.051 A 
ATOM     34  C16 1B1 d   1       3.735  -3.395 -18.272  0.00  0.00     0.036 A 
ATOM     35  H16 1B1 d   1       3.311  -1.503 -19.213  0.00  0.00     0.087 H 
ATOM     36  C17 1B1 d   1       4.633  -4.431 -18.144  0.00  0.00     0.020 A 
ATOM     37  N5  1B1 d   1       5.793  -4.486 -18.800  0.00  0.00    -0.271 NA
ATOM     38  H17 1B1 d   1       4.384  -5.246 -17.474  0.00  0.00     0.117 H 
ATOM     39  C19 1B1 d   1       6.014  -3.441 -19.600  0.00  0.00     0.013 A 
ATOM     40  H18 1B1 d   1       6.944  -3.451 -20.156  0.00  0.00     0.116 H 
BRANCH  34  41
ATOM     41  C21 1B1 d   1       2.545  -3.433 -17.517  0.00  0.00    -0.066 C 
ATOM     42  C22 1B1 d   1       1.547  -3.470 -16.854  0.00  0.00    -0.105 C 
BRANCH  42  43
ATOM     43  C23 1B1 d   1       0.343  -3.517 -16.058  0.00  0.00    -0.021 C 
ATOM     44  H19 1B1 d   1       0.476  -2.904 -15.155  0.00  0.00     0.044 H 
ATOM     45  H20 1B1 d   1       0.136  -4.558 -15.767  0.00  0.00     0.044 H 
ATOM     46  H21 1B1 d   1      -0.501  -3.126 -16.646  0.00  0.00     0.044 H 
ENDBRANCH  42  43
ENDBRANCH  34  41
ENDBRANCH   3  32
TORSDOF 7
