REMARK  9 active torsions:
REMARK  status: ('A' for Active; 'I' for Inactive)
REMARK    1  A    between atoms: C1_1  and  C2_2 
REMARK    2  A    between atoms: C4_4  and  C11_11 
REMARK    3  A    between atoms: C6_6  and  C10_10 
REMARK    4  A    between atoms: C7_7  and  O8_8 
REMARK    5  A    between atoms: O8_8  and  C9_9 
REMARK    6  A    between atoms: C11_11  and  C18_18 
REMARK    7  A    between atoms: C13_13  and  C17_17 
REMARK    8  A    between atoms: C14_14  and  N16_16 
REMARK    9  A    between atoms: C22_22  and  C24_24 
ROOT
ATOM      1  C11 6TG d   1       5.451   2.586 -20.907  0.00  0.00     0.183 A 
ATOM      2  N12 6TG d   1       6.238   2.801 -19.668  0.00  0.00    -0.249 NA
ATOM      3  C13 6TG d   1       5.377   3.213 -18.803  0.00  0.00     0.071 A 
ATOM      4  C14 6TG d   1       4.010   3.274 -19.371  0.00  0.00     0.121 A 
ATOM      5  N15 6TG d   1       4.042   2.865 -20.591  0.00  0.00    -0.339 N 
ATOM      6  H12 6TG d   1       3.237   2.755 -21.224  0.00  0.00     0.164 HD
ENDROOT
BRANCH   1   7
ATOM      7  C4  6TG d   1       5.829   3.561 -22.008  0.00  0.00    -0.002 A 
ATOM      8  C3  6TG d   1       5.133   3.591 -23.210  0.00  0.00    -0.064 A 
ATOM      9  C2  6TG d   1       5.490   4.457 -24.221  0.00  0.00    -0.027 A 
ATOM     10  H4  6TG d   1       4.293   2.921 -23.355  0.00  0.00     0.085 H 
ATOM     11  C7  6TG d   1       6.545   5.344 -24.023  0.00  0.00     0.080 A 
ATOM     12  C6  6TG d   1       7.255   5.324 -22.834  0.00  0.00    -0.027 A 
ATOM     13  C5  6TG d   1       6.888   4.436 -21.840  0.00  0.00    -0.064 A 
ATOM     14  H5  6TG d   1       7.442   4.425 -20.908  0.00  0.00     0.085 H 
BRANCH   9  15
ATOM     15  C1  6TG d   1       4.711   4.382 -25.500  0.00  0.00    -0.049 C 
ATOM     16  H1  6TG d   1       3.934   3.608 -25.411  0.00  0.00     0.033 H 
ATOM     17  H2  6TG d   1       5.389   4.127 -26.328  0.00  0.00     0.033 H 
ATOM     18  H3  6TG d   1       4.239   5.355 -25.699  0.00  0.00     0.033 H 
ENDBRANCH   9  15
BRANCH  11  19
ATOM     19  O8  6TG d   1       6.933   6.218 -25.038  0.00  0.00    -0.355 OA
BRANCH  19  20
ATOM     20  C9  6TG d   1       6.143   7.424 -25.009  0.00  0.00     0.010 C 
ATOM     21  H6  6TG d   1       6.468   8.095 -25.818  0.00  0.00     0.066 H 
ATOM     22  H7  6TG d   1       6.277   7.927 -24.040  0.00  0.00     0.066 H 
ATOM     23  H8  6TG d   1       5.082   7.170 -25.148  0.00  0.00     0.066 H 
ENDBRANCH  19  20
ENDBRANCH  11  19
BRANCH  12  24
ATOM     24  C10 6TG d   1       8.409   6.226 -22.550  0.00  0.00    -0.049 C 
ATOM     25  H9  6TG d   1       8.800   6.016 -21.544  0.00  0.00     0.033 H 
ATOM     26  H10 6TG d   1       8.077   7.274 -22.603  0.00  0.00     0.033 H 
ATOM     27  H11 6TG d   1       9.201   6.054 -23.294  0.00  0.00     0.033 H 
ENDBRANCH  12  24
ENDBRANCH   1   7
BRANCH   1  28
ATOM     28  C18 6TG d   1       5.717   1.139 -21.276  0.00  0.00    -0.002 A 
ATOM     29  C19 6TG d   1       6.534   0.771 -22.342  0.00  0.00    -0.072 A 
ATOM     30  C20 6TG d   1       6.766  -0.569 -22.629  0.00  0.00    -0.082 A 
ATOM     31  H18 6TG d   1       6.994   1.538 -22.955  0.00  0.00     0.084 H 
ATOM     32  C21 6TG d   1       6.209  -1.559 -21.838  0.00  0.00    -0.072 A 
ATOM     33  H19 6TG d   1       7.386  -0.840 -23.476  0.00  0.00     0.083 H 
ATOM     34  C22 6TG d   1       5.422  -1.222 -20.749  0.00  0.00    -0.022 A 
ATOM     35  H20 6TG d   1       6.389  -2.602 -22.072  0.00  0.00     0.084 H 
ATOM     36  C23 6TG d   1       5.188   0.124 -20.488  0.00  0.00    -0.061 A 
ATOM     37  H21 6TG d   1       4.570   0.391 -19.638  0.00  0.00     0.085 H 
BRANCH  34  38
ATOM     38  C24 6TG d   1       4.868  -2.235 -19.859  0.00  0.00     0.009 A 
ATOM     39  C25 6TG d   1       3.581  -2.169 -19.363  0.00  0.00     0.015 A 
ATOM     40  N26 6TG d   1       3.081  -3.017 -18.455  0.00  0.00    -0.253 NA
ATOM     41  H22 6TG d   1       2.934  -1.381 -19.732  0.00  0.00     0.116 H 
ATOM     42  C27 6TG d   1       3.918  -3.996 -18.073  0.00  0.00     0.086 A 
ATOM     43  N28 6TG d   1       5.173  -4.212 -18.497  0.00  0.00    -0.253 NA
ATOM     44  H23 6TG d   1       3.535  -4.693 -17.336  0.00  0.00     0.146 H 
ATOM     45  C29 6TG d   1       5.618  -3.300 -19.379  0.00  0.00     0.015 A 
ATOM     46  H24 6TG d   1       6.635  -3.404 -19.741  0.00  0.00     0.116 H 
ENDBRANCH  34  38
ENDBRANCH   1  28
BRANCH   3  47
ATOM     47  C17 6TG d   1       5.650   3.490 -17.355  0.00  0.00    -0.032 C 
ATOM     48  H15 6TG d   1       4.725   3.829 -16.866  0.00  0.00     0.035 H 
ATOM     49  H16 6TG d   1       6.418   4.273 -17.270  0.00  0.00     0.035 H 
ATOM     50  H17 6TG d   1       6.008   2.571 -16.867  0.00  0.00     0.035 H 
ENDBRANCH   3  47
BRANCH   4  51
ATOM     51  N16 6TG d   1       2.936   3.668 -18.611  0.00  0.00    -0.384 N 
ATOM     52  H13 6TG d   1       3.078   3.972 -17.637  0.00  0.00     0.157 HD
ATOM     53  H14 6TG d   1       1.988   3.659 -19.015  0.00  0.00     0.157 HD
ENDBRANCH   4  51
TORSDOF 9
