REMARK  4 active torsions:
REMARK  status: ('A' for Active; 'I' for Inactive)
REMARK    1  A    between atoms: N_1  and  CA_2 
REMARK    2  A    between atoms: CA_2  and  C_3 
REMARK    3  A    between atoms: CA_2  and  CB_5 
REMARK    4  A    between atoms: CB_5  and  OG_6 
ROOT
ATOM      1  CA  SER d   1     -10.127  -4.358   0.841  0.00  0.00     0.202 C 
ATOM      2  H4  SER d   1      -9.913  -3.330   0.512  0.00  0.00     0.104 H 
ENDROOT
BRANCH   1   3
ATOM      3  N   SER d   1     -11.023  -4.289   2.028  0.00  0.00    -0.063 N 
ATOM      4  H1  SER d   1     -10.556  -3.797   2.774  0.00  0.00     0.275 HD
ATOM      5  H2  SER d   1     -11.250  -5.223   2.332  0.00  0.00     0.275 HD
ATOM      6  H3  SER d   1     -11.870  -3.800   1.782  0.00  0.00     0.275 HD
ENDBRANCH   1   3
BRANCH   1   7
ATOM      7  C   SER d   1     -10.809  -5.103  -0.318  0.00  0.00     0.206 C 
ATOM      8  O   SER d   1     -10.293  -4.967  -1.447  0.00  0.00    -0.646 OA
ATOM      9  OXT SER d   1     -11.820  -5.788  -0.067  0.00  0.00    -0.646 OA
ENDBRANCH   1   7
BRANCH   1  10
ATOM     10  CB  SER d   1      -8.809  -5.030   1.200  0.00  0.00     0.053 C 
ATOM     11  H5  SER d   1      -8.265  -4.392   1.913  0.00  0.00     0.077 H 
ATOM     12  H6  SER d   1      -8.210  -5.152   0.286  0.00  0.00     0.077 H 
BRANCH  10  13
ATOM     13  OG  SER d   1      -9.017  -6.307   1.789  0.00  0.00    -0.398 OA
ATOM     14  H7  SER d   1      -8.177  -6.698   2.000  0.00  0.00     0.209 HD
ENDBRANCH  10  13
ENDBRANCH   1  10
TORSDOF 4
