REMARK  5 active torsions:
REMARK  status: ('A' for Active; 'I' for Inactive)
REMARK    1  A    between atoms: CAD_4  and  CAC_3 
REMARK    2  A    between atoms: NAG_7  and  CAD_4 
REMARK    3  A    between atoms: CAL_12  and  NAM_13 
REMARK    4  A    between atoms: NAM_13  and  CAN_14 
REMARK    5  A    between atoms: CAN_14  and  CAR_18 
ROOT
ATOM      1  OAE NWL d   1      39.551   2.557  12.121  0.00  0.00    -0.246 OA
ATOM      2  CAF NWL d   1      38.554   2.469  11.401  0.00  0.00     0.330 A 
ATOM      3  NAG NWL d   1      38.198   3.526  10.552  0.00  0.00    -0.281 N 
ATOM      4  CAH NWL d   1      37.048   3.403   9.737  0.00  0.00     0.143 A 
ATOM      5  NAI NWL d   1      36.700   4.397   8.910  0.00  0.00    -0.285 NA
ATOM      6  NAJ NWL d   1      37.763   1.317  11.430  0.00  0.00    -0.277 N 
ATOM      7  CAK NWL d   1      36.630   1.189  10.630  0.00  0.00     0.264 A 
ATOM      8  CAL NWL d   1      36.274   2.236   9.783  0.00  0.00     0.234 A 
ATOM      9  OAQ NWL d   1      35.962   0.147  10.709  0.00  0.00    -0.270 OA
ATOM     10  H5  NWL d   1      35.880   4.307   8.331  0.00  0.00     0.188 HD
ATOM     11  H6  NWL d   1      38.017   0.566  12.040  0.00  0.00     0.173 HD
ATOM     12  H7  NWL d   1      35.650   2.670  10.578  0.00  0.00     0.112 H 
ENDROOT
BRANCH   3  13
ATOM     13  CAD NWL d   1      39.053   4.735  10.507  0.00  0.00     0.029 C 
ATOM     14  H3  NWL d   1      40.089   4.429  10.714  0.00  0.00     0.072 H 
ATOM     15  H4  NWL d   1      38.992   5.160   9.494  0.00  0.00     0.072 H 
BRANCH  13  16
ATOM     16  CAC NWL d   1      38.675   5.822  11.498  0.00  0.00    -0.040 A 
ATOM     17  CAB NWL d   1      39.011   7.139  11.184  0.00  0.00    -0.075 A 
ATOM     18  CAA NWL d   1      38.700   8.171  12.070  0.00  0.00    -0.082 A 
ATOM     19  H2  NWL d   1      39.515   7.361  10.250  0.00  0.00     0.084 H 
ATOM     20  CAS NWL d   1      38.051   7.891  13.267  0.00  0.00    -0.083 A 
ATOM     21  H1  NWL d   1      38.965   9.193  11.825  0.00  0.00     0.083 H 
ATOM     22  CAP NWL d   1      37.730   6.586  13.590  0.00  0.00    -0.082 A 
ATOM     23  H17 NWL d   1      37.797   8.696  13.947  0.00  0.00     0.083 H 
ATOM     24  CAQ NWL d   1      38.044   5.553  12.708  0.00  0.00    -0.075 A 
ATOM     25  H12 NWL d   1      37.234   6.366  14.529  0.00  0.00     0.083 H 
ATOM     26  H13 NWL d   1      37.794   4.531  12.968  0.00  0.00     0.084 H 
ENDBRANCH  13  16
ENDBRANCH   3  13
BRANCH   8  27
ATOM     27  NAM NWL d   1      35.207   2.138   8.986  0.00  0.00    -0.056 N 
ATOM     28  H8  NWL d   1      35.009   3.067   8.650  0.00  0.00     0.278 HD
ATOM     29  H9  NWL d   1      34.443   1.818   9.561  0.00  0.00     0.278 HD
BRANCH  27  30
ATOM     30  CAN NWL d   1      35.248   1.259   7.806  0.00  0.00     0.080 C 
ATOM     31  H10 NWL d   1      34.291   0.726   7.709  0.00  0.00     0.075 H 
ATOM     32  H11 NWL d   1      36.064   0.530   7.917  0.00  0.00     0.075 H 
BRANCH  30  33
ATOM     33  CAR NWL d   1      35.489   2.115   6.557  0.00  0.00    -0.053 C 
ATOM     34  H14 NWL d   1      35.521   1.467   5.669  0.00  0.00     0.029 H 
ATOM     35  H15 NWL d   1      36.446   2.648   6.657  0.00  0.00     0.029 H 
ATOM     36  H16 NWL d   1      34.673   2.844   6.449  0.00  0.00     0.029 H 
ENDBRANCH  30  33
ENDBRANCH  27  30
ENDBRANCH   8  27
TORSDOF 5
