REMARK  7 active torsions:
REMARK  status: ('A' for Active; 'I' for Inactive)
REMARK    1  A    between atoms: CAV_6  and  CAU_7 
REMARK    2  A    between atoms: CAU_7  and  NAN_8 
REMARK    3  A    between atoms: CAO_9  and  NAP_10 
REMARK    4  A    between atoms: CAF_16  and  NAG_17 
REMARK    5  A    between atoms: NAG_17  and  CAB_18 
REMARK    6  A    between atoms: NAG_17  and  SAH_19 
REMARK    7  A    between atoms: SAH_19  and  CAI_22 
ROOT
ATOM      1  NAN JWT d   1      38.109   3.472  10.146  0.00  0.00    -0.281 N 
ATOM      2  CAO JWT d   1      37.224   3.204   9.145  0.00  0.00     0.136 A 
ATOM      3  CAM JWT d   1      38.305   2.579  11.142  0.00  0.00     0.330 A 
ATOM      4  OAL JWT d   1      39.125   2.827  12.029  0.00  0.00    -0.246 OA
ATOM      5  NAD JWT d   1      37.575   1.376  11.180  0.00  0.00    -0.277 N 
ATOM      6  CAE JWT d   1      36.628   1.091  10.199  0.00  0.00     0.256 A 
ATOM      7  OAA JWT d   1      35.992   0.034  10.254  0.00  0.00    -0.270 OA
ATOM      8  CAF JWT d   1      36.455   2.028   9.171  0.00  0.00     0.155 A 
ATOM      9  H9  JWT d   1      37.738   0.721  11.918  0.00  0.00     0.173 HD
ATOM     10  H10 JWT d   1      35.659   2.541   9.731  0.00  0.00     0.101 H 
ENDROOT
BRANCH   8  11
ATOM     11  NAG JWT d   1      35.598   1.720   8.172  0.00  0.00    -0.290 N 
BRANCH  11  12
ATOM     12  CAB JWT d   1      36.082   0.718   7.199  0.00  0.00    -0.007 C 
ATOM     13  H11 JWT d   1      37.143   0.502   7.393  0.00  0.00     0.057 H 
ATOM     14  H12 JWT d   1      35.969   1.113   6.179  0.00  0.00     0.057 H 
ATOM     15  H13 JWT d   1      35.495  -0.206   7.302  0.00  0.00     0.057 H 
ENDBRANCH  11  12
BRANCH  11  16
ATOM     16  SAH JWT d   1      33.981   2.272   8.138  0.00  0.00     0.261 S 
ATOM     17  OAC JWT d   1      33.309   1.858   6.834  0.00  0.00    -0.200 OA
ATOM     18  OAQ JWT d   1      33.877   3.780   8.315  0.00  0.00    -0.200 OA
BRANCH  16  19
ATOM     19  CAI JWT d   1      33.205   1.486   9.516  0.00  0.00     0.079 A 
ATOM     20  CAJ JWT d   1      32.392   0.371   9.347  0.00  0.00    -0.058 A 
ATOM     21  CAK JWT d   1      31.798  -0.222  10.450  0.00  0.00    -0.044 A 
ATOM     22  H14 JWT d   1      32.223  -0.033   8.355  0.00  0.00     0.086 H 
ATOM     23  CAT JWT d   1      31.998   0.317  11.708  0.00  0.00     0.116 A 
ATOM     24  H15 JWT d   1      31.180  -1.104  10.327  0.00  0.00     0.088 H 
ATOM     25  CAS JWT d   1      32.814   1.421  11.881  0.00  0.00    -0.044 A 
ATOM     26  FAM JWT d   1      31.417  -0.252  12.802  0.00  0.00    -0.206 F 
ATOM     27  CAR JWT d   1      33.430   2.005  10.781  0.00  0.00    -0.058 A 
ATOM     28  H16 JWT d   1      32.972   1.829  12.873  0.00  0.00     0.088 H 
ATOM     29  H17 JWT d   1      34.082   2.861  10.912  0.00  0.00     0.086 H 
ENDBRANCH  16  19
ENDBRANCH  11  16
ENDBRANCH   8  11
BRANCH   2  30
ATOM     30  NAP JWT d   1      37.026   4.066   8.148  0.00  0.00    -0.285 NA
ATOM     31  H8  JWT d   1      36.367   3.849   7.417  0.00  0.00     0.188 HD
ENDBRANCH   2  30
BRANCH   1  32
ATOM     32  CAU JWT d   1      38.898   4.736  10.147  0.00  0.00     0.029 C 
ATOM     33  H6  JWT d   1      39.893   4.518  10.562  0.00  0.00     0.072 H 
ATOM     34  H7  JWT d   1      39.001   5.076   9.106  0.00  0.00     0.072 H 
BRANCH  32  35
ATOM     35  CAV JWT d   1      38.325   5.798  10.905  0.00  0.00    -0.040 A 
ATOM     36  CAY JWT d   1      37.782   6.930  10.269  0.00  0.00    -0.075 A 
ATOM     37  CAZ JWT d   1      37.237   7.997  11.012  0.00  0.00    -0.082 A 
ATOM     38  H1  JWT d   1      37.783   6.982   9.186  0.00  0.00     0.084 H 
ATOM     39  CBA JWT d   1      37.232   7.955  12.414  0.00  0.00    -0.083 A 
ATOM     40  H2  JWT d   1      36.819   8.855  10.497  0.00  0.00     0.083 H 
ATOM     41  CAX JWT d   1      37.777   6.844  13.055  0.00  0.00    -0.082 A 
ATOM     42  H3  JWT d   1      36.812   8.772  12.989  0.00  0.00     0.083 H 
ATOM     43  CAW JWT d   1      38.324   5.793  12.306  0.00  0.00    -0.075 A 
ATOM     44  H4  JWT d   1      37.778   6.792  14.138  0.00  0.00     0.083 H 
ATOM     45  H5  JWT d   1      38.760   4.949  12.828  0.00  0.00     0.084 H 
ENDBRANCH  32  35
ENDBRANCH   1  32
TORSDOF 7
