REMARK WARNING: 32 MAX_TORS EXCEEDED!!!
REMARK  46 active torsions:
REMARK  status: ('A' for Active; 'I' for Inactive)
REMARK    1  A    between atoms: CA_2  and  C_3 
REMARK       I    between atoms: C_3  and  N_8 
REMARK    2  A    between atoms: N_8  and  CA_9 
REMARK    3  A    between atoms: CA_9  and  C_10 
REMARK    4  A    between atoms: CA_9  and  CB_12 
REMARK       I    between atoms: C_10  and  N_15 
REMARK    5  A    between atoms: CB_12  and  CG1_13 
REMARK    6  A    between atoms: CB_12  and  CG2_14 
REMARK    7  A    between atoms: N_15  and  CA_16 
REMARK    8  A    between atoms: CA_16  and  C_17 
REMARK    9  A    between atoms: CA_16  and  CB_19 
REMARK       I    between atoms: C_17  and  N_23 
REMARK   10  A    between atoms: CB_19  and  CG_20 
REMARK   11  A    between atoms: CG_20  and  CD1_21 
REMARK   12  A    between atoms: CG_20  and  CD2_22 
REMARK   13  A    between atoms: N_23  and  CA_24 
REMARK   14  A    between atoms: CA_24  and  C_25 
REMARK   15  A    between atoms: CA_24  and  CB_27 
REMARK       I    between atoms: C_25  and  N_34 
REMARK   16  A    between atoms: CB_27  and  CG_28 
REMARK   17  A    between atoms: CA_35  and  C_36 
REMARK       I    between atoms: C_36  and  N_41 
REMARK   18  A    between atoms: N_41  and  CA_42 
REMARK   19  A    between atoms: CA_42  and  C_43 
REMARK       I    between atoms: C_43  and  N_45 
REMARK   20  A    between atoms: N_45  and  CA_46 
REMARK   21  A    between atoms: CA_46  and  C_47 
REMARK   22  A    between atoms: CA_46  and  CB_49 
REMARK       I    between atoms: C_47  and  N_54 
REMARK   23  A    between atoms: CB_49  and  CG_50 
REMARK   24  A    between atoms: CG_50  and  CD_51 
REMARK       I    between atoms: CD_51  and  NE2_53 
REMARK   25  A    between atoms: CA_55  and  C_56 
REMARK       I    between atoms: C_56  and  N_61 
REMARK   26  A    between atoms: N_61  and  CA_62 
REMARK   27  A    between atoms: CA_62  and  C_63 
REMARK   28  A    between atoms: CA_62  and  CB_65 
REMARK       I    between atoms: C_63  and  N_72 
REMARK   29  A    between atoms: CB_65  and  CG_66 
REMARK   30  A    between atoms: N_72  and  CA_73 
REMARK   31  A    between atoms: CA_73  and  C_74 
REMARK       I    between atoms: C_74  and  N_76 
REMARK   32  A    between atoms: N_76  and  CA_77 
REMARK   33  A    between atoms: CA_77  and  C_78 
REMARK   34  A    between atoms: CA_77  and  CB_80 
REMARK       I    between atoms: C_78  and  N_85 
REMARK   35  A    between atoms: CB_80  and  CG_81 
REMARK   36  A    between atoms: CG_81  and  CD_82 
REMARK       I    between atoms: CD_82  and  NE2_84 
REMARK   37  A    between atoms: CA_86  and  C_87 
REMARK       I    between atoms: C_87  and  N_92 
REMARK   38  A    between atoms: CA_93  and  C_94 
REMARK       I    between atoms: C_94  and  N_99 
REMARK   39  A    between atoms: N_99  and  CA_100 
REMARK   40  A    between atoms: CA_100  and  C_101 
REMARK   41  A    between atoms: CA_100  and  CB_103 
REMARK       I    between atoms: C_101  and  N_107 
REMARK   42  A    between atoms: CB_103  and  CG_104 
REMARK   43  A    between atoms: CG_104  and  CD1_105 
REMARK   44  A    between atoms: CG_104  and  CD2_106 
REMARK   45  A    between atoms: N_107  and  CA_108 
REMARK   46  A    between atoms: CA_108  and  C_109 
ROOT
ATOM      1  N   PRO d   1       0.307  -6.165  -9.012  0.00  0.00    -0.337 N 
ATOM      2  CA  PRO d   1       1.320  -5.183  -8.685  0.00  0.00     0.091 C 
ATOM      3  CB  PRO d   1       1.129  -4.970  -7.183  0.00  0.00    -0.036 C 
ATOM      4  CG  PRO d   1      -0.368  -5.172  -6.987  0.00  0.00    -0.048 C 
ATOM      5  CD  PRO d   1      -0.825  -6.122  -8.066  0.00  0.00    -0.001 C 
ATOM      6  H   PRO d   1       1.216  -4.277  -9.282  0.00  0.00     0.087 H 
ATOM      7  H   PRO d   1       1.466  -3.988  -6.853  0.00  0.00     0.036 H 
ATOM      8  H   PRO d   1       1.727  -5.656  -6.583  0.00  0.00     0.036 H 
ATOM      9  H   PRO d   1      -0.899  -4.223  -7.056  0.00  0.00     0.035 H 
ATOM     10  H   PRO d   1      -0.578  -5.579  -5.998  0.00  0.00     0.035 H 
ATOM     11  H   PRO d   1      -1.069  -7.108  -7.670  0.00  0.00     0.064 H 
ATOM     12  H   PRO d   1      -1.748  -5.791  -8.543  0.00  0.00     0.064 H 
ATOM     13  C   GLN d   1       0.281  -6.642 -10.266  0.00  0.00     0.243 C 
ATOM     14  O   GLN d   1       0.983  -6.180 -11.142  0.00  0.00    -0.271 OA
ENDROOT
BRANCH  13  15
ATOM     15  CA  GLN d   1      -0.760  -7.715 -10.619  0.00  0.00     0.090 C 
ATOM     16  H   GLN d   1      -1.369  -8.043  -9.777  0.00  0.00     0.087 H 
BRANCH  15  17
ATOM     17  N   GLN d   1      -1.481  -7.034 -11.689  0.00  0.00    -0.346 N 
ATOM     18  C   GLY d   1      -2.803  -6.916 -11.735  0.00  0.00     0.236 C 
ATOM     19  O   GLY d   1      -3.582  -7.739 -11.222  0.00  0.00    -0.272 OA
ATOM     20  H   GLN d   1      -0.937  -6.624 -12.448  0.00  0.00     0.163 HD
BRANCH  18  21
ATOM     21  CA  GLY d   1      -3.294  -5.754 -12.597  0.00  0.00     0.069 C 
ATOM     22  H   GLY d   1      -4.380  -5.801 -12.683  0.00  0.00     0.078 H 
ATOM     23  H   GLY d   1      -3.003  -4.811 -12.133  0.00  0.00     0.078 H 
BRANCH  21  24
ATOM     24  N   GLY d   1      -2.698  -5.843 -13.928  0.00  0.00    -0.351 N 
ATOM     25  C   PRO d   1      -2.988  -6.867 -14.730  0.00  0.00     0.241 C 
ATOM     26  O   PRO d   1      -3.890  -7.684 -14.489  0.00  0.00    -0.271 OA
ATOM     27  H   GLY d   1      -2.056  -5.117 -14.245  0.00  0.00     0.163 HD
BRANCH  25  28
ATOM     28  CA  PRO d   1      -2.135  -7.031 -15.978  0.00  0.00     0.091 C 
ATOM     29  N   PRO d   1      -1.544  -8.377 -16.020  0.00  0.00    -0.337 N 
ATOM     30  C   PHE d   1      -0.675  -8.705 -15.051  0.00  0.00     0.243 C 
ATOM     31  CD  PRO d   1      -1.896  -9.090 -17.266  0.00  0.00    -0.001 C 
ATOM     32  O   PHE d   1      -0.314  -7.896 -14.184  0.00  0.00    -0.271 OA
ATOM     33  CG  PRO d   1      -2.369  -7.989 -18.153  0.00  0.00    -0.048 C 
ATOM     34  H   PRO d   1      -2.647  -9.865 -17.114  0.00  0.00     0.064 H 
ATOM     35  H   PRO d   1      -1.059  -9.646 -17.688  0.00  0.00     0.064 H 
ATOM     36  CB  PRO d   1      -2.989  -6.980 -17.258  0.00  0.00    -0.036 C 
ATOM     37  H   PRO d   1      -1.545  -7.559 -18.722  0.00  0.00     0.035 H 
ATOM     38  H   PRO d   1      -3.084  -8.355 -18.890  0.00  0.00     0.035 H 
ATOM     39  H   PRO d   1      -2.999  -5.986 -17.705  0.00  0.00     0.036 H 
ATOM     40  H   PRO d   1      -4.039  -7.197 -17.060  0.00  0.00     0.036 H 
ATOM     41  H   PRO d   1      -1.397  -6.230 -15.938  0.00  0.00     0.087 H 
BRANCH  30  42
ATOM     42  CA  PHE d   1      -0.114 -10.130 -15.076  0.00  0.00     0.093 C 
ATOM     43  H   PHE d   1       0.001 -10.418 -16.121  0.00  0.00     0.088 H 
BRANCH  42  44
ATOM     44  N   PHE d   1       1.195 -10.197 -14.445  0.00  0.00    -0.346 N 
ATOM     45  C   LEU d   1       2.303  -9.829 -15.080  0.00  0.00     0.241 C 
ATOM     46  O   LEU d   1       2.317  -9.480 -16.266  0.00  0.00    -0.271 OA
ATOM     47  H   PHE d   1       1.265 -10.537 -13.486  0.00  0.00     0.163 HD
BRANCH  45  48
ATOM     48  CA  LEU d   1       3.582  -9.856 -14.213  0.00  0.00     0.089 C 
ATOM     49  H   LEU d   1       3.292 -10.181 -13.214  0.00  0.00     0.087 H 
BRANCH  48  50
ATOM     50  N   LEU d   1       4.575 -10.830 -14.664  0.00  0.00    -0.346 N 
ATOM     51  C   VAL d   1       5.053 -11.809 -13.894  0.00  0.00     0.241 C 
ATOM     52  O   VAL d   1       4.668 -12.020 -12.738  0.00  0.00    -0.271 OA
ATOM     53  H   LEU d   1       4.921 -10.757 -15.620  0.00  0.00     0.163 HD
BRANCH  51  54
ATOM     54  CA  VAL d   1       6.148 -12.684 -14.532  0.00  0.00     0.092 C 
ATOM     55  H   VAL d   1       6.266 -13.623 -13.991  0.00  0.00     0.088 H 
BRANCH  54  56
ATOM     56  N   VAL d   1       5.748 -13.004 -15.910  0.00  0.00    -0.346 N 
ATOM     57  C   PRO d   1       4.806 -13.907 -16.173  0.00  0.00     0.249 C 
ATOM     58  O   PRO d   1       4.240 -14.541 -15.293  0.00  0.00    -0.271 OA
ATOM     59  H   VAL d   1       6.204 -12.522 -16.684  0.00  0.00     0.163 HD
BRANCH  57  60
ATOM     60  CA  PRO d   1       4.419 -14.085 -17.640  0.00  0.00     0.178 C 
ATOM     61  N   PRO d   1       3.480 -15.194 -17.898  0.00  0.00    -0.062 N 
ATOM     62  CD  PRO d   1       2.164 -14.694 -18.354  0.00  0.00     0.083 C 
ATOM     63  H   PRO d   1       3.346 -15.713 -17.030  0.00  0.00     0.278 HD
ATOM     64  H   PRO d   1       3.872 -15.786 -18.630  0.00  0.00     0.278 HD
ATOM     65  CG  PRO d   1       2.209 -13.236 -17.947  0.00  0.00    -0.040 C 
ATOM     66  H   PRO d   1       1.326 -15.235 -17.914  0.00  0.00     0.075 H 
ATOM     67  H   PRO d   1       2.000 -14.835 -19.422  0.00  0.00     0.075 H 
ATOM     68  CB  PRO d   1       3.638 -12.841 -18.094  0.00  0.00    -0.028 C 
ATOM     69  H   PRO d   1       1.554 -12.623 -18.566  0.00  0.00     0.035 H 
ATOM     70  H   PRO d   1       1.851 -13.089 -16.928  0.00  0.00     0.035 H 
ATOM     71  H   PRO d   1       3.882 -12.551 -19.116  0.00  0.00     0.036 H 
ATOM     72  H   PRO d   1       3.885 -11.960 -17.502  0.00  0.00     0.036 H 
ATOM     73  H   PRO d   1       5.360 -14.269 -18.158  0.00  0.00     0.099 H 
ENDBRANCH  57  60
ENDBRANCH  54  56
BRANCH  54  74
ATOM     74  CB  VAL d   1       7.538 -11.936 -14.455  0.00  0.00    -0.033 C 
ATOM     75  H   VAL d   1       7.476 -11.092 -15.142  0.00  0.00     0.042 H 
BRANCH  74  76
ATOM     76  CG1 VAL d   1       7.802 -11.492 -13.040  0.00  0.00    -0.071 C 
ATOM     77  H   VAL d   1       7.010 -10.815 -12.719  0.00  0.00     0.028 H 
ATOM     78  H   VAL d   1       7.825 -12.363 -12.385  0.00  0.00     0.028 H 
ATOM     79  H   VAL d   1       8.762 -10.977 -12.995  0.00  0.00     0.028 H 
ENDBRANCH  74  76
BRANCH  74  80
ATOM     80  CG2 VAL d   1       8.682 -12.827 -14.849  0.00  0.00    -0.071 C 
ATOM     81  H   VAL d   1       8.720 -13.685 -14.178  0.00  0.00     0.028 H 
ATOM     82  H   VAL d   1       8.537 -13.171 -15.873  0.00  0.00     0.028 H 
ATOM     83  H   VAL d   1       9.616 -12.269 -14.780  0.00  0.00     0.028 H 
ENDBRANCH  74  80
ENDBRANCH  54  74
ENDBRANCH  51  54
ENDBRANCH  48  50
BRANCH  48  84
ATOM     84  CB  LEU d   1       4.181  -8.443 -14.158  0.00  0.00    -0.035 C 
ATOM     85  H   LEU d   1       3.365  -7.754 -13.940  0.00  0.00     0.037 H 
ATOM     86  H   LEU d   1       4.670  -8.261 -15.115  0.00  0.00     0.037 H 
BRANCH  84  87
ATOM     87  CG  LEU d   1       5.242  -8.257 -13.061  0.00  0.00    -0.059 C 
ATOM     88  H   LEU d   1       5.991  -9.039 -13.181  0.00  0.00     0.038 H 
BRANCH  87  89
ATOM     89  CD1 LEU d   1       5.840  -6.868 -13.227  0.00  0.00    -0.073 C 
ATOM     90  H   LEU d   1       6.296  -6.785 -14.214  0.00  0.00     0.028 H 
ATOM     91  H   LEU d   1       5.053  -6.120 -13.125  0.00  0.00     0.028 H 
ATOM     92  H   LEU d   1       6.598  -6.706 -12.461  0.00  0.00     0.028 H 
ENDBRANCH  87  89
BRANCH  87  93
ATOM     93  CD2 LEU d   1       4.691  -8.424 -11.632  0.00  0.00    -0.073 C 
ATOM     94  H   LEU d   1       3.909  -7.685 -11.457  0.00  0.00     0.028 H 
ATOM     95  H   LEU d   1       4.278  -9.426 -11.518  0.00  0.00     0.028 H 
ATOM     96  H   LEU d   1       5.498  -8.278 -10.914  0.00  0.00     0.028 H 
ENDBRANCH  87  93
ENDBRANCH  84  87
ENDBRANCH  48  84
ENDBRANCH  45  48
ENDBRANCH  42  44
BRANCH  42  97
ATOM     97  CB  PHE d   1      -1.089 -11.117 -14.398  0.00  0.00    -0.014 C 
ATOM     98  H   PHE d   1      -2.084 -10.926 -14.801  0.00  0.00     0.043 H 
ATOM     99  H   PHE d   1      -1.022 -10.959 -13.322  0.00  0.00     0.043 H 
BRANCH  97 100
ATOM    100  CG  PHE d   1      -0.757 -12.569 -14.669  0.00  0.00    -0.056 A 
ATOM    101  CD1 PHE d   1      -0.967 -13.116 -15.938  0.00  0.00    -0.077 A 
ATOM    102  CE1 PHE d   1      -0.652 -14.441 -16.203  0.00  0.00    -0.082 A 
ATOM    103  H   PHE d   1      -1.384 -12.493 -16.730  0.00  0.00     0.084 H 
ATOM    104  CZ  PHE d   1      -0.112 -15.245 -15.195  0.00  0.00    -0.083 A 
ATOM    105  H   PHE d   1      -0.826 -14.855 -17.196  0.00  0.00     0.083 H 
ATOM    106  CE2 PHE d   1       0.103 -14.713 -13.934  0.00  0.00    -0.082 A 
ATOM    107  H   PHE d   1       0.139 -16.286 -15.400  0.00  0.00     0.083 H 
ATOM    108  CD2 PHE d   1      -0.224 -13.381 -13.677  0.00  0.00    -0.077 A 
ATOM    109  H   PHE d   1       0.527 -15.334 -13.144  0.00  0.00     0.083 H 
ATOM    110  H   PHE d   1      -0.058 -12.971 -12.681  0.00  0.00     0.084 H 
ENDBRANCH  97 100
ENDBRANCH  42  97
ENDBRANCH  30  42
ENDBRANCH  25  28
ENDBRANCH  21  24
ENDBRANCH  18  21
ENDBRANCH  15  17
BRANCH  15 111
ATOM    111  CB  GLN d   1      -0.103  -8.991 -11.145  0.00  0.00    -0.030 C 
ATOM    112  H   GLN d   1       0.341  -8.730 -12.106  0.00  0.00     0.037 H 
ATOM    113  H   GLN d   1      -0.886  -9.749 -11.165  0.00  0.00     0.037 H 
BRANCH 111 114
ATOM    114  CG  GLN d   1       1.028  -9.569 -10.296  0.00  0.00     0.011 C 
ATOM    115  H   GLN d   1       0.609  -9.863  -9.334  0.00  0.00     0.047 H 
ATOM    116  H   GLN d   1       1.800  -8.805 -10.201  0.00  0.00     0.047 H 
BRANCH 114 117
ATOM    117  CD  GLN d   1       1.666 -10.807 -10.930  0.00  0.00     0.215 C 
ATOM    118  OE1 GLN d   1       1.310 -11.205 -12.056  0.00  0.00    -0.274 OA
ATOM    119  NE2 GLN d   1       2.609 -11.423 -10.219  0.00  0.00    -0.370 N 
ATOM    120  H   GLN d   1       3.069 -12.253 -10.593  0.00  0.00     0.159 HD
ATOM    121  H   GLN d   1       2.871 -11.065  -9.301  0.00  0.00     0.159 HD
ENDBRANCH 114 117
ENDBRANCH 111 114
ENDBRANCH  15 111
ENDBRANCH  13  15
BRANCH   2 122
ATOM    122  C   PRO d   1       2.727  -5.692  -8.961  0.00  0.00     0.241 C 
ATOM    123  O   PRO d   1       3.011  -6.906  -8.871  0.00  0.00    -0.271 OA
ATOM    124  N   PHE d   1       3.595  -4.742  -9.263  0.00  0.00    -0.346 N 
ATOM    125  H   PHE d   1       3.261  -3.795  -9.444  0.00  0.00     0.163 HD
BRANCH 124 126
ATOM    126  CA  PHE d   1       5.031  -5.029  -9.342  0.00  0.00     0.093 C 
ATOM    127  H   PHE d   1       5.254  -5.703 -10.169  0.00  0.00     0.088 H 
BRANCH 126 128
ATOM    128  C   PHE d   1       5.459  -5.722  -8.029  0.00  0.00     0.241 C 
ATOM    129  O   PHE d   1       5.051  -5.332  -6.941  0.00  0.00    -0.271 OA
ATOM    130  N   GLY d   1       6.190  -6.839  -8.127  0.00  0.00    -0.351 N 
ATOM    131  H   GLY d   1       6.415  -7.210  -9.050  0.00  0.00     0.163 HD
BRANCH 130 132
ATOM    132  CA  GLY d   1       6.669  -7.533  -6.943  0.00  0.00     0.069 C 
ATOM    133  H   GLY d   1       6.855  -6.772  -6.185  0.00  0.00     0.078 H 
ATOM    134  H   GLY d   1       7.547  -8.104  -7.245  0.00  0.00     0.078 H 
BRANCH 132 135
ATOM    135  C   GLY d   1       5.688  -8.522  -6.342  0.00  0.00     0.236 C 
ATOM    136  O   GLY d   1       6.068  -9.339  -5.532  0.00  0.00    -0.272 OA
ATOM    137  N   GLN d   1       4.430  -8.442  -6.734  0.00  0.00    -0.346 N 
ATOM    138  H   GLN d   1       4.159  -7.742  -7.425  0.00  0.00     0.163 HD
BRANCH 137 139
ATOM    139  CA  GLN d   1       3.410  -9.359  -6.180  0.00  0.00     0.090 C 
ATOM    140  H   GLN d   1       3.470  -9.307  -5.093  0.00  0.00     0.087 H 
BRANCH 139 141
ATOM    141  C   GLN d   1       3.662 -10.801  -6.608  0.00  0.00     0.243 C 
ATOM    142  O   GLN d   1       3.709 -11.082  -7.800  0.00  0.00    -0.271 OA
ATOM    143  N   PRO d   1       3.846 -11.716  -5.634  0.00  0.00    -0.337 N 
ATOM    144  CA  PRO d   1       3.957 -13.120  -6.044  0.00  0.00     0.092 C 
ATOM    145  CD  PRO d   1       4.127 -11.520  -4.197  0.00  0.00    -0.001 C 
ATOM    146  CB  PRO d   1       4.213 -13.880  -4.740  0.00  0.00    -0.036 C 
ATOM    147  H   PRO d   1       4.749 -13.287  -6.774  0.00  0.00     0.087 H 
ATOM    148  CG  PRO d   1       4.013 -12.908  -3.635  0.00  0.00    -0.048 C 
ATOM    149  H   PRO d   1       5.223 -14.289  -4.720  0.00  0.00     0.036 H 
ATOM    150  H   PRO d   1       3.532 -14.725  -4.642  0.00  0.00     0.036 H 
ATOM    151  H   PRO d   1       4.767 -13.061  -2.863  0.00  0.00     0.035 H 
ATOM    152  H   PRO d   1       3.029 -13.049  -3.188  0.00  0.00     0.035 H 
ATOM    153  H   PRO d   1       3.440 -10.817  -3.725  0.00  0.00     0.064 H 
ATOM    154  H   PRO d   1       5.104 -11.071  -4.016  0.00  0.00     0.064 H 
BRANCH 144 155
ATOM    155  C   PRO d   1       2.652 -13.582  -6.708  0.00  0.00     0.243 C 
ATOM    156  O   PRO d   1       1.563 -13.148  -6.300  0.00  0.00    -0.271 OA
ATOM    157  N   PRO d   1       2.755 -14.447  -7.736  0.00  0.00    -0.337 N 
ATOM    158  CA  PRO d   1       1.566 -14.827  -8.446  0.00  0.00     0.091 C 
ATOM    159  CD  PRO d   1       3.852 -15.368  -8.031  0.00  0.00    -0.001 C 
ATOM    160  CB  PRO d   1       2.104 -15.591  -9.650  0.00  0.00    -0.036 C 
ATOM    161  H   PRO d   1       0.961 -13.959  -8.706  0.00  0.00     0.087 H 
ATOM    162  CG  PRO d   1       3.540 -15.807  -9.433  0.00  0.00    -0.048 C 
ATOM    163  H   PRO d   1       1.939 -15.023 -10.566  0.00  0.00     0.036 H 
ATOM    164  H   PRO d   1       1.588 -16.545  -9.757  0.00  0.00     0.036 H 
ATOM    165  H   PRO d   1       4.126 -15.235 -10.152  0.00  0.00     0.035 H 
ATOM    166  H   PRO d   1       3.794 -16.858  -9.570  0.00  0.00     0.035 H 
ATOM    167  H   PRO d   1       3.913 -16.198  -7.327  0.00  0.00     0.064 H 
ATOM    168  H   PRO d   1       4.835 -14.906  -7.937  0.00  0.00     0.064 H 
BRANCH 158 169
ATOM    169  C   PRO d   1       0.637 -15.701  -7.630  0.00  0.00     0.241 C 
ATOM    170  O   PRO d   1       1.115 -16.453  -6.780  0.00  0.00    -0.271 OA
ATOM    171  N   LEU d   1      -0.678 -15.563  -7.852  0.00  0.00    -0.346 N 
ATOM    172  H   LEU d   1      -0.994 -14.877  -8.538  0.00  0.00     0.163 HD
BRANCH 171 173
ATOM    173  CA  LEU d   1      -1.669 -16.361  -7.145  0.00  0.00     0.089 C 
ATOM    174  H   LEU d   1      -1.366 -16.258  -6.103  0.00  0.00     0.087 H 
BRANCH 173 175
ATOM    175  C   LEU d   1      -1.661 -17.825  -7.531  0.00  0.00     0.240 C 
ATOM    176  O   LEU d   1      -2.083 -18.679  -6.745  0.00  0.00    -0.271 OA
ATOM    177  N   GLY d   1      -1.279 -18.141  -8.754  0.00  0.00    -0.349 N 
ATOM    178  H   GLY d   1      -1.276 -17.433  -9.488  0.00  0.00     0.163 HD
BRANCH 177 179
ATOM    179  CA  GLY d   1      -0.860 -19.508  -9.052  0.00  0.00     0.075 C 
ATOM    180  H   GLY d   1      -1.141 -19.737 -10.080  0.00  0.00     0.080 H 
ATOM    181  H   GLY d   1      -1.345 -20.178  -8.342  0.00  0.00     0.080 H 
BRANCH 179 182
ATOM    182  C   GLY d   1       0.658 -19.678  -8.917  0.00  0.00     0.191 C 
ATOM    183  O   GLY d   1       1.434 -19.478  -9.880  0.00  0.00    -0.647 OA
ATOM    184  H   GLY d   1       1.074 -19.981  -7.956  0.00  0.00    -0.647 OA
ENDBRANCH 179 182
ENDBRANCH 177 179
ENDBRANCH 173 175
BRANCH 173 185
ATOM    185  CB  LEU d   1      -3.093 -15.853  -7.324  0.00  0.00    -0.035 C 
ATOM    186  H   LEU d   1      -3.678 -16.750  -7.122  0.00  0.00     0.037 H 
ATOM    187  H   LEU d   1      -3.026 -15.332  -8.279  0.00  0.00     0.037 H 
BRANCH 185 188
ATOM    188  CG  LEU d   1      -3.790 -14.824  -6.455  0.00  0.00    -0.059 C 
ATOM    189  H   LEU d   1      -4.811 -15.156  -6.268  0.00  0.00     0.038 H 
BRANCH 188 190
ATOM    190  CD1 LEU d   1      -3.174 -14.700  -5.050  0.00  0.00    -0.073 C 
ATOM    191  H   LEU d   1      -3.239 -15.661  -4.540  0.00  0.00     0.028 H 
ATOM    192  H   LEU d   1      -2.129 -14.404  -5.138  0.00  0.00     0.028 H 
ATOM    193  H   LEU d   1      -3.720 -13.947  -4.481  0.00  0.00     0.028 H 
ENDBRANCH 188 190
BRANCH 188 194
ATOM    194  CD2 LEU d   1      -3.829 -13.494  -7.209  0.00  0.00    -0.073 C 
ATOM    195  H   LEU d   1      -2.811 -13.170  -7.425  0.00  0.00     0.028 H 
ATOM    196  H   LEU d   1      -4.376 -13.623  -8.143  0.00  0.00     0.028 H 
ATOM    197  H   LEU d   1      -4.328 -12.744  -6.595  0.00  0.00     0.028 H 
ENDBRANCH 188 194
ENDBRANCH 185 188
ENDBRANCH 173 185
ENDBRANCH 171 173
ENDBRANCH 158 169
ENDBRANCH 144 155
ENDBRANCH 139 141
BRANCH 139 198
ATOM    198  CB  GLN d   1       2.020  -8.932  -6.657  0.00  0.00    -0.030 C 
ATOM    199  H   GLN d   1       1.932  -9.223  -7.704  0.00  0.00     0.037 H 
ATOM    200  H   GLN d   1       1.935  -7.858  -6.489  0.00  0.00     0.037 H 
BRANCH 198 201
ATOM    201  CG  GLN d   1       0.878  -9.601  -5.903  0.00  0.00     0.011 C 
ATOM    202  H   GLN d   1       1.036  -9.429  -4.838  0.00  0.00     0.047 H 
ATOM    203  H   GLN d   1       0.879 -10.659  -6.167  0.00  0.00     0.047 H 
BRANCH 201 204
ATOM    204  CD  GLN d   1      -0.477  -9.036  -6.266  0.00  0.00     0.215 C 
ATOM    205  OE1 GLN d   1      -0.876  -8.008  -5.733  0.00  0.00    -0.274 OA
ATOM    206  NE2 GLN d   1      -1.204  -9.720  -7.162  0.00  0.00    -0.370 N 
ATOM    207  H   GLN d   1      -2.132  -9.388  -7.426  0.00  0.00     0.159 HD
ATOM    208  H   GLN d   1      -0.829 -10.572  -7.580  0.00  0.00     0.159 HD
ENDBRANCH 201 204
ENDBRANCH 198 201
ENDBRANCH 139 198
ENDBRANCH 137 139
ENDBRANCH 132 135
ENDBRANCH 130 132
ENDBRANCH 126 128
BRANCH 126 209
ATOM    209  CB  PHE d   1       5.812  -3.728  -9.617  0.00  0.00    -0.014 C 
ATOM    210  H   PHE d   1       6.864  -4.001  -9.708  0.00  0.00     0.043 H 
ATOM    211  H   PHE d   1       5.591  -3.044  -8.797  0.00  0.00     0.043 H 
BRANCH 209 212
ATOM    212  CG  PHE d   1       5.425  -3.021 -10.901  0.00  0.00    -0.056 A 
ATOM    213  CD1 PHE d   1       5.982  -3.398 -12.099  0.00  0.00    -0.077 A 
ATOM    214  CE1 PHE d   1       5.690  -2.714 -13.257  0.00  0.00    -0.082 A 
ATOM    215  H   PHE d   1       6.663  -4.248 -12.133  0.00  0.00     0.084 H 
ATOM    216  CZ  PHE d   1       4.781  -1.644 -13.240  0.00  0.00    -0.083 A 
ATOM    217  H   PHE d   1       6.167  -3.005 -14.193  0.00  0.00     0.083 H 
ATOM    218  CE2 PHE d   1       4.181  -1.287 -12.054  0.00  0.00    -0.082 A 
ATOM    219  H   PHE d   1       4.553  -1.101 -14.157  0.00  0.00     0.083 H 
ATOM    220  CD2 PHE d   1       4.524  -1.975 -10.886  0.00  0.00    -0.077 A 
ATOM    221  H   PHE d   1       3.449  -0.480 -12.026  0.00  0.00     0.083 H 
ATOM    222  H   PHE d   1       4.069  -1.678  -9.941  0.00  0.00     0.084 H 
ENDBRANCH 209 212
ENDBRANCH 126 209
ENDBRANCH 124 126
ENDBRANCH   2 122
TORSDOF 46
