REMARK  8 active torsions:
REMARK  status: ('A' for Active; 'I' for Inactive)
REMARK    1  A    between atoms: CAV_6  and  CAU_7 
REMARK    2  A    between atoms: CAU_7  and  NAN_8 
REMARK    3  A    between atoms: CAO_9  and  NAP_10 
REMARK    4  A    between atoms: CAF_16  and  NAG_17 
REMARK    5  A    between atoms: NAG_17  and  CAB_18 
REMARK    6  A    between atoms: NAG_17  and  SAH_19 
REMARK    7  A    between atoms: SAH_19  and  CAI_22 
REMARK    8  A    between atoms: CAS_26  and  CAL_28 
ROOT
ATOM      1  NAN BBE d   1      37.991   3.439  10.254  0.00  0.00    -0.281 N 
ATOM      2  CAO BBE d   1      37.101   3.163   9.256  0.00  0.00     0.136 A 
ATOM      3  CAM BBE d   1      38.198   2.517  11.226  0.00  0.00     0.330 A 
ATOM      4  OAL BBE d   1      39.038   2.712  12.107  0.00  0.00    -0.246 OA
ATOM      5  NAD BBE d   1      37.481   1.329  11.270  0.00  0.00    -0.277 N 
ATOM      6  CAE BBE d   1      36.509   1.049  10.322  0.00  0.00     0.256 A 
ATOM      7  OAA BBE d   1      35.896  -0.020  10.381  0.00  0.00    -0.270 OA
ATOM      8  CAF BBE d   1      36.319   1.982   9.295  0.00  0.00     0.155 A 
ATOM      9  H9  BBE d   1      37.668   0.666  11.995  0.00  0.00     0.173 HD
ATOM     10  H10 BBE d   1      35.535   2.502   9.864  0.00  0.00     0.101 H 
ENDROOT
BRANCH   8  11
ATOM     11  NAG BBE d   1      35.439   1.658   8.318  0.00  0.00    -0.290 N 
BRANCH  11  12
ATOM     12  CAB BBE d   1      35.914   0.669   7.330  0.00  0.00    -0.007 C 
ATOM     13  H11 BBE d   1      36.987   0.482   7.485  0.00  0.00     0.057 H 
ATOM     14  H12 BBE d   1      35.753   1.059   6.314  0.00  0.00     0.057 H 
ATOM     15  H13 BBE d   1      35.356  -0.271   7.455  0.00  0.00     0.057 H 
ENDBRANCH  11  12
BRANCH  11  16
ATOM     16  SAH BBE d   1      33.865   2.146   8.340  0.00  0.00     0.261 S 
ATOM     17  OAQ BBE d   1      33.823   3.677   8.375  0.00  0.00    -0.200 OA
ATOM     18  OAC BBE d   1      33.134   1.584   7.099  0.00  0.00    -0.200 OA
BRANCH  16  19
ATOM     19  CAI BBE d   1      33.145   1.446   9.848  0.00  0.00     0.080 A 
ATOM     20  CAJ BBE d   1      33.335   2.097  11.070  0.00  0.00    -0.060 A 
ATOM     21  CAK BBE d   1      32.772   1.544  12.223  0.00  0.00    -0.081 A 
ATOM     22  H14 BBE d   1      33.909   3.015  11.122  0.00  0.00     0.085 H 
ATOM     23  CAT BBE d   1      32.025   0.359  12.149  0.00  0.00    -0.077 A 
ATOM     24  H15 BBE d   1      32.913   2.033  13.180  0.00  0.00     0.083 H 
ATOM     25  CAS BBE d   1      31.843  -0.289  10.935  0.00  0.00    -0.060 A 
ATOM     26  H16 BBE d   1      31.585  -0.055  13.049  0.00  0.00     0.084 H 
ATOM     27  CAR BBE d   1      32.392   0.267   9.789  0.00  0.00    -0.055 A 
ATOM     28  H17 BBE d   1      32.236  -0.219   8.833  0.00  0.00     0.086 H 
BRANCH  25  29
ATOM     29  CAL BBE d   1      31.090  -1.493  10.859  0.00  0.00    -0.051 C 
ATOM     30  H18 BBE d   1      30.741  -1.772  11.864  0.00  0.00     0.033 H 
ATOM     31  H19 BBE d   1      31.723  -2.297  10.455  0.00  0.00     0.033 H 
ATOM     32  H20 BBE d   1      30.223  -1.342  10.199  0.00  0.00     0.033 H 
ENDBRANCH  25  29
ENDBRANCH  16  19
ENDBRANCH  11  16
ENDBRANCH   8  11
BRANCH   2  33
ATOM     33  NAP BBE d   1      36.861   4.018   8.266  0.00  0.00    -0.285 NA
ATOM     34  H8  BBE d   1      36.197   3.781   7.545  0.00  0.00     0.188 HD
ENDBRANCH   2  33
BRANCH   1  35
ATOM     35  CAU BBE d   1      38.835   4.640  10.257  0.00  0.00     0.029 C 
ATOM     36  H6  BBE d   1      39.831   4.361  10.631  0.00  0.00     0.072 H 
ATOM     37  H7  BBE d   1      38.920   5.004   9.223  0.00  0.00     0.072 H 
BRANCH  35  38
ATOM     38  CAV BBE d   1      38.343   5.688  11.054  0.00  0.00    -0.040 A 
ATOM     39  CAY BBE d   1      38.236   5.584  12.442  0.00  0.00    -0.075 A 
ATOM     40  CAZ BBE d   1      37.755   6.649  13.208  0.00  0.00    -0.082 A 
ATOM     41  H1  BBE d   1      38.530   4.663  12.933  0.00  0.00     0.084 H 
ATOM     42  CBA BBE d   1      37.383   7.841  12.612  0.00  0.00    -0.083 A 
ATOM     43  H2  BBE d   1      37.672   6.540  14.283  0.00  0.00     0.083 H 
ATOM     44  CAX BBE d   1      37.497   7.968  11.228  0.00  0.00    -0.082 A 
ATOM     45  H3  BBE d   1      37.009   8.663  13.211  0.00  0.00     0.083 H 
ATOM     46  CAW BBE d   1      37.983   6.903  10.449  0.00  0.00    -0.075 A 
ATOM     47  H4  BBE d   1      37.208   8.896  10.748  0.00  0.00     0.083 H 
ATOM     48  H5  BBE d   1      38.080   7.021   9.376  0.00  0.00     0.084 H 
ENDBRANCH  35  38
ENDBRANCH   1  35
TORSDOF 8
