REMARK WARNING: 32 MAX_TORS EXCEEDED!!!
REMARK  57 active torsions:
REMARK  status: ('A' for Active; 'I' for Inactive)
REMARK    1  A    between atoms: N_1  and  CA_2 
REMARK    2  A    between atoms: CA_2  and  C_3 
REMARK    3  A    between atoms: CA_2  and  CB_5 
REMARK       I    between atoms: C_3  and  N_10 
REMARK    4  A    between atoms: CB_5  and  CG_6 
REMARK    5  A    between atoms: CG_6  and  CD_7 
REMARK       I    between atoms: CD_7  and  NE2_9 
REMARK    6  A    between atoms: N_10  and  CA_11 
REMARK    7  A    between atoms: CA_11  and  C_12 
REMARK    8  A    between atoms: CA_11  and  CB_14 
REMARK       I    between atoms: C_12  and  N_19 
REMARK    9  A    between atoms: CB_14  and  CG_15 
REMARK   10  A    between atoms: CG_15  and  CD_16 
REMARK       I    between atoms: CD_16  and  NE2_18 
REMARK   11  A    between atoms: N_19  and  CA_20 
REMARK   12  A    between atoms: CA_20  and  C_21 
REMARK   13  A    between atoms: CA_20  and  CB_23 
REMARK       I    between atoms: C_21  and  N_29 
REMARK   14  A    between atoms: CB_23  and  CG_24 
REMARK   15  A    between atoms: N_29  and  CA_30 
REMARK   16  A    between atoms: CA_30  and  C_31 
REMARK   17  A    between atoms: CA_30  and  CB_33 
REMARK       I    between atoms: C_31  and  N_39 
REMARK   18  A    between atoms: CB_33  and  CG_34 
REMARK   19  A    between atoms: N_39  and  CA_40 
REMARK   20  A    between atoms: CA_40  and  C_41 
REMARK   21  A    between atoms: CA_40  and  CB_43 
REMARK       I    between atoms: C_41  and  N_47 
REMARK   22  A    between atoms: CB_43  and  CG_44 
REMARK   23  A    between atoms: CG_44  and  CD1_45 
REMARK   24  A    between atoms: CG_44  and  CD2_46 
REMARK   25  A    between atoms: N_47  and  CA_48 
REMARK   26  A    between atoms: CA_48  and  C_49 
REMARK       I    between atoms: C_49  and  N_51 
REMARK   27  A    between atoms: N_51  and  CA_52 
REMARK   28  A    between atoms: CA_52  and  C_53 
REMARK       I    between atoms: C_53  and  N_55 
REMARK   29  A    between atoms: N_55  and  CA_56 
REMARK   30  A    between atoms: CA_56  and  C_57 
REMARK   31  A    between atoms: CA_56  and  CB_59 
REMARK       I    between atoms: C_57  and  N_60 
REMARK   32  A    between atoms: N_60  and  CA_61 
REMARK   33  A    between atoms: CA_61  and  C_62 
REMARK   34  A    between atoms: CA_61  and  CB_64 
REMARK       I    between atoms: C_62  and  N_69 
REMARK   35  A    between atoms: CB_64  and  CG_65 
REMARK   36  A    between atoms: CG_65  and  CD_66 
REMARK   37  A    between atoms: CD_66  and  CE_67 
REMARK   38  A    between atoms: CE_67  and  NZ_68 
REMARK   39  A    between atoms: N_69  and  CA_70 
REMARK   40  A    between atoms: CA_70  and  C_71 
REMARK   41  A    between atoms: CA_70  and  CB_73 
REMARK       I    between atoms: C_71  and  N_78 
REMARK   42  A    between atoms: CB_73  and  CG_74 
REMARK   43  A    between atoms: CG_74  and  CD_75 
REMARK       I    between atoms: CD_75  and  NE2_77 
REMARK   44  A    between atoms: N_78  and  CA_79 
REMARK   45  A    between atoms: CA_79  and  C_80 
REMARK   46  A    between atoms: CA_79  and  CB_82 
REMARK       I    between atoms: C_80  and  N_83 
REMARK   47  A    between atoms: N_83  and  CA_84 
REMARK   48  A    between atoms: CA_84  and  C_85 
REMARK       I    between atoms: C_85  and  N_87 
REMARK   49  A    between atoms: N_87  and  CA_88 
REMARK   50  A    between atoms: CA_88  and  C_89 
REMARK   51  A    between atoms: CA_88  and  CB_91 
REMARK       I    between atoms: C_89  and  N_95 
REMARK   52  A    between atoms: CB_91  and  CG_92 
REMARK   53  A    between atoms: N_95  and  CA_96 
REMARK   54  A    between atoms: CA_96  and  C_97 
REMARK   55  A    between atoms: CA_96  and  CB_99 
REMARK   56  A    between atoms: CB_99  and  CG1_100 
REMARK   57  A    between atoms: CB_99  and  CG2_101 
ROOT
ATOM      1  CA  GLY d   1      -3.772   1.626 -20.937  0.00  0.00     0.069 C 
ATOM      2  H48 GLY d   1      -2.886   2.206 -21.234  0.00  0.00     0.078 H 
ATOM      3  H49 GLY d   1      -3.525   0.554 -20.934  0.00  0.00     0.078 H 
ENDROOT
BRANCH   1   4
ATOM      4  N   GLY d   1      -4.817   1.851 -21.925  0.00  0.00    -0.351 N 
ATOM      5  C   GLY d   1      -4.627   1.405 -23.155  0.00  0.00     0.235 C 
ATOM      6  O   GLY d   1      -3.558   0.942 -23.525  0.00  0.00    -0.272 OA
ATOM      7  H47 GLY d   1      -5.659   2.332 -21.679  0.00  0.00     0.163 HD
BRANCH   5   8
ATOM      8  CA  GLY d   1      -5.806   1.479 -24.107  0.00  0.00     0.069 C 
ATOM      9  H45 GLY d   1      -6.646   0.906 -23.687  0.00  0.00     0.078 H 
ATOM     10  H46 GLY d   1      -6.105   2.530 -24.231  0.00  0.00     0.078 H 
BRANCH   8  11
ATOM     11  N   GLY d   1      -5.454   0.929 -25.399  0.00  0.00    -0.351 N 
ATOM     12  C   LEU d   1      -6.093   1.322 -26.510  0.00  0.00     0.240 C 
ATOM     13  O   LEU d   1      -7.092   2.091 -26.493  0.00  0.00    -0.271 OA
ATOM     14  H44 GLY d   1      -4.725   0.247 -25.463  0.00  0.00     0.163 HD
BRANCH  12  15
ATOM     15  CA  LEU d   1      -5.546   0.780 -27.816  0.00  0.00     0.089 C 
ATOM     16  H34 LEU d   1      -4.878  -0.073 -27.628  0.00  0.00     0.087 H 
BRANCH  15  17
ATOM     17  N   LEU d   1      -6.672   0.364 -28.625  0.00  0.00    -0.346 N 
ATOM     18  C   HIS d   1      -6.731  -0.765 -29.324  0.00  0.00     0.241 C 
ATOM     19  O   HIS d   1      -5.887  -1.656 -29.250  0.00  0.00    -0.271 OA
ATOM     20  H33 LEU d   1      -7.465   0.972 -28.661  0.00  0.00     0.163 HD
BRANCH  18  21
ATOM     21  CA  HIS d   1      -7.927  -0.912 -30.281  0.00  0.00     0.094 C 
ATOM     22  H27 HIS d   1      -8.279   0.095 -30.549  0.00  0.00     0.088 H 
BRANCH  21  23
ATOM     23  N   HIS d   1      -7.499  -1.598 -31.515  0.00  0.00    -0.346 N 
ATOM     24  C   HIS d   1      -7.623  -1.068 -32.729  0.00  0.00     0.241 C 
ATOM     25  O   HIS d   1      -8.137   0.058 -32.924  0.00  0.00    -0.271 OA
ATOM     26  H26 HIS d   1      -7.095  -2.509 -31.435  0.00  0.00     0.163 HD
BRANCH  24  27
ATOM     27  CA  HIS d   1      -7.087  -1.916 -33.906  0.00  0.00     0.094 C 
ATOM     28  H20 HIS d   1      -6.755  -2.884 -33.503  0.00  0.00     0.088 H 
BRANCH  27  29
ATOM     29  N   HIS d   1      -8.130  -2.177 -34.909  0.00  0.00    -0.346 N 
ATOM     30  C   GLN d   1      -8.362  -3.395 -35.411  0.00  0.00     0.241 C 
ATOM     31  O   GLN d   1      -7.715  -4.386 -35.082  0.00  0.00    -0.271 OA
ATOM     32  H19 HIS d   1      -8.689  -1.412 -35.229  0.00  0.00     0.163 HD
BRANCH  30  33
ATOM     33  CA  GLN d   1      -9.480  -3.537 -36.479  0.00  0.00     0.090 C 
ATOM     34  H12 GLN d   1     -10.035  -4.453 -36.229  0.00  0.00     0.087 H 
BRANCH  33  35
ATOM     35  N   GLN d   1     -10.483  -2.441 -36.505  0.00  0.00    -0.346 N 
ATOM     36  C   GLN d   1     -11.682  -2.595 -35.921  0.00  0.00     0.249 C 
ATOM     37  O   GLN d   1     -12.036  -3.660 -35.416  0.00  0.00    -0.271 OA
ATOM     38  H11 GLN d   1     -10.263  -1.579 -36.962  0.00  0.00     0.163 HD
BRANCH  36  39
ATOM     39  CA  GLN d   1     -12.672  -1.419 -35.888  0.00  0.00     0.176 C 
ATOM     40  H4  GLN d   1     -13.439  -1.697 -35.151  0.00  0.00     0.099 H 
BRANCH  39  41
ATOM     41  N   GLN d   1     -12.109  -0.123 -35.404  0.00  0.00    -0.066 N 
ATOM     42  H1  GLN d   1     -12.829   0.582 -35.418  0.00  0.00     0.275 HD
ATOM     43  H2  GLN d   1     -11.350   0.159 -36.005  0.00  0.00     0.275 HD
ATOM     44  H3  GLN d   1     -11.768  -0.236 -34.462  0.00  0.00     0.275 HD
ENDBRANCH  39  41
BRANCH  39  45
ATOM     45  CB  GLN d   1     -13.401  -1.278 -37.235  0.00  0.00    -0.022 C 
ATOM     46  H5  GLN d   1     -12.816  -0.600 -37.873  0.00  0.00     0.037 H 
ATOM     47  H6  GLN d   1     -14.392  -0.840 -37.046  0.00  0.00     0.037 H 
BRANCH  45  48
ATOM     48  CG  GLN d   1     -13.595  -2.585 -37.983  0.00  0.00     0.011 C 
ATOM     49  H7  GLN d   1     -13.712  -3.391 -37.243  0.00  0.00     0.047 H 
ATOM     50  H8  GLN d   1     -12.696  -2.771 -38.589  0.00  0.00     0.047 H 
BRANCH  48  51
ATOM     51  CD  GLN d   1     -14.793  -2.607 -38.897  0.00  0.00     0.215 C 
ATOM     52  OE1 GLN d   1     -15.630  -1.674 -38.948  0.00  0.00    -0.274 OA
ATOM     53  NE2 GLN d   1     -14.884  -3.680 -39.652  0.00  0.00    -0.370 N 
ATOM     54  H9  GLN d   1     -15.648  -3.780 -40.289  0.00  0.00     0.159 HD
ATOM     55  H10 GLN d   1     -14.189  -4.396 -39.589  0.00  0.00     0.159 HD
ENDBRANCH  48  51
ENDBRANCH  45  48
ENDBRANCH  39  45
ENDBRANCH  36  39
ENDBRANCH  33  35
BRANCH  33  56
ATOM     56  CB  GLN d   1      -8.846  -3.751 -37.873  0.00  0.00    -0.030 C 
ATOM     57  H13 GLN d   1      -7.836  -4.163 -37.730  0.00  0.00     0.037 H 
ATOM     58  H14 GLN d   1      -8.776  -2.773 -38.371  0.00  0.00     0.037 H 
BRANCH  56  59
ATOM     59  CG  GLN d   1      -9.621  -4.697 -38.790  0.00  0.00     0.011 C 
ATOM     60  H15 GLN d   1     -10.670  -4.367 -38.830  0.00  0.00     0.047 H 
ATOM     61  H16 GLN d   1      -9.572  -5.712 -38.370  0.00  0.00     0.047 H 
BRANCH  59  62
ATOM     62  CD  GLN d   1      -9.068  -4.731 -40.209  0.00  0.00     0.215 C 
ATOM     63  OE1 GLN d   1      -9.280  -3.804 -41.010  0.00  0.00    -0.274 OA
ATOM     64  NE2 GLN d   1      -8.375  -5.804 -40.537  0.00  0.00    -0.370 N 
ATOM     65  H17 GLN d   1      -7.985  -5.886 -41.454  0.00  0.00     0.159 HD
ATOM     66  H18 GLN d   1      -8.239  -6.535 -39.868  0.00  0.00     0.159 HD
ENDBRANCH  59  62
ENDBRANCH  56  59
ENDBRANCH  33  56
ENDBRANCH  30  33
ENDBRANCH  27  29
BRANCH  27  67
ATOM     67  CB  HIS d   1      -5.878  -1.227 -34.557  0.00  0.00     0.004 C 
ATOM     68  H21 HIS d   1      -5.017  -1.328 -33.880  0.00  0.00     0.046 H 
ATOM     69  H22 HIS d   1      -6.117  -0.162 -34.689  0.00  0.00     0.046 H 
BRANCH  67  70
ATOM     70  CG  HIS d   1      -5.495  -1.793 -35.894  0.00  0.00     0.053 A 
ATOM     71  ND1 HIS d   1      -4.678  -2.897 -36.035  0.00  0.00    -0.247 NA
ATOM     72  CE1 HIS d   1      -4.527  -3.175 -37.319  0.00  0.00     0.064 A 
ATOM     73  NE2 HIS d   1      -5.209  -2.287 -38.024  0.00  0.00    -0.359 N 
ATOM     74  H24 HIS d   1      -3.940  -3.997 -37.727  0.00  0.00     0.143 H 
ATOM     75  CD2 HIS d   1      -5.826  -1.411 -37.157  0.00  0.00     0.002 A 
ATOM     76  H25 HIS d   1      -5.269  -2.256 -39.052  0.00  0.00     0.166 HD
ATOM     77  H23 HIS d   1      -6.460  -0.570 -37.432  0.00  0.00     0.114 H 
ENDBRANCH  67  70
ENDBRANCH  27  67
ENDBRANCH  24  27
ENDBRANCH  21  23
BRANCH  21  78
ATOM     78  CB  HIS d   1      -9.099  -1.664 -29.608  0.00  0.00     0.004 C 
ATOM     79  H28 HIS d   1      -9.412  -1.100 -28.717  0.00  0.00     0.046 H 
ATOM     80  H29 HIS d   1      -8.748  -2.662 -29.305  0.00  0.00     0.046 H 
BRANCH  78  81
ATOM     81  CG  HIS d   1     -10.289  -1.829 -30.514  0.00  0.00     0.053 A 
ATOM     82  ND1 HIS d   1     -11.225  -0.834 -30.712  0.00  0.00    -0.247 NA
ATOM     83  CE1 HIS d   1     -12.127  -1.246 -31.589  0.00  0.00     0.064 A 
ATOM     84  NE2 HIS d   1     -11.793  -2.463 -31.981  0.00  0.00    -0.359 N 
ATOM     85  H31 HIS d   1     -12.993  -0.680 -31.928  0.00  0.00     0.143 H 
ATOM     86  CD2 HIS d   1     -10.653  -2.850 -31.318  0.00  0.00     0.002 A 
ATOM     87  H32 HIS d   1     -12.305  -3.030 -32.672  0.00  0.00     0.166 HD
ATOM     88  H30 HIS d   1     -10.139  -3.804 -31.422  0.00  0.00     0.114 H 
ENDBRANCH  78  81
ENDBRANCH  21  78
ENDBRANCH  18  21
ENDBRANCH  15  17
BRANCH  15  89
ATOM     89  CB  LEU d   1      -4.772   1.907 -28.535  0.00  0.00    -0.035 C 
ATOM     90  H35 LEU d   1      -5.498   2.594 -28.994  0.00  0.00     0.037 H 
ATOM     91  H36 LEU d   1      -4.145   1.458 -29.319  0.00  0.00     0.037 H 
BRANCH  89  92
ATOM     92  CG  LEU d   1      -3.875   2.705 -27.590  0.00  0.00    -0.059 C 
ATOM     93  H37 LEU d   1      -4.460   2.881 -26.675  0.00  0.00     0.038 H 
BRANCH  92  94
ATOM     94  CD1 LEU d   1      -2.642   1.927 -27.187  0.00  0.00    -0.073 C 
ATOM     95  H38 LEU d   1      -2.028   2.538 -26.509  0.00  0.00     0.028 H 
ATOM     96  H39 LEU d   1      -2.058   1.675 -28.084  0.00  0.00     0.028 H 
ATOM     97  H40 LEU d   1      -2.944   1.002 -26.674  0.00  0.00     0.028 H 
ENDBRANCH  92  94
BRANCH  92  98
ATOM     98  CD2 LEU d   1      -3.489   4.074 -28.140  0.00  0.00    -0.073 C 
ATOM     99  H41 LEU d   1      -4.398   4.623 -28.427  0.00  0.00     0.028 H 
ATOM    100  H42 LEU d   1      -2.844   3.946 -29.022  0.00  0.00     0.028 H 
ATOM    101  H43 LEU d   1      -2.947   4.640 -27.368  0.00  0.00     0.028 H 
ENDBRANCH  92  98
ENDBRANCH  89  92
ENDBRANCH  15  89
ENDBRANCH  12  15
ENDBRANCH   8  11
ENDBRANCH   5   8
ENDBRANCH   1   4
BRANCH   1 102
ATOM    102  C   GLY d   1      -4.149   2.026 -19.540  0.00  0.00     0.236 C 
ATOM    103  O   GLY d   1      -5.251   2.507 -19.311  0.00  0.00    -0.272 OA
ATOM    104  N   ALA d   1      -3.212   1.817 -18.612  0.00  0.00    -0.347 N 
ATOM    105  H50 ALA d   1      -2.314   1.484 -18.901  0.00  0.00     0.163 HD
BRANCH 104 106
ATOM    106  CA  ALA d   1      -3.446   2.054 -17.212  0.00  0.00     0.086 C 
ATOM    107  H51 ALA d   1      -4.228   2.815 -17.070  0.00  0.00     0.086 H 
BRANCH 106 108
ATOM    108  C   ALA d   1      -2.141   2.514 -16.609  0.00  0.00     0.240 C 
ATOM    109  O   ALA d   1      -1.086   2.375 -17.244  0.00  0.00    -0.271 OA
ATOM    110  N   LYS d   1      -2.224   3.063 -15.401  0.00  0.00    -0.346 N 
ATOM    111  H55 LYS d   1      -3.135   3.256 -15.038  0.00  0.00     0.163 HD
BRANCH 110 112
ATOM    112  CA  LYS d   1      -1.089   3.399 -14.581  0.00  0.00     0.089 C 
ATOM    113  H56 LYS d   1      -0.175   2.983 -15.030  0.00  0.00     0.087 H 
BRANCH 112 114
ATOM    114  C   LYS d   1      -1.262   2.857 -13.163  0.00  0.00     0.241 C 
ATOM    115  O   LYS d   1      -2.326   2.991 -12.601  0.00  0.00    -0.271 OA
ATOM    116  N   GLN d   1      -0.217   2.244 -12.609  0.00  0.00    -0.346 N 
ATOM    117  H68 GLN d   1       0.617   2.137 -13.151  0.00  0.00     0.163 HD
BRANCH 116 118
ATOM    118  CA  GLN d   1      -0.236   1.716 -11.231  0.00  0.00     0.090 C 
ATOM    119  H69 GLN d   1      -1.279   1.572 -10.912  0.00  0.00     0.087 H 
BRANCH 118 120
ATOM    120  C   GLN d   1       0.439   2.787 -10.321  0.00  0.00     0.241 C 
ATOM    121  O   GLN d   1       1.388   3.463 -10.737  0.00  0.00    -0.271 OA
ATOM    122  N   ALA d   1      -0.080   2.945  -9.107  0.00  0.00    -0.346 N 
ATOM    123  H76 ALA d   1      -0.894   2.418  -8.861  0.00  0.00     0.163 HD
BRANCH 122 124
ATOM    124  CA  ALA d   1       0.491   3.859  -8.115  0.00  0.00     0.086 C 
ATOM    125  H77 ALA d   1       1.030   4.660  -8.643  0.00  0.00     0.086 H 
BRANCH 124 126
ATOM    126  C   ALA d   1       1.473   3.125  -7.207  0.00  0.00     0.240 C 
ATOM    127  O   ALA d   1       1.296   1.923  -6.877  0.00  0.00    -0.271 OA
ATOM    128  N   GLY d   1       2.507   3.833  -6.767  0.00  0.00    -0.351 N 
ATOM    129  H81 GLY d   1       2.710   4.718  -7.186  0.00  0.00     0.163 HD
BRANCH 128 130
ATOM    130  CA  GLY d   1       3.350   3.346  -5.687  0.00  0.00     0.069 C 
ATOM    131  H82 GLY d   1       3.993   2.540  -6.071  0.00  0.00     0.078 H 
ATOM    132  H83 GLY d   1       2.710   2.954  -4.883  0.00  0.00     0.078 H 
BRANCH 130 133
ATOM    133  C   GLY d   1       4.224   4.447  -5.127  0.00  0.00     0.236 C 
ATOM    134  O   GLY d   1       4.168   5.573  -5.569  0.00  0.00    -0.272 OA
ATOM    135  N   ASP d   1       4.993   4.113  -4.106  0.00  0.00    -0.346 N 
ATOM    136  H84 ASP d   1       5.034   3.155  -3.824  0.00  0.00     0.163 HD
BRANCH 135 137
ATOM    137  CA  ASP d   1       5.779   5.091  -3.383  0.00  0.00     0.098 C 
ATOM    138  H85 ASP d   1       5.225   6.037  -3.294  0.00  0.00     0.088 H 
BRANCH 137 139
ATOM    139  C   ASP d   1       7.079   5.316  -4.144  0.00  0.00     0.241 C 
ATOM    140  O   ASP d   1       7.673   4.349  -4.626  0.00  0.00    -0.271 OA
ATOM    141  N   VAL d   1       7.471   6.584  -4.269  0.00  0.00    -0.344 N 
ATOM    142  H88 VAL d   1       6.822   7.292  -3.990  0.00  0.00     0.163 HD
BRANCH 141 143
ATOM    143  CA  VAL d   1       8.780   7.036  -4.783  0.00  0.00     0.099 C 
ATOM    144  H89 VAL d   1       8.998   7.918  -4.163  0.00  0.00     0.090 H 
BRANCH 143 145
ATOM    145  C   VAL d   1       8.841   7.593  -6.194  0.00  0.00     0.197 C 
ATOM    146  O   VAL d   1       9.617   8.556  -6.435  0.00  0.00    -0.646 OA
ATOM    147  O   VAL d   1       8.128   7.100  -7.109  0.00  0.00    -0.646 OA
ENDBRANCH 143 145
BRANCH 143 148
ATOM    148  CB  VAL d   1       9.936   6.050  -4.445  0.00  0.00    -0.032 C 
ATOM    149  H90 VAL d   1       9.618   5.026  -4.690  0.00  0.00     0.042 H 
BRANCH 148 150
ATOM    150  CG1 VAL d   1      11.188   6.348  -5.213  0.00  0.00    -0.071 C 
ATOM    151  H91 VAL d   1      11.969   5.624  -4.937  0.00  0.00     0.028 H 
ATOM    152  H92 VAL d   1      11.531   7.366  -4.975  0.00  0.00     0.028 H 
ATOM    153  H93 VAL d   1      10.983   6.273  -6.291  0.00  0.00     0.028 H 
ENDBRANCH 148 150
BRANCH 148 154
ATOM    154  CG2 VAL d   1      10.177   6.157  -2.956  0.00  0.00    -0.071 C 
ATOM    155  H94 VAL d   1       9.245   5.934  -2.417  0.00  0.00     0.028 H 
ATOM    156  H95 VAL d   1      10.508   7.177  -2.710  0.00  0.00     0.028 H 
ATOM    157  H96 VAL d   1      10.954   5.438  -2.658  0.00  0.00     0.028 H 
ENDBRANCH 148 154
ENDBRANCH 143 148
ENDBRANCH 141 143
ENDBRANCH 137 139
BRANCH 137 158
ATOM    158  CB  ASP d   1       6.082   4.530  -1.998  0.00  0.00     0.043 C 
ATOM    159  H86 ASP d   1       6.575   3.554  -2.117  0.00  0.00     0.052 H 
ATOM    160  H87 ASP d   1       5.132   4.398  -1.460  0.00  0.00     0.052 H 
BRANCH 158 161
ATOM    161  CG  ASP d   1       6.985   5.428  -1.168  0.00  0.00     0.175 C 
ATOM    162  OD1 ASP d   1       6.859   6.669  -1.165  0.00  0.00    -0.648 OA
ATOM    163  OD2 ASP d   1       7.852   4.882  -0.478  0.00  0.00    -0.648 OA
ENDBRANCH 158 161
ENDBRANCH 137 158
ENDBRANCH 135 137
ENDBRANCH 130 133
ENDBRANCH 128 130
ENDBRANCH 124 126
BRANCH 124 164
ATOM    164  CB  ALA d   1      -0.625   4.484  -7.278  0.00  0.00    -0.049 C 
ATOM    165  H78 ALA d   1      -0.188   5.168  -6.536  0.00  0.00     0.030 H 
ATOM    166  H79 ALA d   1      -1.183   3.690  -6.760  0.00  0.00     0.030 H 
ATOM    167  H80 ALA d   1      -1.307   5.043  -7.935  0.00  0.00     0.030 H 
ENDBRANCH 124 164
ENDBRANCH 122 124
ENDBRANCH 118 120
BRANCH 118 168
ATOM    168  CB  GLN d   1       0.498   0.360 -11.130  0.00  0.00    -0.030 C 
ATOM    169  H70 GLN d   1       0.818   0.241 -10.084  0.00  0.00     0.037 H 
ATOM    170  H71 GLN d   1       1.383   0.421 -11.780  0.00  0.00     0.037 H 
BRANCH 168 171
ATOM    171  CG  GLN d   1      -0.268  -0.924 -11.521  0.00  0.00     0.011 C 
ATOM    172  H72 GLN d   1      -1.138  -1.026 -10.856  0.00  0.00     0.047 H 
ATOM    173  H73 GLN d   1       0.403  -1.785 -11.382  0.00  0.00     0.047 H 
BRANCH 171 174
ATOM    174  CD  GLN d   1      -0.761  -0.925 -12.962  0.00  0.00     0.215 C 
ATOM    175  OE1 GLN d   1      -1.992  -0.875 -13.236  0.00  0.00    -0.274 OA
ATOM    176  NE2 GLN d   1       0.163  -0.950 -13.890  0.00  0.00    -0.370 N 
ATOM    177  H74 GLN d   1      -0.098  -0.952 -14.855  0.00  0.00     0.159 HD
ATOM    178  H75 GLN d   1       1.129  -0.967 -13.633  0.00  0.00     0.159 HD
ENDBRANCH 171 174
ENDBRANCH 168 171
ENDBRANCH 118 168
ENDBRANCH 116 118
ENDBRANCH 112 114
BRANCH 112 179
ATOM    179  CB  LYS d   1      -0.983   4.900 -14.482  0.00  0.00    -0.038 C 
ATOM    180  H57 LYS d   1      -0.071   5.162 -13.925  0.00  0.00     0.036 H 
ATOM    181  H58 LYS d   1      -1.863   5.290 -13.950  0.00  0.00     0.036 H 
BRANCH 179 182
ATOM    182  CG  LYS d   1      -0.920   5.516 -15.851  0.00  0.00    -0.061 C 
ATOM    183  H59 LYS d   1      -1.926   5.497 -16.296  0.00  0.00     0.033 H 
ATOM    184  H60 LYS d   1      -0.232   4.926 -16.475  0.00  0.00     0.033 H 
BRANCH 182 185
ATOM    185  CD  LYS d   1      -0.436   6.937 -15.804  0.00  0.00    -0.043 C 
ATOM    186  H61 LYS d   1       0.469   6.992 -15.182  0.00  0.00     0.035 H 
ATOM    187  H62 LYS d   1      -1.220   7.573 -15.367  0.00  0.00     0.035 H 
BRANCH 185 188
ATOM    188  CE  LYS d   1      -0.113   7.429 -17.202  0.00  0.00     0.080 C 
ATOM    189  H63 LYS d   1      -0.813   6.980 -17.922  0.00  0.00     0.075 H 
ATOM    190  H64 LYS d   1       0.916   7.144 -17.465  0.00  0.00     0.075 H 
BRANCH 188 191
ATOM    191  NZ  LYS d   1      -0.244   8.908 -17.235  0.00  0.00    -0.079 N 
ATOM    192  H65 LYS d   1      -0.031   9.244 -18.161  0.00  0.00     0.274 HD
ATOM    193  H66 LYS d   1       0.397   9.317 -16.574  0.00  0.00     0.274 HD
ATOM    194  H67 LYS d   1      -1.187   9.167 -16.992  0.00  0.00     0.274 HD
ENDBRANCH 188 191
ENDBRANCH 185 188
ENDBRANCH 182 185
ENDBRANCH 179 182
ENDBRANCH 112 179
ENDBRANCH 110 112
ENDBRANCH 106 108
BRANCH 106 195
ATOM    195  CB  ALA d   1      -3.864   0.730 -16.564  0.00  0.00    -0.049 C 
ATOM    196  H52 ALA d   1      -4.048   0.889 -15.491  0.00  0.00     0.030 H 
ATOM    197  H53 ALA d   1      -3.061  -0.011 -16.692  0.00  0.00     0.030 H 
ATOM    198  H54 ALA d   1      -4.783   0.361 -17.043  0.00  0.00     0.030 H 
ENDBRANCH 106 195
ENDBRANCH 104 106
ENDBRANCH   1 102
TORSDOF 57
