REMARK  12 active torsions:
REMARK  status: ('A' for Active; 'I' for Inactive)
REMARK    1  A    between atoms: C1_1  and  C2_2 
REMARK    2  A    between atoms: C5_5  and  C9_9 
REMARK    3  A    between atoms: C7_7  and  C8_8 
REMARK    4  A    between atoms: C12_12  and  N18_18 
REMARK    5  A    between atoms: C13_13  and  C15_15 
REMARK       I    between atoms: C15_15  and  N17_17 
REMARK    6  A    between atoms: N18_18  and  C19_19 
REMARK    7  A    between atoms: C22_22  and  O25_25 
REMARK    8  A    between atoms: O25_25  and  C26_26 
REMARK    9  A    between atoms: C26_26  and  C27_27 
REMARK   10  A    between atoms: C27_27  and  C28_28 
REMARK   11  A    between atoms: C28_28  and  N29_29 
REMARK   12  A    between atoms: N32_32  and  C35_35 
ROOT
ATOM      1  C19 B5U d   1      19.759  29.652  76.495  0.00  0.00     0.033 A 
ATOM      2  C20 B5U d   1      20.616  29.023  75.581  0.00  0.00    -0.055 A 
ATOM      3  C21 B5U d   1      20.384  27.711  75.186  0.00  0.00    -0.049 A 
ATOM      4  C22 B5U d   1      19.273  27.022  75.674  0.00  0.00     0.068 A 
ATOM      5  C23 B5U d   1      18.395  27.653  76.563  0.00  0.00    -0.049 A 
ATOM      6  C24 B5U d   1      18.631  28.969  76.956  0.00  0.00    -0.055 A 
ATOM      7  H14 B5U d   1      21.465  29.564  75.180  0.00  0.00     0.087 H 
ATOM      8  H15 B5U d   1      21.066  27.223  74.499  0.00  0.00     0.087 H 
ATOM      9  H16 B5U d   1      17.533  27.119  76.945  0.00  0.00     0.087 H 
ATOM     10  H17 B5U d   1      17.936  29.465  77.623  0.00  0.00     0.087 H 
ENDROOT
BRANCH   1  11
ATOM     11  N18 B5U d   1      19.946  30.998  76.906  0.00  0.00    -0.339 N 
ATOM     12  H13 B5U d   1      19.068  31.503  77.093  0.00  0.00     0.167 HD
BRANCH  11  13
ATOM     13  C12 B5U d   1      21.084  31.760  77.103  0.00  0.00     0.162 A 
ATOM     14  N11 B5U d   1      22.279  31.334  76.628  0.00  0.00    -0.238 NA
ATOM     15  C10 B5U d   1      23.335  32.150  76.834  0.00  0.00     0.033 A 
ATOM     16  C9  B5U d   1      23.225  33.369  77.534  0.00  0.00     0.085 A 
ATOM     17  H10 B5U d   1      24.304  31.857  76.447  0.00  0.00     0.118 H 
ATOM     18  N14 B5U d   1      22.022  33.790  77.993  0.00  0.00    -0.237 NA
ATOM     19  C13 B5U d   1      20.937  33.015  77.781  0.00  0.00     0.170 A 
BRANCH  16  20
ATOM     20  C5  B5U d   1      24.375  34.282  77.780  0.00  0.00    -0.005 A 
ATOM     21  C4  B5U d   1      24.336  35.228  78.812  0.00  0.00    -0.070 A 
ATOM     22  C3  B5U d   1      25.382  36.108  79.019  0.00  0.00    -0.076 A 
ATOM     23  H5  B5U d   1      23.469  35.271  79.461  0.00  0.00     0.084 H 
ATOM     24  C2  B5U d   1      26.511  36.106  78.191  0.00  0.00    -0.056 A 
ATOM     25  H4  B5U d   1      25.327  36.814  79.840  0.00  0.00     0.084 H 
ATOM     26  C7  B5U d   1      26.539  35.192  77.094  0.00  0.00    -0.055 A 
ATOM     27  C6  B5U d   1      25.479  34.291  76.925  0.00  0.00    -0.065 A 
ATOM     28  H6  B5U d   1      25.517  33.581  76.107  0.00  0.00     0.085 H 
BRANCH  24  29
ATOM     29  C1  B5U d   1      27.624  37.106  78.450  0.00  0.00    -0.051 C 
ATOM     30  H1  B5U d   1      27.383  37.699  79.345  0.00  0.00     0.033 H 
ATOM     31  H2  B5U d   1      27.725  37.775  77.583  0.00  0.00     0.033 H 
ATOM     32  H3  B5U d   1      28.570  36.568  78.610  0.00  0.00     0.033 H 
ENDBRANCH  24  29
BRANCH  26  33
ATOM     33  C8  B5U d   1      27.697  35.116  76.136  0.00  0.00    -0.051 C 
ATOM     34  H7  B5U d   1      28.441  35.882  76.399  0.00  0.00     0.033 H 
ATOM     35  H8  B5U d   1      27.337  35.291  75.111  0.00  0.00     0.033 H 
ATOM     36  H9  B5U d   1      28.159  34.120  76.198  0.00  0.00     0.033 H 
ENDBRANCH  26  33
ENDBRANCH  16  20
BRANCH  19  37
ATOM     37  C15 B5U d   1      19.618  33.495  78.389  0.00  0.00     0.272 C 
ATOM     38  O16 B5U d   1      18.594  32.809  78.293  0.00  0.00    -0.266 OA
ATOM     39  N17 B5U d   1      19.655  34.652  79.039  0.00  0.00    -0.365 N 
ATOM     40  H11 B5U d   1      18.823  35.017  79.458  0.00  0.00     0.159 HD
ATOM     41  H12 B5U d   1      20.514  35.158  79.110  0.00  0.00     0.159 HD
ENDBRANCH  19  37
ENDBRANCH  11  13
ENDBRANCH   1  11
BRANCH   4  42
ATOM     42  O25 B5U d   1      18.992  25.723  75.282  0.00  0.00    -0.351 OA
BRANCH  42  43
ATOM     43  C26 B5U d   1      19.636  25.159  74.122  0.00  0.00     0.028 C 
ATOM     44  H18 B5U d   1      20.707  25.028  74.334  0.00  0.00     0.075 H 
ATOM     45  H19 B5U d   1      19.512  25.846  73.272  0.00  0.00     0.075 H 
BRANCH  43  46
ATOM     46  C27 B5U d   1      19.037  23.822  73.766  0.00  0.00    -0.022 C 
ATOM     47  H20 B5U d   1      19.454  23.526  72.792  0.00  0.00     0.038 H 
ATOM     48  H21 B5U d   1      17.951  23.965  73.672  0.00  0.00     0.038 H 
BRANCH  46  49
ATOM     49  C28 B5U d   1      19.259  22.655  74.728  0.00  0.00     0.086 C 
ATOM     50  H22 B5U d   1      18.816  21.756  74.275  0.00  0.00     0.076 H 
ATOM     51  H23 B5U d   1      18.737  22.888  75.668  0.00  0.00     0.076 H 
BRANCH  49  52
ATOM     52  N29 B5U d   1      20.674  22.348  75.058  0.00  0.00    -0.068 N 
ATOM     53  C30 B5U d   1      20.763  21.682  76.372  0.00  0.00     0.106 C 
ATOM     54  C31 B5U d   1      22.204  21.339  76.720  0.00  0.00     0.105 C 
ATOM     55  H25 B5U d   1      20.170  20.756  76.345  0.00  0.00     0.078 H 
ATOM     56  H26 B5U d   1      20.358  22.354  77.143  0.00  0.00     0.078 H 
ATOM     57  N32 B5U d   1      22.802  20.492  75.692  0.00  0.00    -0.072 N 
ATOM     58  H27 B5U d   1      22.225  20.806  77.682  0.00  0.00     0.078 H 
ATOM     59  H28 B5U d   1      22.785  22.269  76.803  0.00  0.00     0.078 H 
ATOM     60  C33 B5U d   1      22.733  21.170  74.398  0.00  0.00     0.105 C 
ATOM     61  H29 B5U d   1      22.276  19.634  75.635  0.00  0.00     0.279 HD
ATOM     62  C34 B5U d   1      21.294  21.488  74.035  0.00  0.00     0.106 C 
ATOM     63  H30 B5U d   1      23.165  20.517  73.625  0.00  0.00     0.078 H 
ATOM     64  H31 B5U d   1      23.308  22.107  74.450  0.00  0.00     0.078 H 
ATOM     65  H32 B5U d   1      21.273  22.008  73.066  0.00  0.00     0.078 H 
ATOM     66  H33 B5U d   1      20.725  20.549  73.960  0.00  0.00     0.078 H 
ATOM     67  H24 B5U d   1      21.185  23.216  75.099  0.00  0.00     0.280 HD
BRANCH  57  68
ATOM     68  C35 B5U d   1      24.186  20.163  76.032  0.00  0.00     0.066 C 
ATOM     69  H34 B5U d   1      24.213  19.655  77.007  0.00  0.00     0.068 H 
ATOM     70  H35 B5U d   1      24.780  21.087  76.084  0.00  0.00     0.068 H 
ATOM     71  H36 B5U d   1      24.605  19.500  75.261  0.00  0.00     0.068 H 
ENDBRANCH  57  68
ENDBRANCH  49  52
ENDBRANCH  46  49
ENDBRANCH  43  46
ENDBRANCH  42  43
ENDBRANCH   4  42
TORSDOF 12
