REMARK  1 active torsions:
REMARK  status: ('A' for Active; 'I' for Inactive)
REMARK    1  A    between atoms: N3_1  and  C3_2 
ROOT
ATOM      1  C3  10L d   1      44.530   8.152 -39.656  0.00  0.00     0.055 A 
ATOM      2  C2  10L d   1      44.993   6.860 -39.308  0.00  0.00     0.088 A 
ATOM      3  C4  10L d   1      43.259   8.240 -40.227  0.00  0.00    -0.055 A 
ATOM      4  C5  10L d   1      42.485   7.113 -40.441  0.00  0.00    -0.080 A 
ATOM      5  C6  10L d   1      42.952   5.854 -40.101  0.00  0.00    -0.069 A 
ATOM      6  C1  10L d   1      44.215   5.734 -39.530  0.00  0.00     0.013 A 
ATOM      7  C1' 10L d   1      44.987   4.654 -39.077  0.00  0.00     0.034 A 
ATOM      8  N1' 10L d   1      46.174   5.066 -38.601  0.00  0.00    -0.186 NA
ATOM      9  N9  10L d   1      46.167   6.419 -38.749  0.00  0.00    -0.276 N 
ATOM     10  H3  10L d   1      42.870   9.212 -40.509  0.00  0.00     0.087 H 
ATOM     11  H4  10L d   1      41.500   7.217 -40.881  0.00  0.00     0.083 H 
ATOM     12  H5  10L d   1      42.342   4.975 -40.277  0.00  0.00     0.085 H 
ATOM     13  H6  10L d   1      44.665   3.614 -39.107  0.00  0.00     0.118 H 
ATOM     14  H7  10L d   1      46.946   7.035 -38.476  0.00  0.00     0.189 HD
ENDROOT
BRANCH   1  15
ATOM     15  N3  10L d   1      45.275   9.291 -39.465  0.00  0.00    -0.397 N 
ATOM     16  H1  10L d   1      44.892  10.208 -39.735  0.00  0.00     0.156 HD
ATOM     17  H2  10L d   1      46.216   9.227 -39.051  0.00  0.00     0.156 HD
ENDBRANCH   1  15
TORSDOF 1
