REMARK  4 active torsions:
REMARK  status: ('A' for Active; 'I' for Inactive)
REMARK    1  A    between atoms: C15_2  and  N13_1 
REMARK    2  A    between atoms: C23_9  and  C15_2 
REMARK    3  A    between atoms: O10_15  and  C19_6 
REMARK    4  A    between atoms: C26_12  and  O10_15 
ROOT
ATOM      1  C23 20L d   1       1.270  14.994 -41.466  0.00  0.00    -0.033 A 
ATOM      2  C24 20L d   1       1.546  16.333 -41.204  0.00  0.00    -0.073 A 
ATOM      3  C25 20L d   1       2.772  16.712 -40.696  0.00  0.00    -0.050 A 
ATOM      4  C26 20L d   1       3.724  15.756 -40.384  0.00  0.00     0.076 A 
ATOM      5  C27 20L d   1       3.475  14.423 -40.679  0.00  0.00    -0.050 A 
ATOM      6  C28 20L d   1       2.253  14.043 -41.196  0.00  0.00    -0.073 A 
ATOM      7  H   20L d   1       0.787  17.089 -41.402  0.00  0.00     0.084 H 
ATOM      8  H   20L d   1       2.992  17.768 -40.540  0.00  0.00     0.087 H 
ATOM      9  H   20L d   1       4.247  13.674 -40.502  0.00  0.00     0.087 H 
ATOM     10  H   20L d   1       2.055  12.990 -41.395  0.00  0.00     0.084 H 
ENDROOT
BRANCH   4  11
ATOM     11  O10 20L d   1       4.959  16.152 -39.917  0.00  0.00    -0.311 OA
BRANCH  11  12
ATOM     12  C19 20L d   1       5.799  15.303 -39.235  0.00  0.00     0.076 A 
ATOM     13  C20 20L d   1       7.144  15.247 -39.576  0.00  0.00    -0.050 A 
ATOM     14  C21 20L d   1       7.987  14.376 -38.922  0.00  0.00    -0.080 A 
ATOM     15  H   20L d   1       7.533  15.893 -40.363  0.00  0.00     0.087 H 
ATOM     16  C22 20L d   1       7.492  13.541 -37.940  0.00  0.00    -0.083 A 
ATOM     17  H   20L d   1       9.046  14.346 -39.180  0.00  0.00     0.083 H 
ATOM     18  C17 20L d   1       6.150  13.575 -37.614  0.00  0.00    -0.080 A 
ATOM     19  H   20L d   1       8.161  12.854 -37.421  0.00  0.00     0.083 H 
ATOM     20  C18 20L d   1       5.298  14.436 -38.276  0.00  0.00    -0.050 A 
ATOM     21  H   20L d   1       5.763  12.921 -36.833  0.00  0.00     0.083 H 
ATOM     22  H   20L d   1       4.233  14.434 -38.045  0.00  0.00     0.087 H 
ENDBRANCH  11  12
ENDBRANCH   4  11
BRANCH   1  23
ATOM     23  C15 20L d   1      -0.061  14.584 -42.044  0.00  0.00     0.103 C 
ATOM     24  H   20L d   1      -0.184  13.514 -41.877  0.00  0.00     0.082 H 
ATOM     25  H   20L d   1      -0.835  15.176 -41.556  0.00  0.00     0.082 H 
BRANCH  23  26
ATOM     26  N13 20L d   1      -0.150  14.832 -43.507  0.00  0.00    -0.075 N 
ATOM     27  H   20L d   1      -1.066  14.538 -43.845  0.00  0.00     0.274 HD
ATOM     28  H   20L d   1      -0.021  15.827 -43.690  0.00  0.00     0.274 HD
ATOM     29  H   20L d   1       0.577  14.300 -43.986  0.00  0.00     0.274 HD
ENDBRANCH  23  26
ENDBRANCH   1  23
TORSDOF 4
