REMARK  6 active torsions:
REMARK  status: ('A' for Active; 'I' for Inactive)
REMARK    1  A    between atoms: CAA_23  and  CAH_4 
REMARK    2  A    between atoms: CAX_12  and  CAP_13 
REMARK    3  A    between atoms: CAX_12  and  OAF_17 
REMARK    4  A    between atoms: CA0_14  and  CAA_23 
REMARK    5  A    between atoms: CAV_19  and  OAD_20 
REMARK    6  A    between atoms: CAW_21  and  OAE_22 
ROOT
ATOM      1  OAN BZ5 d   1      14.637   4.032  40.050  0.00  0.00    -0.294 OA
ATOM      2  CAQ BZ5 d   1      13.811   3.125  40.051  0.00  0.00     0.165 C 
ATOM      3  CAX BZ5 d   1      11.903   2.430  38.704  0.00  0.00     0.158 C 
ATOM      4  CA0 BZ5 d   1      13.434   2.411  38.762  0.00  0.00     0.050 C 
ATOM      5  CAM BZ5 d   1      11.329   1.790  39.970  0.00  0.00     0.001 C 
ATOM      6  CAV BZ5 d   1      11.687   2.579  41.228  0.00  0.00     0.070 C 
ATOM      7  CAW BZ5 d   1      13.193   2.646  41.362  0.00  0.00     0.118 C 
ATOM      8  H   BZ5 d   1      13.793   1.382  38.753  0.00  0.00     0.058 H 
ATOM      9  H   BZ5 d   1      11.751   0.789  40.066  0.00  0.00     0.042 H 
ATOM     10  H   BZ5 d   1      10.243   1.772  39.879  0.00  0.00     0.042 H 
ATOM     11  H   BZ5 d   1      11.258   3.577  41.139  0.00  0.00     0.087 H 
ATOM     12  H   BZ5 d   1      13.579   1.652  41.587  0.00  0.00     0.099 H 
ENDROOT
BRANCH   4  13
ATOM     13  CAA BZ5 d   1      14.112   3.022  37.536  0.00  0.00    -0.028 C 
ATOM     14  H   BZ5 d   1      13.359   3.145  36.758  0.00  0.00     0.041 H 
ATOM     15  H   BZ5 d   1      14.556   3.972  37.832  0.00  0.00     0.041 H 
BRANCH  13  16
ATOM     16  CAH BZ5 d   1      15.228   2.124  36.984  0.00  0.00    -0.056 A 
ATOM     17  CAI BZ5 d   1      16.504   2.588  36.823  0.00  0.00    -0.066 A 
ATOM     18  CAT BZ5 d   1      17.502   1.735  36.329  0.00  0.00    -0.018 A 
ATOM     19  H   BZ5 d   1      16.745   3.620  37.078  0.00  0.00     0.085 H 
ATOM     20  CAK BZ5 d   1      18.785   2.003  36.095  0.00  0.00    -0.065 A 
ATOM     21  CAU BZ5 d   1      17.175   0.405  35.946  0.00  0.00     0.015 A 
ATOM     22  CAS BZ5 d   1      19.513   1.009  35.630  0.00  0.00    -0.043 A 
ATOM     23  H   BZ5 d   1      19.209   2.990  36.278  0.00  0.00     0.085 H 
ATOM     24  SAO BZ5 d   1      18.579  -0.381  35.342  0.00  0.00    -0.101 SA
ATOM     25  H   BZ5 d   1      20.587   1.071  35.451  0.00  0.00     0.095 H 
ATOM     26  CAJ BZ5 d   1      15.889  -0.061  36.080  0.00  0.00    -0.065 A 
ATOM     27  CAR BZ5 d   1      14.930   0.805  36.590  0.00  0.00    -0.075 A 
ATOM     28  H   BZ5 d   1      15.629  -1.080  35.794  0.00  0.00     0.085 H 
ATOM     29  H   BZ5 d   1      13.905   0.449  36.689  0.00  0.00     0.084 H 
ENDBRANCH  13  16
ENDBRANCH   4  13
BRANCH   3  30
ATOM     30  CAP BZ5 d   1      11.420   1.650  37.485  0.00  0.00     0.210 C 
ATOM     31  OAC BZ5 d   1      11.472   0.409  37.548  0.00  0.00    -0.646 OA
ATOM     32  OAB BZ5 d   1      11.052   2.307  36.495  0.00  0.00    -0.646 OA
ENDBRANCH   3  30
BRANCH   3  33
ATOM     33  OAF BZ5 d   1      11.478   3.801  38.594  0.00  0.00    -0.378 OA
ATOM     34  H   BZ5 d   1      11.845   4.186  37.795  0.00  0.00     0.211 HD
ENDBRANCH   3  33
BRANCH   7  35
ATOM     35  OAE BZ5 d   1      13.554   3.552  42.458  0.00  0.00    -0.385 OA
ATOM     36  H   BZ5 d   1      14.510   3.591  42.538  0.00  0.00     0.210 HD
ENDBRANCH   7  35
BRANCH   6  37
ATOM     37  OAD BZ5 d   1      11.151   1.924  42.426  0.00  0.00    -0.392 OA
ATOM     38  H   BZ5 d   1      11.388   2.436  43.203  0.00  0.00     0.210 HD
ENDBRANCH   6  37
TORSDOF 6
