REMARK  3 active torsions:
REMARK  status: ('A' for Active; 'I' for Inactive)
REMARK    1  A    between atoms: C1_1  and  C2_2 
REMARK    2  A    between atoms: C2_2  and  C9_9 
REMARK    3  A    between atoms: C13_13  and  C15_15 
ROOT
ATOM      1  C9  WM9 d   1       5.627   1.035 -21.074  0.00  0.00    -0.003 A 
ATOM      2  C10 WM9 d   1       6.518   0.692 -22.075  0.00  0.00    -0.072 A 
ATOM      3  C11 WM9 d   1       6.826  -0.632 -22.310  0.00  0.00    -0.082 A 
ATOM      4  C12 WM9 d   1       6.279  -1.634 -21.530  0.00  0.00    -0.072 A 
ATOM      5  C13 WM9 d   1       5.379  -1.333 -20.523  0.00  0.00    -0.025 A 
ATOM      6  C14 WM9 d   1       5.075   0.013 -20.322  0.00  0.00    -0.061 A 
ATOM      7  H11 WM9 d   1       6.976   1.468 -22.678  0.00  0.00     0.084 H 
ATOM      8  H12 WM9 d   1       7.505  -0.890 -23.115  0.00  0.00     0.083 H 
ATOM      9  H13 WM9 d   1       6.558  -2.666 -21.709  0.00  0.00     0.084 H 
ATOM     10  H14 WM9 d   1       4.372   0.271 -19.538  0.00  0.00     0.085 H 
ENDROOT
BRANCH   1  11
ATOM     11  C2  WM9 d   1       5.306   2.491 -20.812  0.00  0.00     0.160 C 
ATOM     12  N3  WM9 d   1       4.000   2.732 -20.208  0.00  0.00    -0.345 N 
ATOM     13  C4  WM9 d   1       3.971   3.156 -18.983  0.00  0.00     0.075 C 
ATOM     14  H4  WM9 d   1       3.131   2.571 -20.737  0.00  0.00     0.164 HD
ATOM     15  C5  WM9 d   1       5.189   3.347 -18.109  0.00  0.00     0.007 C 
ATOM     16  N8  WM9 d   1       2.783   3.437 -18.374  0.00  0.00    -0.389 N 
ATOM     17  C6  WM9 d   1       6.430   2.742 -18.741  0.00  0.00     0.029 C 
ATOM     18  H5  WM9 d   1       5.011   2.863 -17.137  0.00  0.00     0.047 H 
ATOM     19  H6  WM9 d   1       5.354   4.424 -17.957  0.00  0.00     0.047 H 
ATOM     20  O7  WM9 d   1       6.423   3.085 -20.131  0.00  0.00    -0.356 OA
ATOM     21  H7  WM9 d   1       6.414   1.648 -18.625  0.00  0.00     0.075 H 
ATOM     22  H8  WM9 d   1       7.332   3.149 -18.260  0.00  0.00     0.075 H 
ATOM     23  H9  WM9 d   1       2.770   3.773 -17.401  0.00  0.00     0.157 HD
ATOM     24  H10 WM9 d   1       1.899   3.313 -18.888  0.00  0.00     0.157 HD
BRANCH  11  25
ATOM     25  C1  WM9 d   1       5.159   3.229 -22.133  0.00  0.00    -0.026 C 
ATOM     26  H1  WM9 d   1       4.312   2.809 -22.695  0.00  0.00     0.034 H 
ATOM     27  H2  WM9 d   1       6.082   3.116 -22.721  0.00  0.00     0.034 H 
ATOM     28  H3  WM9 d   1       4.977   4.296 -21.939  0.00  0.00     0.034 H 
ENDBRANCH  11  25
ENDBRANCH   1  11
BRANCH   5  29
ATOM     29  C15 WM9 d   1       4.863  -2.373 -19.637  0.00  0.00    -0.024 A 
ATOM     30  C16 WM9 d   1       5.592  -3.529 -19.378  0.00  0.00    -0.072 A 
ATOM     31  C17 WM9 d   1       5.179  -4.497 -18.477  0.00  0.00    -0.081 A 
ATOM     32  H15 WM9 d   1       6.527  -3.679 -19.906  0.00  0.00     0.084 H 
ATOM     33  C18 WM9 d   1       3.994  -4.335 -17.788  0.00  0.00    -0.062 A 
ATOM     34  H16 WM9 d   1       5.786  -5.380 -18.313  0.00  0.00     0.083 H 
ATOM     35  C19 WM9 d   1       3.243  -3.206 -18.053  0.00  0.00     0.034 A 
ATOM     36  H17 WM9 d   1       3.663  -5.070 -17.063  0.00  0.00     0.086 H 
ATOM     37  C20 WM9 d   1       3.662  -2.245 -18.965  0.00  0.00    -0.051 A 
ATOM     38 CL   WM9 d   1       1.780  -2.950 -17.196  0.00  0.00    -0.084 Cl
ATOM     39  H18 WM9 d   1       3.036  -1.380 -19.153  0.00  0.00     0.087 H 
ENDBRANCH   5  29
TORSDOF 3
