REMARK  6 active torsions:
REMARK  status: ('A' for Active; 'I' for Inactive)
REMARK    1  A    between atoms: O7_7  and  C5_5 
REMARK    2  A    between atoms: C8_8  and  O7_7 
REMARK    3  A    between atoms: C30_19  and  C12_12 
REMARK    4  A    between atoms: C30_19  and  N20_15 
REMARK    5  A    between atoms: C23_17  and  C22_16 
REMARK    6  A    between atoms: C23_17  and  C30_19 
ROOT
ATOM      1  C8  DJL d   1       3.831  15.016 -41.749  0.00  0.00     0.137 A 
ATOM      2  C9  DJL d   1       3.462  16.319 -41.398  0.00  0.00     0.071 A 
ATOM      3  C10 DJL d   1       2.150  16.742 -41.490  0.00  0.00    -0.058 A 
ATOM      4  C11 DJL d   1       1.170  15.883 -41.932  0.00  0.00    -0.070 A 
ATOM      5  C12 DJL d   1       1.490  14.579 -42.291  0.00  0.00     0.014 A 
ATOM      6  C13 DJL d   1       2.832  14.167 -42.191  0.00  0.00     0.160 A 
ATOM      7 CL1  DJL d   1       4.636  17.458 -40.833  0.00  0.00    -0.081 Cl
ATOM      8  F23 DJL d   1       3.150  12.907 -42.537  0.00  0.00    -0.202 F 
ATOM      9  H6  DJL d   1       1.891  17.757 -41.212  0.00  0.00     0.086 H 
ATOM     10  H7  DJL d   1       0.144  16.225 -42.001  0.00  0.00     0.084 H 
ENDROOT
BRANCH   5  11
ATOM     11  C30 DJL d   1       0.408  13.634 -42.779  0.00  0.00     0.128 C 
ATOM     12  H16 DJL d   1      -0.564  14.062 -42.494  0.00  0.00     0.091 H 
BRANCH  11  13
ATOM     13  N20 DJL d   1       0.534  12.293 -42.141  0.00  0.00    -0.071 N 
ATOM     14  H8  DJL d   1      -0.196  11.688 -42.483  0.00  0.00     0.275 HD
ATOM     15  H9  DJL d   1       0.451  12.387 -41.141  0.00  0.00     0.275 HD
ATOM     16  H10 DJL d   1       1.433  11.896 -42.367  0.00  0.00     0.275 HD
ENDBRANCH  11  13
BRANCH  11  17
ATOM     17  C23 DJL d   1       0.430  13.473 -44.295  0.00  0.00    -0.038 C 
ATOM     18  H14 DJL d   1       1.433  13.134 -44.595  0.00  0.00     0.035 H 
ATOM     19  H15 DJL d   1      -0.313  12.712 -44.576  0.00  0.00     0.035 H 
BRANCH  17  20
ATOM     20  C22 DJL d   1       0.115  14.741 -45.034  0.00  0.00    -0.074 C 
ATOM     21  H11 DJL d   1       0.149  14.552 -46.117  0.00  0.00     0.027 H 
ATOM     22  H12 DJL d   1       0.856  15.511 -44.773  0.00  0.00     0.027 H 
ATOM     23  H13 DJL d   1      -0.890  15.089 -44.754  0.00  0.00     0.027 H 
ENDBRANCH  17  20
ENDBRANCH  11  17
ENDBRANCH   5  11
BRANCH   1  24
ATOM     24  O7  DJL d   1       5.125  14.510 -41.687  0.00  0.00    -0.306 OA
BRANCH  24  25
ATOM     25  C5  DJL d   1       5.717  14.165 -40.464  0.00  0.00     0.076 A 
ATOM     26  C4  DJL d   1       5.105  14.166 -39.215  0.00  0.00    -0.050 A 
ATOM     27  C3  DJL d   1       5.828  13.797 -38.094  0.00  0.00    -0.080 A 
ATOM     28  H4  DJL d   1       4.065  14.455 -39.120  0.00  0.00     0.087 H 
ATOM     29  C2  DJL d   1       7.158  13.428 -38.214  0.00  0.00    -0.083 A 
ATOM     30  H3  DJL d   1       5.353  13.797 -37.120  0.00  0.00     0.083 H 
ATOM     31  C1  DJL d   1       7.768  13.427 -39.455  0.00  0.00    -0.080 A 
ATOM     32  H2  DJL d   1       7.721  13.140 -37.334  0.00  0.00     0.083 H 
ATOM     33  C6  DJL d   1       7.053  13.794 -40.579  0.00  0.00    -0.050 A 
ATOM     34  H1  DJL d   1       8.809  13.138 -39.546  0.00  0.00     0.083 H 
ATOM     35  H5  DJL d   1       7.533  13.793 -41.551  0.00  0.00     0.087 H 
ENDBRANCH  24  25
ENDBRANCH   1  24
TORSDOF 6
