REMARK  7 active torsions:
REMARK  status: ('A' for Active; 'I' for Inactive)
REMARK    1  A    between atoms: C1_1  and  C2_2 
REMARK    2  A    between atoms: C7_7  and  C11_11 
REMARK    3  A    between atoms: C7_7  and  C19_19 
REMARK    4  A    between atoms: C9_9  and  N10_10 
REMARK    5  A    between atoms: C14_14  and  O17_17 
REMARK    6  A    between atoms: O17_17  and  C18_18 
REMARK    7  A    between atoms: C23_23  and  C25_25 
ROOT
ATOM      1  C2  2FB d   1       7.426   3.517 -17.377  0.00  0.00     0.072 A 
ATOM      2  N3  2FB d   1       6.138   3.602 -17.376  0.00  0.00    -0.242 NA
ATOM      3  C4  2FB d   1       5.542   3.246 -18.530  0.00  0.00     0.117 A 
ATOM      4  C5  2FB d   1       6.408   2.855 -19.502  0.00  0.00     0.054 A 
ATOM      5  S6  2FB d   1       7.984   2.937 -18.888  0.00  0.00    -0.074 SA
ATOM      6  C7  2FB d   1       5.618   2.500 -20.741  0.00  0.00     0.123 A 
ATOM      7  N8  2FB d   1       4.225   2.725 -20.317  0.00  0.00    -0.352 N 
ATOM      8  C9  2FB d   1       4.185   3.150 -19.090  0.00  0.00     0.126 A 
ATOM      9  H4  2FB d   1       3.398   2.567 -20.911  0.00  0.00     0.163 HD
ENDROOT
BRANCH   6  10
ATOM     10  C11 2FB d   1       5.947   3.439 -21.891  0.00  0.00    -0.020 A 
ATOM     11  C12 2FB d   1       7.201   4.051 -22.021  0.00  0.00    -0.071 A 
ATOM     12  C13 2FB d   1       7.461   4.897 -23.101  0.00  0.00    -0.050 A 
ATOM     13  H7  2FB d   1       7.971   3.867 -21.281  0.00  0.00     0.084 H 
ATOM     14  C14 2FB d   1       6.443   5.232 -24.001  0.00  0.00     0.068 A 
ATOM     15  H8  2FB d   1       8.458   5.297 -23.243  0.00  0.00     0.087 H 
ATOM     16  C15 2FB d   1       5.176   4.614 -23.887  0.00  0.00    -0.050 A 
ATOM     17  C16 2FB d   1       4.947   3.741 -22.820  0.00  0.00    -0.071 A 
ATOM     18  H9  2FB d   1       4.397   4.814 -24.614  0.00  0.00     0.087 H 
ATOM     19  H10 2FB d   1       3.969   3.287 -22.710  0.00  0.00     0.084 H 
BRANCH  14  20
ATOM     20  O17 2FB d   1       6.724   6.070 -25.028  0.00  0.00    -0.356 OA
BRANCH  20  21
ATOM     21  C18 2FB d   1       5.688   6.850 -25.656  0.00  0.00     0.010 C 
ATOM     22  H11 2FB d   1       6.125   7.459 -26.461  0.00  0.00     0.066 H 
ATOM     23  H12 2FB d   1       5.222   7.510 -24.909  0.00  0.00     0.066 H 
ATOM     24  H13 2FB d   1       4.927   6.177 -26.077  0.00  0.00     0.066 H 
ENDBRANCH  20  21
ENDBRANCH  14  20
ENDBRANCH   6  10
BRANCH   6  25
ATOM     25  C19 2FB d   1       5.880   1.034 -21.100  0.00  0.00    -0.019 A 
ATOM     26  C20 2FB d   1       6.688   0.663 -22.184  0.00  0.00    -0.074 A 
ATOM     27  C21 2FB d   1       6.922  -0.681 -22.479  0.00  0.00    -0.082 A 
ATOM     28  H14 2FB d   1       7.138   1.431 -22.802  0.00  0.00     0.084 H 
ATOM     29  C22 2FB d   1       6.389  -1.676 -21.671  0.00  0.00    -0.072 A 
ATOM     30  H15 2FB d   1       7.522  -0.949 -23.341  0.00  0.00     0.083 H 
ATOM     31  C23 2FB d   1       5.569  -1.316 -20.587  0.00  0.00    -0.022 A 
ATOM     32  H16 2FB d   1       6.603  -2.719 -21.873  0.00  0.00     0.084 H 
ATOM     33  C24 2FB d   1       5.371   0.040 -20.287  0.00  0.00    -0.063 A 
ATOM     34  H17 2FB d   1       4.809   0.313 -19.401  0.00  0.00     0.085 H 
BRANCH  31  35
ATOM     35  C25 2FB d   1       5.049  -2.359 -19.654  0.00  0.00     0.009 A 
ATOM     36  C26 2FB d   1       5.890  -3.410 -19.218  0.00  0.00     0.015 A 
ATOM     37  N27 2FB d   1       5.443  -4.291 -18.322  0.00  0.00    -0.253 NA
ATOM     38  H18 2FB d   1       6.896  -3.499 -19.612  0.00  0.00     0.116 H 
ATOM     39  C28 2FB d   1       4.203  -4.206 -17.836  0.00  0.00     0.086 A 
ATOM     40  N29 2FB d   1       3.394  -3.222 -18.201  0.00  0.00    -0.253 NA
ATOM     41  H19 2FB d   1       3.853  -4.953 -17.133  0.00  0.00     0.146 H 
ATOM     42  C30 2FB d   1       3.762  -2.302 -19.101  0.00  0.00     0.015 A 
ATOM     43  H20 2FB d   1       3.072  -1.521 -19.399  0.00  0.00     0.116 H 
ENDBRANCH  31  35
ENDBRANCH   6  25
BRANCH   8  44
ATOM     44  N10 2FB d   1       3.050   3.439 -18.370  0.00  0.00    -0.384 N 
ATOM     45  H5  2FB d   1       3.127   3.772 -17.398  0.00  0.00     0.157 HD
ATOM     46  H6  2FB d   1       2.122   3.323 -18.802  0.00  0.00     0.157 HD
ENDBRANCH   8  44
BRANCH   1  47
ATOM     47  C1  2FB d   1       8.309   3.862 -16.202  0.00  0.00    -0.029 C 
ATOM     48  H1  2FB d   1       7.686   4.209 -15.364  0.00  0.00     0.036 H 
ATOM     49  H2  2FB d   1       9.010   4.659 -16.492  0.00  0.00     0.036 H 
ATOM     50  H3  2FB d   1       8.874   2.970 -15.894  0.00  0.00     0.036 H 
ENDBRANCH   1  47
TORSDOF 7
