REMARK  6 active torsions:
REMARK  status: ('A' for Active; 'I' for Inactive)
REMARK    1  A    between atoms: C15_1  and  O14_2 
REMARK    2  A    between atoms: O14_2  and  C2_3 
REMARK    3  A    between atoms: C5_8  and  C7_9 
REMARK    4  A    between atoms: C7_9  and  C8_14 
REMARK    5  A    between atoms: C17_11  and  N20_13 
REMARK    6  A    between atoms: C12_19  and  C21_20 
ROOT
ATOM      1  C7  54M d   1       5.501   2.659 -20.884  0.00  0.00     0.086 A 
ATOM      2  C19 54M d   1       6.428   3.010 -19.660  0.00  0.00    -0.027 A 
ATOM      3  C17 54M d   1       4.057   3.278 -19.143  0.00  0.00     0.071 A 
ATOM      4  N16 54M d   1       4.127   2.924 -20.392  0.00  0.00    -0.362 N 
ATOM      5  C14 54M d   1       5.446   3.321 -18.509  0.00  0.00    -0.010 A 
ATOM      6  H8  54M d   1       7.054   3.886 -19.885  0.00  0.00     0.038 H 
ATOM      7  H9  54M d   1       7.072   2.156 -19.402  0.00  0.00     0.038 H 
ATOM      8  H10 54M d   1       3.295   2.835 -20.992  0.00  0.00     0.162 HD
ATOM      9  H17 54M d   1       5.647   4.318 -18.089  0.00  0.00     0.044 H 
ATOM     10  H18 54M d   1       5.531   2.565 -17.715  0.00  0.00     0.044 H 
ENDROOT
BRANCH   1  11
ATOM     11  C5  54M d   1       5.802   3.598 -22.049  0.00  0.00    -0.025 A 
ATOM     12  C4  54M d   1       7.080   4.167 -22.192  0.00  0.00    -0.071 A 
ATOM     13  C3  54M d   1       7.346   5.028 -23.255  0.00  0.00    -0.050 A 
ATOM     14  H5  54M d   1       7.859   3.936 -21.475  0.00  0.00     0.084 H 
ATOM     15  C2  54M d   1       6.339   5.348 -24.155  0.00  0.00     0.068 A 
ATOM     16  H4  54M d   1       8.338   5.447 -23.379  0.00  0.00     0.087 H 
ATOM     17  C1  54M d   1       5.052   4.776 -24.029  0.00  0.00    -0.050 A 
ATOM     18  C6  54M d   1       4.800   3.881 -22.986  0.00  0.00    -0.071 A 
ATOM     19  H6  54M d   1       4.269   5.029 -24.734  0.00  0.00     0.087 H 
ATOM     20  H7  54M d   1       3.829   3.406 -22.902  0.00  0.00     0.084 H 
BRANCH  15  21
ATOM     21  O14 54M d   1       6.645   6.227 -25.158  0.00  0.00    -0.356 OA
BRANCH  21  22
ATOM     22  C15 54M d   1       5.578   6.852 -25.894  0.00  0.00     0.010 C 
ATOM     23  H1  54M d   1       6.002   7.523 -26.656  0.00  0.00     0.066 H 
ATOM     24  H2  54M d   1       4.948   7.433 -25.204  0.00  0.00     0.066 H 
ATOM     25  H3  54M d   1       4.969   6.079 -26.384  0.00  0.00     0.066 H 
ENDBRANCH  21  22
ENDBRANCH  15  21
ENDBRANCH   1  11
BRANCH   1  26
ATOM     26  C8  54M d   1       5.744   1.211 -21.231  0.00  0.00    -0.025 A 
ATOM     27  C13 54M d   1       5.228   0.215 -20.404  0.00  0.00    -0.063 A 
ATOM     28  C12 54M d   1       5.436  -1.133 -20.694  0.00  0.00    -0.022 A 
ATOM     29  H13 54M d   1       4.658   0.492 -19.524  0.00  0.00     0.085 H 
ATOM     30  C11 54M d   1       6.232  -1.513 -21.785  0.00  0.00    -0.072 A 
ATOM     31  C10 54M d   1       6.748  -0.518 -22.604  0.00  0.00    -0.082 A 
ATOM     32  H16 54M d   1       6.439  -2.558 -21.984  0.00  0.00     0.084 H 
ATOM     33  C9  54M d   1       6.531   0.841 -22.326  0.00  0.00    -0.074 A 
ATOM     34  H15 54M d   1       7.330  -0.796 -23.475  0.00  0.00     0.083 H 
ATOM     35  H14 54M d   1       6.973   1.602 -22.959  0.00  0.00     0.084 H 
BRANCH  28  36
ATOM     36  C21 54M d   1       4.870  -2.149 -19.735  0.00  0.00     0.009 A 
ATOM     37  C26 54M d   1       3.546  -2.090 -19.255  0.00  0.00     0.015 A 
ATOM     38  N21 54M d   1       3.162  -3.027 -18.368  0.00  0.00    -0.253 NA
ATOM     39  H19 54M d   1       2.862  -1.318 -19.588  0.00  0.00     0.116 H 
ATOM     40  C24 54M d   1       3.972  -3.979 -17.947  0.00  0.00     0.086 A 
ATOM     41  N23 54M d   1       5.233  -4.073 -18.374  0.00  0.00    -0.253 NA
ATOM     42  H20 54M d   1       3.603  -4.706 -17.233  0.00  0.00     0.146 H 
ATOM     43  C22 54M d   1       5.702  -3.180 -19.248  0.00  0.00     0.015 A 
ATOM     44  H21 54M d   1       6.730  -3.247 -19.586  0.00  0.00     0.116 H 
ENDBRANCH  28  36
ENDBRANCH   1  26
BRANCH   3  45
ATOM     45  N20 54M d   1       2.886   3.564 -18.460  0.00  0.00    -0.389 N 
ATOM     46  H11 54M d   1       2.922   3.838 -17.468  0.00  0.00     0.157 HD
ATOM     47  H12 54M d   1       1.979   3.503 -18.945  0.00  0.00     0.157 HD
ENDBRANCH   3  45
TORSDOF 6
