REMARK  7 active torsions:
REMARK  status: ('A' for Active; 'I' for Inactive)
REMARK    1  A    between atoms: C1_1  and  O2_2 
REMARK    2  A    between atoms: O2_2  and  C3_3 
REMARK    3  A    between atoms: C6_6  and  C9_9 
REMARK    4  A    between atoms: C9_9  and  C17_17 
REMARK    5  A    between atoms: C11_11  and  O15_15 
REMARK    6  A    between atoms: O15_15  and  C16_16 
REMARK    7  A    between atoms: C21_21  and  C23_23 
ROOT
ATOM      1  C9  KGG d   1       5.696   1.868 -20.377  0.00  0.00     0.089 C 
ATOM      2  C10 KGG d   1       6.592   2.239 -19.169  0.00  0.00    -0.003 C 
ATOM      3  C11 KGG d   1       5.647   2.355 -17.975  0.00  0.00     0.095 C 
ATOM      4  C12 KGG d   1       4.337   2.500 -18.679  0.00  0.00     0.101 C 
ATOM      5  N13 KGG d   1       4.324   2.186 -19.934  0.00  0.00    -0.360 N 
ATOM      6  N14 KGG d   1       3.203   2.874 -18.018  0.00  0.00    -0.387 N 
ATOM      7  H8  KGG d   1       7.102   3.197 -19.349  0.00  0.00     0.042 H 
ATOM      8  H9  KGG d   1       7.341   1.453 -18.991  0.00  0.00     0.042 H 
ATOM      9  H10 KGG d   1       5.696   1.436 -17.372  0.00  0.00     0.095 H 
ATOM     10  H11 KGG d   1       3.486   2.162 -20.532  0.00  0.00     0.162 HD
ATOM     11  H12 KGG d   1       2.314   2.966 -18.531  0.00  0.00     0.157 HD
ATOM     12  H13 KGG d   1       3.236   3.065 -17.006  0.00  0.00     0.157 HD
ENDROOT
BRANCH   1  13
ATOM     13  C6  KGG d   1       6.024   2.812 -21.516  0.00  0.00    -0.025 A 
ATOM     14  C5  KGG d   1       5.037   3.193 -22.410  0.00  0.00    -0.071 A 
ATOM     15  C4  KGG d   1       5.274   4.053 -23.472  0.00  0.00    -0.050 A 
ATOM     16  H5  KGG d   1       4.035   2.802 -22.274  0.00  0.00     0.084 H 
ATOM     17  C3  KGG d   1       6.549   4.546 -23.639  0.00  0.00     0.068 A 
ATOM     18  H4  KGG d   1       4.477   4.330 -24.152  0.00  0.00     0.087 H 
ATOM     19  C8  KGG d   1       7.565   4.185 -22.774  0.00  0.00    -0.050 A 
ATOM     20  C7  KGG d   1       7.292   3.328 -21.737  0.00  0.00    -0.071 A 
ATOM     21  H7  KGG d   1       8.567   4.575 -22.913  0.00  0.00     0.087 H 
ATOM     22  H6  KGG d   1       8.096   3.045 -21.067  0.00  0.00     0.084 H 
BRANCH  17  23
ATOM     23  O2  KGG d   1       6.910   5.423 -24.654  0.00  0.00    -0.356 OA
BRANCH  23  24
ATOM     24  C1  KGG d   1       5.778   6.054 -25.256  0.00  0.00     0.010 C 
ATOM     25  H1  KGG d   1       6.117   6.735 -26.050  0.00  0.00     0.066 H 
ATOM     26  H2  KGG d   1       5.228   6.625 -24.494  0.00  0.00     0.066 H 
ATOM     27  H3  KGG d   1       5.118   5.288 -25.688  0.00  0.00     0.066 H 
ENDBRANCH  23  24
ENDBRANCH  17  23
ENDBRANCH   1  13
BRANCH   1  28
ATOM     28  C17 KGG d   1       5.911   0.402 -20.688  0.00  0.00    -0.025 A 
ATOM     29  C18 KGG d   1       6.683  -0.004 -21.764  0.00  0.00    -0.074 A 
ATOM     30  C19 KGG d   1       6.890  -1.344 -22.035  0.00  0.00    -0.082 A 
ATOM     31  H17 KGG d   1       7.134   0.744 -22.406  0.00  0.00     0.084 H 
ATOM     32  C20 KGG d   1       6.351  -2.309 -21.207  0.00  0.00    -0.072 A 
ATOM     33  H18 KGG d   1       7.476  -1.637 -22.898  0.00  0.00     0.083 H 
ATOM     34  C21 KGG d   1       5.576  -1.947 -20.119  0.00  0.00    -0.024 A 
ATOM     35  H19 KGG d   1       6.536  -3.357 -21.411  0.00  0.00     0.084 H 
ATOM     36  C22 KGG d   1       5.371  -0.591 -19.890  0.00  0.00    -0.063 A 
ATOM     37  H20 KGG d   1       4.758  -0.297 -19.045  0.00  0.00     0.085 H 
BRANCH  34  38
ATOM     38  C23 KGG d   1       5.050  -2.951 -19.185  0.00  0.00    -0.008 A 
ATOM     39  C24 KGG d   1       5.847  -4.007 -18.757  0.00  0.00    -0.070 A 
ATOM     40  C25 KGG d   1       5.416  -4.909 -17.805  0.00  0.00    -0.065 A 
ATOM     41  H21 KGG d   1       6.836  -4.125 -19.184  0.00  0.00     0.085 H 
ATOM     42  C26 KGG d   1       4.142  -4.743 -17.313  0.00  0.00     0.002 A 
ATOM     43  H22 KGG d   1       6.054  -5.714 -17.460  0.00  0.00     0.085 H 
ATOM     44  N27 KGG d   1       3.308  -3.770 -17.709  0.00  0.00    -0.272 NA
ATOM     45  H23 KGG d   1       3.791  -5.440 -16.561  0.00  0.00     0.114 H 
ATOM     46  C28 KGG d   1       3.786  -2.901 -18.623  0.00  0.00     0.012 A 
ATOM     47  H24 KGG d   1       3.129  -2.100 -18.943  0.00  0.00     0.116 H 
ENDBRANCH  34  38
ENDBRANCH   1  28
BRANCH   3  48
ATOM     48  O15 KGG d   1       5.779   3.466 -17.111  0.00  0.00    -0.383 OA
BRANCH  48  49
ATOM     49  C16 KGG d   1       6.964   3.337 -16.330  0.00  0.00     0.005 C 
ATOM     50  H14 KGG d   1       7.059   4.205 -15.661  0.00  0.00     0.066 H 
ATOM     51  H15 KGG d   1       7.838   3.290 -16.996  0.00  0.00     0.066 H 
ATOM     52  H16 KGG d   1       6.910   2.416 -15.730  0.00  0.00     0.066 H 
ENDBRANCH  48  49
ENDBRANCH   3  48
TORSDOF 7
