REMARK  10 active torsions:
REMARK  status: ('A' for Active; 'I' for Inactive)
REMARK    1  A    between atoms: C1_1  and  C2_4 
REMARK    2  A    between atoms: C4_6  and  NE_20 
REMARK    3  A    between atoms: C5_7  and  N5_8 
REMARK       I    between atoms: N5_8  and  C10_9 
REMARK    4  A    between atoms: C10_9  and  C11_11 
REMARK    5  A    between atoms: C6_12  and  C7_14 
REMARK    6  A    between atoms: C7_14  and  O7_15 
REMARK    7  A    between atoms: C7_14  and  C8_16 
REMARK    8  A    between atoms: C8_16  and  O8_17 
REMARK    9  A    between atoms: C8_16  and  C9_18 
REMARK   10  A    between atoms: C9_18  and  O9_19 
REMARK       I    between atoms: NE_20  and  CZ_21 
REMARK       I    between atoms: CZ_21  and  NH1_22 
ROOT
ATOM      1  C2  ZMR d   1      25.407  20.405 -40.041  0.00  0.00     0.124 C 
ATOM      2  C3  ZMR d   1      24.517  19.233 -40.501  0.00  0.00    -0.010 C 
ATOM      3  C4  ZMR d   1      23.125  19.652 -40.642  0.00  0.00     0.051 C 
ATOM      4  C5  ZMR d   1      22.951  20.720 -41.544  0.00  0.00     0.059 C 
ATOM      5  C6  ZMR d   1      23.777  21.873 -41.223  0.00  0.00     0.088 C 
ATOM      6  O6  ZMR d   1      25.161  21.528 -40.996  0.00  0.00    -0.365 OA
ATOM      7  H   ZMR d   1      25.138  20.666 -39.018  0.00  0.00     0.100 H 
ATOM      8  H   ZMR d   1      24.569  18.442 -39.753  0.00  0.00     0.040 H 
ATOM      9  H   ZMR d   1      24.875  18.883 -41.469  0.00  0.00     0.040 H 
ATOM     10  H   ZMR d   1      22.771  20.031 -39.683  0.00  0.00     0.076 H 
ATOM     11  H   ZMR d   1      23.261  20.348 -42.521  0.00  0.00     0.079 H 
ATOM     12  H   ZMR d   1      23.381  22.293 -40.298  0.00  0.00     0.090 H 
ENDROOT
BRANCH   5  13
ATOM     13  C7  ZMR d   1      23.710  22.888 -42.364  0.00  0.00     0.089 C 
ATOM     14  H   ZMR d   1      22.655  23.064 -42.575  0.00  0.00     0.091 H 
BRANCH  13  15
ATOM     15  O7  ZMR d   1      24.325  22.390 -43.513  0.00  0.00    -0.390 OA
ATOM     16  H   ZMR d   1      25.247  22.199 -43.324  0.00  0.00     0.210 HD
ENDBRANCH  13  15
BRANCH  13  17
ATOM     17  C8  ZMR d   1      24.345  24.200 -41.975  0.00  0.00     0.083 C 
ATOM     18  H   ZMR d   1      25.354  23.976 -41.629  0.00  0.00     0.090 H 
BRANCH  17  19
ATOM     19  O8  ZMR d   1      23.607  24.798 -40.979  0.00  0.00    -0.391 OA
ATOM     20  H   ZMR d   1      24.016  25.632 -40.736  0.00  0.00     0.210 HD
ENDBRANCH  17  19
BRANCH  17  21
ATOM     21  C9  ZMR d   1      24.445  25.151 -43.135  0.00  0.00     0.043 C 
ATOM     22  H   ZMR d   1      24.896  24.573 -43.942  0.00  0.00     0.078 H 
ATOM     23  H   ZMR d   1      24.989  26.014 -42.752  0.00  0.00     0.078 H 
BRANCH  21  24
ATOM     24  O9  ZMR d   1      23.264  25.669 -43.670  0.00  0.00    -0.398 OA
ATOM     25  H   ZMR d   1      22.793  26.157 -42.990  0.00  0.00     0.209 HD
ENDBRANCH  21  24
ENDBRANCH  17  21
ENDBRANCH  13  17
ENDBRANCH   5  13
BRANCH   4  26
ATOM     26  N5  ZMR d   1      21.462  21.163 -41.576  0.00  0.00    -0.352 N 
ATOM     27  C10 ZMR d   1      20.554  20.803 -42.644  0.00  0.00     0.214 C 
ATOM     28  O10 ZMR d   1      20.931  20.127 -43.577  0.00  0.00    -0.274 OA
ATOM     29  H   ZMR d   1      21.108  21.734 -40.809  0.00  0.00     0.163 HD
BRANCH  27  30
ATOM     30  C11 ZMR d   1      19.113  21.254 -42.597  0.00  0.00    -0.003 C 
ATOM     31  H   ZMR d   1      18.894  21.858 -43.477  0.00  0.00     0.040 H 
ATOM     32  H   ZMR d   1      18.461  20.381 -42.582  0.00  0.00     0.040 H 
ATOM     33  H   ZMR d   1      18.948  21.847 -41.698  0.00  0.00     0.040 H 
ENDBRANCH  27  30
ENDBRANCH   4  26
BRANCH   3  34
ATOM     34  NE  ZMR d   1      22.319  18.411 -41.096  0.00  0.00    -0.220 N 
ATOM     35  CZ  ZMR d   1      20.950  18.119 -40.642  0.00  0.00     0.665 C 
ATOM     36  NH1 ZMR d   1      20.282  17.152 -41.242  0.00  0.00    -0.235 N 
ATOM     37  NH2 ZMR d   1      20.379  18.841 -39.700  0.00  0.00    -0.235 N 
ATOM     38  H   ZMR d   1      20.716  16.627 -42.001  0.00  0.00     0.174 HD
ATOM     39  H   ZMR d   1      19.331  16.929 -40.947  0.00  0.00     0.174 HD
ATOM     40  H   ZMR d   1      20.887  19.616 -39.273  0.00  0.00     0.174 HD
ATOM     41  H   ZMR d   1      19.429  18.625 -39.397  0.00  0.00     0.174 HD
ATOM     42  H   ZMR d   1      22.761  17.760 -41.745  0.00  0.00     0.178 HD
ENDBRANCH   3  34
BRANCH   1  43
ATOM     43  C1  ZMR d   1      26.739  20.108 -39.970  0.00  0.00     0.203 C 
ATOM     44  O1A ZMR d   1      27.113  18.947 -39.696  0.00  0.00    -0.646 OA
ATOM     45  O1B ZMR d   1      27.599  21.015 -40.159  0.00  0.00    -0.646 OA
ENDBRANCH   1  43
TORSDOF 10
