REMARK  11 active torsions:
REMARK  status: ('A' for Active; 'I' for Inactive)
REMARK    1  A    between atoms: N1_2  and  S_1 
REMARK    2  A    between atoms: S_1  and  C4_8 
REMARK    3  A    between atoms: C11_14  and  N1_2 
REMARK    4  A    between atoms: C12_15  and  N2_5 
REMARK    5  A    between atoms: N2_5  and  C13_17 
REMARK    6  A    between atoms: N2_5  and  C17_19 
REMARK    7  A    between atoms: C4_8  and  C3_7 
REMARK    8  A    between atoms: C17_19  and  C6_9 
REMARK    9  A    between atoms: C9_12  and  C08_16 
REMARK   10  A    between atoms: C11_14  and  C12_15 
REMARK   11  A    between atoms: C13_17  and  C14_18 
ROOT
ATOM      1  N1  Q4Q d   1      29.273  20.595  13.281  0.00  0.00    -0.318 N 
ATOM      2  H1  Q4Q d   1      30.139  20.279  13.668  0.00  0.00     0.172 HD
ENDROOT
BRANCH   1   3
ATOM      3  S   Q4Q d   1      28.756  19.968  11.810  0.00  0.00     0.230 S 
ATOM      4  O1  Q4Q d   1      27.390  19.639  11.971  0.00  0.00    -0.206 OA
ATOM      5  O2  Q4Q d   1      29.700  18.942  11.513  0.00  0.00    -0.206 OA
BRANCH   3   6
ATOM      6  C4  Q4Q d   1      28.860  21.191  10.531  0.00  0.00     0.070 C 
ATOM      7  H4  Q4Q d   1      28.085  21.943  10.741  0.00  0.00     0.066 H 
ATOM      8  H5  Q4Q d   1      28.632  20.684   9.582  0.00  0.00     0.066 H 
BRANCH   6   9
ATOM      9  C3  Q4Q d   1      30.194  21.958  10.328  0.00  0.00    -0.043 A 
ATOM     10  C2  Q4Q d   1      31.155  21.521   9.448  0.00  0.00    -0.075 A 
ATOM     11  C10 Q4Q d   1      32.366  22.190   9.283  0.00  0.00    -0.077 A 
ATOM     12  H2  Q4Q d   1      30.965  20.628   8.864  0.00  0.00     0.084 H 
ATOM     13  C9  Q4Q d   1      32.613  23.346  10.024  0.00  0.00    -0.062 A 
ATOM     14  H11 Q4Q d   1      33.108  21.816   8.587  0.00  0.00     0.084 H 
ATOM     15  C8  Q4Q d   1      31.649  23.804  10.905  0.00  0.00    -0.077 A 
ATOM     16  C7  Q4Q d   1      30.434  23.121  11.061  0.00  0.00    -0.075 A 
ATOM     17  H10 Q4Q d   1      31.835  24.703  11.482  0.00  0.00     0.084 H 
ATOM     18  H9  Q4Q d   1      29.684  23.495  11.748  0.00  0.00     0.084 H 
BRANCH  13  19
ATOM     19  C08 Q4Q d   1      33.909  24.099   9.852  0.00  0.00    -0.051 C 
ATOM     20  H16 Q4Q d   1      33.915  24.975  10.518  0.00  0.00     0.033 H 
ATOM     21  H17 Q4Q d   1      34.004  24.431   8.808  0.00  0.00     0.033 H 
ATOM     22  H18 Q4Q d   1      34.752  23.440  10.105  0.00  0.00     0.033 H 
ENDBRANCH  13  19
ENDBRANCH   6   9
ENDBRANCH   3   6
ENDBRANCH   1   3
BRANCH   1  23
ATOM     23  C11 Q4Q d   1      28.470  21.615  14.028  0.00  0.00     0.025 C 
ATOM     24  H12 Q4Q d   1      28.044  22.305  13.285  0.00  0.00     0.067 H 
ATOM     25  H13 Q4Q d   1      29.164  22.163  14.682  0.00  0.00     0.067 H 
BRANCH  23  26
ATOM     26  C12 Q4Q d   1      27.295  21.109  14.919  0.00  0.00     0.098 C 
ATOM     27  H14 Q4Q d   1      27.569  21.291  15.969  0.00  0.00     0.078 H 
ATOM     28  H15 Q4Q d   1      26.403  21.701  14.665  0.00  0.00     0.078 H 
BRANCH  26  29
ATOM     29  N2  Q4Q d   1      26.930  19.646  14.785  0.00  0.00    -0.070 N 
ATOM     30  H3  Q4Q d   1      27.441  19.209  14.034  0.00  0.00     0.279 HD
BRANCH  29  31
ATOM     31  C13 Q4Q d   1      25.434  19.516  14.589  0.00  0.00     0.080 C 
ATOM     32  H19 Q4Q d   1      24.980  19.339  15.575  0.00  0.00     0.075 H 
ATOM     33  H20 Q4Q d   1      25.254  18.646  13.941  0.00  0.00     0.075 H 
BRANCH  31  34
ATOM     34  C14 Q4Q d   1      24.735  20.718  13.962  0.00  0.00    -0.053 C 
ATOM     35  H21 Q4Q d   1      23.659  20.509  13.870  0.00  0.00     0.029 H 
ATOM     36  H22 Q4Q d   1      25.158  20.909  12.965  0.00  0.00     0.029 H 
ATOM     37  H23 Q4Q d   1      24.884  21.602  14.599  0.00  0.00     0.029 H 
ENDBRANCH  31  34
ENDBRANCH  29  31
BRANCH  29  38
ATOM     38  C17 Q4Q d   1      27.223  18.996  16.129  0.00  0.00     0.080 C 
ATOM     39  H24 Q4Q d   1      26.888  19.686  16.917  0.00  0.00     0.075 H 
ATOM     40  H25 Q4Q d   1      28.311  18.854  16.205  0.00  0.00     0.075 H 
BRANCH  38  41
ATOM     41  C6  Q4Q d   1      26.562  17.655  16.374  0.00  0.00    -0.053 C 
ATOM     42  H6  Q4Q d   1      26.844  17.284  17.370  0.00  0.00     0.029 H 
ATOM     43  H7  Q4Q d   1      26.893  16.938  15.608  0.00  0.00     0.029 H 
ATOM     44  H8  Q4Q d   1      25.469  17.770  16.321  0.00  0.00     0.029 H 
ENDBRANCH  38  41
ENDBRANCH  29  38
ENDBRANCH  26  29
ENDBRANCH  23  26
ENDBRANCH   1  23
TORSDOF 11
