REMARK  10 active torsions:
REMARK  status: ('A' for Active; 'I' for Inactive)
REMARK    1  A    between atoms: N1_2  and  S_1 
REMARK    2  A    between atoms: S_1  and  C4_8 
REMARK    3  A    between atoms: C11_14  and  N1_2 
REMARK    4  A    between atoms: C12_15  and  N2_5 
REMARK    5  A    between atoms: N2_5  and  C13_16 
REMARK    6  A    between atoms: N2_5  and  C15_17 
REMARK    7  A    between atoms: C4_8  and  C3_7 
REMARK    8  A    between atoms: C15_17  and  C6_9 
REMARK    9  A    between atoms: C11_14  and  C12_15 
REMARK   10  A    between atoms: C13_16  and  C14_18 
ROOT
ATOM      1  C11 A36 d   1      29.154  20.515  13.998  0.00  0.00     0.025 C 
ATOM      2  H12 A36 d   1      29.844  20.998  14.705  0.00  0.00     0.067 H 
ATOM      3  H13 A36 d   1      29.368  19.437  13.956  0.00  0.00     0.067 H 
ENDROOT
BRANCH   1   4
ATOM      4  N1  A36 d   1      29.426  21.074  12.660  0.00  0.00    -0.318 N 
ATOM      5  H1  A36 d   1      29.601  22.050  12.532  0.00  0.00     0.172 HD
BRANCH   4   6
ATOM      6  S   A36 d   1      29.431  20.006  11.353  0.00  0.00     0.230 S 
ATOM      7  O1  A36 d   1      30.572  19.182  11.480  0.00  0.00    -0.206 OA
ATOM      8  O2  A36 d   1      28.137  19.424  11.350  0.00  0.00    -0.206 OA
BRANCH   6   9
ATOM      9  C4  A36 d   1      29.596  20.991   9.879  0.00  0.00     0.070 C 
ATOM     10  H4  A36 d   1      28.751  21.693   9.829  0.00  0.00     0.066 H 
ATOM     11  H5  A36 d   1      29.570  20.323   9.005  0.00  0.00     0.066 H 
BRANCH   9  12
ATOM     12  C3  A36 d   1      30.893  21.788   9.843  0.00  0.00    -0.042 A 
ATOM     13  C2  A36 d   1      31.977  21.403   9.015  0.00  0.00    -0.073 A 
ATOM     14  C10 A36 d   1      33.170  22.133   8.991  0.00  0.00    -0.045 A 
ATOM     15  H2  A36 d   1      31.880  20.525   8.387  0.00  0.00     0.084 H 
ATOM     16  C9  A36 d   1      33.266  23.264   9.819  0.00  0.00     0.116 A 
ATOM     17  H11 A36 d   1      33.995  21.835   8.354  0.00  0.00     0.088 H 
ATOM     18  C8  A36 d   1      32.230  23.681  10.649  0.00  0.00    -0.045 A 
ATOM     19  F01 A36 d   1      34.427  23.995   9.813  0.00  0.00    -0.206 F 
ATOM     20  C7  A36 d   1      31.054  22.939  10.655  0.00  0.00    -0.073 A 
ATOM     21  H10 A36 d   1      32.337  24.560  11.274  0.00  0.00     0.088 H 
ATOM     22  H9  A36 d   1      30.238  23.249  11.298  0.00  0.00     0.084 H 
ENDBRANCH   9  12
ENDBRANCH   6   9
ENDBRANCH   4   6
ENDBRANCH   1   4
BRANCH   1  23
ATOM     23  C12 A36 d   1      27.723  20.683  14.557  0.00  0.00     0.098 C 
ATOM     24  H14 A36 d   1      27.750  20.682  15.657  0.00  0.00     0.078 H 
ATOM     25  H15 A36 d   1      27.293  21.631  14.201  0.00  0.00     0.078 H 
BRANCH  23  26
ATOM     26  N2  A36 d   1      26.871  19.504  14.056  0.00  0.00    -0.070 N 
ATOM     27  H3  A36 d   1      27.034  19.426  13.064  0.00  0.00     0.279 HD
BRANCH  26  28
ATOM     28  C13 A36 d   1      25.410  19.746  14.254  0.00  0.00     0.080 C 
ATOM     29  H16 A36 d   1      25.206  19.916  15.322  0.00  0.00     0.075 H 
ATOM     30  H17 A36 d   1      24.842  18.870  13.907  0.00  0.00     0.075 H 
BRANCH  28  31
ATOM     31  C14 A36 d   1      24.999  20.956  13.466  0.00  0.00    -0.053 C 
ATOM     32  H20 A36 d   1      23.924  21.139  13.608  0.00  0.00     0.029 H 
ATOM     33  H21 A36 d   1      25.204  20.785  12.399  0.00  0.00     0.029 H 
ATOM     34  H22 A36 d   1      25.569  21.831  13.813  0.00  0.00     0.029 H 
ENDBRANCH  28  31
ENDBRANCH  26  28
BRANCH  26  35
ATOM     35  C15 A36 d   1      27.259  18.184  14.681  0.00  0.00     0.080 C 
ATOM     36  H18 A36 d   1      28.331  18.008  14.510  0.00  0.00     0.075 H 
ATOM     37  H19 A36 d   1      26.675  17.379  14.210  0.00  0.00     0.075 H 
BRANCH  35  38
ATOM     38  C6  A36 d   1      26.985  18.182  16.202  0.00  0.00    -0.053 C 
ATOM     39  H6  A36 d   1      27.277  17.210  16.626  0.00  0.00     0.029 H 
ATOM     40  H7  A36 d   1      25.913  18.353  16.382  0.00  0.00     0.029 H 
ATOM     41  H8  A36 d   1      27.569  18.982  16.681  0.00  0.00     0.029 H 
ENDBRANCH  35  38
ENDBRANCH  26  35
ENDBRANCH  23  26
ENDBRANCH   1  23
TORSDOF 10
