REMARK  10 active torsions:
REMARK  status: ('A' for Active; 'I' for Inactive)
REMARK    1  A    between atoms: N11_2  and  S02_1 
REMARK    2  A    between atoms: S02_1  and  C03_9 
REMARK    3  A    between atoms: C12_15  and  N11_2 
REMARK    4  A    between atoms: C13_16  and  N14_5 
REMARK    5  A    between atoms: N14_5  and  C17_17 
REMARK    6  A    between atoms: N14_5  and  C15_18 
REMARK    7  A    between atoms: C03_9  and  C04_7 
REMARK    8  A    between atoms: C17_17  and  C18_10 
REMARK    9  A    between atoms: C12_15  and  C13_16 
REMARK   10  A    between atoms: C15_18  and  C16_19 
ROOT
ATOM      1  C12 ZN4 d   1      28.223  21.336  13.772  0.00  0.00     0.025 C 
ATOM      2  H12 ZN4 d   1      27.636  21.712  12.921  0.00  0.00     0.067 H 
ATOM      3  H13 ZN4 d   1      28.651  22.184  14.326  0.00  0.00     0.067 H 
ENDROOT
BRANCH   1   4
ATOM      4  N11 ZN4 d   1      29.389  20.593  13.180  0.00  0.00    -0.318 N 
ATOM      5  H1  ZN4 d   1      30.279  20.676  13.629  0.00  0.00     0.172 HD
BRANCH   4   6
ATOM      6  S02 ZN4 d   1      29.281  19.631  11.806  0.00  0.00     0.230 S 
ATOM      7  O01 ZN4 d   1      28.005  19.031  11.728  0.00  0.00    -0.206 OA
ATOM      8  O19 ZN4 d   1      30.424  18.797  11.858  0.00  0.00    -0.206 OA
BRANCH   6   9
ATOM      9  C03 ZN4 d   1      29.442  20.686  10.368  0.00  0.00     0.070 C 
ATOM     10  H4  ZN4 d   1      28.589  21.381  10.385  0.00  0.00     0.066 H 
ATOM     11  H5  ZN4 d   1      29.367  20.035   9.485  0.00  0.00     0.066 H 
BRANCH   9  12
ATOM     12  C04 ZN4 d   1      30.695  21.530  10.188  0.00  0.00    -0.043 A 
ATOM     13  C05 ZN4 d   1      31.789  21.092   9.425  0.00  0.00    -0.074 A 
ATOM     14  C06 ZN4 d   1      32.946  21.854   9.285  0.00  0.00    -0.061 A 
ATOM     15  H2  ZN4 d   1      31.731  20.130   8.929  0.00  0.00     0.084 H 
ATOM     16  C07 ZN4 d   1      33.029  23.089   9.911  0.00  0.00     0.034 A 
ATOM     17  H11 ZN4 d   1      33.775  21.485   8.692  0.00  0.00     0.086 H 
ATOM     18 CL8  ZN4 d   1      34.459  24.044   9.740  0.00  0.00    -0.084 Cl
ATOM     19  C09 ZN4 d   1      31.973  23.561  10.670  0.00  0.00    -0.061 A 
ATOM     20  C10 ZN4 d   1      30.825  22.788  10.796  0.00  0.00    -0.074 A 
ATOM     21  H10 ZN4 d   1      32.040  24.525  11.162  0.00  0.00     0.086 H 
ATOM     22  H9  ZN4 d   1      30.000  23.171  11.386  0.00  0.00     0.084 H 
ENDBRANCH   9  12
ENDBRANCH   6   9
ENDBRANCH   4   6
ENDBRANCH   1   4
BRANCH   1  23
ATOM     23  C13 ZN4 d   1      27.190  20.650  14.748  0.00  0.00     0.098 C 
ATOM     24  H14 ZN4 d   1      27.686  20.488  15.716  0.00  0.00     0.078 H 
ATOM     25  H15 ZN4 d   1      26.337  21.332  14.882  0.00  0.00     0.078 H 
BRANCH  23  26
ATOM     26  N14 ZN4 d   1      26.654  19.304  14.253  0.00  0.00    -0.070 N 
ATOM     27  H3  ZN4 d   1      27.378  18.804  13.762  0.00  0.00     0.279 HD
BRANCH  26  28
ATOM     28  C17 ZN4 d   1      25.433  19.474  13.373  0.00  0.00     0.080 C 
ATOM     29  H16 ZN4 d   1      24.789  18.592  13.507  0.00  0.00     0.075 H 
ATOM     30  H17 ZN4 d   1      25.770  19.527  12.327  0.00  0.00     0.075 H 
BRANCH  28  31
ATOM     31  C18 ZN4 d   1      24.602  20.716  13.667  0.00  0.00    -0.053 C 
ATOM     32  H6  ZN4 d   1      23.742  20.753  12.982  0.00  0.00     0.029 H 
ATOM     33  H7  ZN4 d   1      25.222  21.614  13.526  0.00  0.00     0.029 H 
ATOM     34  H8  ZN4 d   1      24.241  20.679  14.706  0.00  0.00     0.029 H 
ENDBRANCH  28  31
ENDBRANCH  26  28
BRANCH  26  35
ATOM     35  C15 ZN4 d   1      26.166  18.528  15.454  0.00  0.00     0.080 C 
ATOM     36  H18 ZN4 d   1      25.066  18.530  15.442  0.00  0.00     0.075 H 
ATOM     37  H19 ZN4 d   1      26.524  19.036  16.361  0.00  0.00     0.075 H 
BRANCH  35  38
ATOM     38  C16 ZN4 d   1      26.640  17.082  15.499  0.00  0.00    -0.053 C 
ATOM     39  H20 ZN4 d   1      26.241  16.593  16.400  0.00  0.00     0.029 H 
ATOM     40  H21 ZN4 d   1      27.739  17.057  15.524  0.00  0.00     0.029 H 
ATOM     41  H22 ZN4 d   1      26.282  16.551  14.605  0.00  0.00     0.029 H 
ENDBRANCH  35  38
ENDBRANCH  26  35
ENDBRANCH  23  26
ENDBRANCH   1  23
TORSDOF 10
