REMARK  9 active torsions:
REMARK  status: ('A' for Active; 'I' for Inactive)
REMARK    1  A    between atoms: S1_2  and  N4_4 
REMARK    2  A    between atoms: S1_2  and  C5_10 
REMARK    3  A    between atoms: N4_4  and  C22_5 
REMARK    4  A    between atoms: C22_5  and  C21_6 
REMARK    5  A    between atoms: C21_6  and  N17_7 
REMARK    6  A    between atoms: N17_7  and  C16_8 
REMARK    7  A    between atoms: N17_7  and  C11_16 
REMARK    8  A    between atoms: C16_8  and  C20_9 
REMARK    9  A    between atoms: C11_16  and  C12_18 
ROOT
ATOM      1  C22 B3Z d   1      28.164  20.974  15.282  0.00  0.00     0.025 C 
ATOM      2  H2  B3Z d   1      28.349  21.694  16.093  0.00  0.00     0.067 H 
ATOM      3  H3  B3Z d   1      28.441  19.964  15.618  0.00  0.00     0.067 H 
ENDROOT
BRANCH   1   4
ATOM      4  N4  B3Z d   1      29.082  21.331  14.159  0.00  0.00    -0.314 N 
ATOM      5  H1  B3Z d   1      29.409  22.271  14.067  0.00  0.00     0.172 HD
BRANCH   4   6
ATOM      6  S1  B3Z d   1      29.572  20.164  13.044  0.00  0.00     0.261 S 
ATOM      7  O1  B3Z d   1      28.552  19.241  12.778  0.00  0.00    -0.200 OA
ATOM      8  O2  B3Z d   1      30.807  19.681  13.584  0.00  0.00    -0.200 OA
BRANCH   6   9
ATOM      9  C5  B3Z d   1      29.967  21.150  11.684  0.00  0.00     0.117 A 
ATOM     10  C6  B3Z d   1      29.896  20.777  10.315  0.00  0.00    -0.057 A 
ATOM     11  C7  B3Z d   1      30.209  21.656   9.284  0.00  0.00    -0.081 A 
ATOM     12  H12 B3Z d   1      29.586  19.769  10.065  0.00  0.00     0.086 H 
ATOM     13  C8  B3Z d   1      30.603  22.960   9.526  0.00  0.00    -0.080 A 
ATOM     14  H13 B3Z d   1      30.142  21.309   8.259  0.00  0.00     0.083 H 
ATOM     15  C9  B3Z d   1      30.685  23.386  10.843  0.00  0.00    -0.044 A 
ATOM     16  H14 B3Z d   1      30.841  23.631   8.708  0.00  0.00     0.083 H 
ATOM     17  C10 B3Z d   1      30.366  22.486  11.874  0.00  0.00     0.139 A 
ATOM     18  H15 B3Z d   1      30.991  24.400  11.074  0.00  0.00     0.088 H 
ATOM     19  F09 B3Z d   1      30.474  22.923  13.077  0.00  0.00    -0.204 F 
ENDBRANCH   6   9
ENDBRANCH   4   6
ENDBRANCH   1   4
BRANCH   1  20
ATOM     20  C21 B3Z d   1      26.637  20.964  15.020  0.00  0.00     0.098 C 
ATOM     21  H4  B3Z d   1      26.406  21.637  14.181  0.00  0.00     0.078 H 
ATOM     22  H5  B3Z d   1      26.110  21.308  15.922  0.00  0.00     0.078 H 
BRANCH  20  23
ATOM     23  N17 B3Z d   1      26.180  19.547  14.675  0.00  0.00    -0.070 N 
ATOM     24  H6  B3Z d   1      26.898  19.063  14.159  0.00  0.00     0.279 HD
BRANCH  23  25
ATOM     25  C16 B3Z d   1      24.915  19.675  13.852  0.00  0.00     0.080 C 
ATOM     26  H7  B3Z d   1      24.099  19.984  14.522  0.00  0.00     0.075 H 
ATOM     27  H8  B3Z d   1      24.683  18.689  13.423  0.00  0.00     0.075 H 
BRANCH  25  28
ATOM     28  C20 B3Z d   1      24.999  20.681  12.711  0.00  0.00    -0.053 C 
ATOM     29  H9  B3Z d   1      24.040  20.706  12.172  0.00  0.00     0.029 H 
ATOM     30  H10 B3Z d   1      25.801  20.384  12.019  0.00  0.00     0.029 H 
ATOM     31  H11 B3Z d   1      25.217  21.680  13.118  0.00  0.00     0.029 H 
ENDBRANCH  25  28
ENDBRANCH  23  25
BRANCH  23  32
ATOM     32  C11 B3Z d   1      25.834  18.780  15.935  0.00  0.00     0.080 C 
ATOM     33  H16 B3Z d   1      25.048  18.054  15.680  0.00  0.00     0.075 H 
ATOM     34  H17 B3Z d   1      25.444  19.500  16.669  0.00  0.00     0.075 H 
BRANCH  32  35
ATOM     35  C12 B3Z d   1      26.980  18.013  16.598  0.00  0.00    -0.053 C 
ATOM     36  H18 B3Z d   1      26.607  17.500  17.497  0.00  0.00     0.029 H 
ATOM     37  H19 B3Z d   1      27.776  18.717  16.881  0.00  0.00     0.029 H 
ATOM     38  H20 B3Z d   1      27.381  17.270  15.892  0.00  0.00     0.029 H 
ENDBRANCH  32  35
ENDBRANCH  23  32
ENDBRANCH  20  23
ENDBRANCH   1  20
TORSDOF 9
