REMARK  10 active torsions:
REMARK  status: ('A' for Active; 'I' for Inactive)
REMARK    1  A    between atoms: S02_2  and  N03_3 
REMARK    2  A    between atoms: S02_2  and  C11_11 
REMARK    3  A    between atoms: N03_3  and  C04_4 
REMARK    4  A    between atoms: C04_4  and  C05_5 
REMARK    5  A    between atoms: C05_5  and  N06_6 
REMARK    6  A    between atoms: N06_6  and  C07_7 
REMARK    7  A    between atoms: N06_6  and  C09_9 
REMARK    8  A    between atoms: C07_7  and  C08_8 
REMARK    9  A    between atoms: C09_9  and  C10_10 
REMARK   10  A    between atoms: C13_13  and  C14_14 
ROOT
ATOM      1  C04 Z5K d   1      28.770  21.428  13.893  0.00  0.00     0.025 C 
ATOM      2  H2  Z5K d   1      28.203  21.530  12.956  0.00  0.00     0.067 H 
ATOM      3  H3  Z5K d   1      29.104  22.421  14.229  0.00  0.00     0.067 H 
ENDROOT
BRANCH   1   4
ATOM      4  N03 Z5K d   1      29.963  20.626  13.610  0.00  0.00    -0.314 N 
ATOM      5  H1  Z5K d   1      30.730  20.520  14.243  0.00  0.00     0.172 HD
BRANCH   4   6
ATOM      6  S02 Z5K d   1      29.886  19.895  12.073  0.00  0.00     0.258 S 
ATOM      7  O01 Z5K d   1      30.688  18.714  12.024  0.00  0.00    -0.201 OA
ATOM      8  O21 Z5K d   1      28.607  19.309  11.777  0.00  0.00    -0.201 OA
BRANCH   6   9
ATOM      9  C11 Z5K d   1      30.293  21.049  10.822  0.00  0.00     0.080 A 
ATOM     10  C12 Z5K d   1      31.529  21.021  10.173  0.00  0.00    -0.046 A 
ATOM     11  C13 Z5K d   1      31.818  21.953   9.165  0.00  0.00     0.049 A 
ATOM     12  H17 Z5K d   1      32.267  20.277  10.449  0.00  0.00     0.087 H 
ATOM     13  C18 Z5K d   1      30.861  22.926   8.819  0.00  0.00    -0.068 A 
ATOM     14  C19 Z5K d   1      29.628  22.951   9.471  0.00  0.00    -0.081 A 
ATOM     15  H18 Z5K d   1      31.082  23.654   8.047  0.00  0.00     0.084 H 
ATOM     16  C20 Z5K d   1      29.343  22.016  10.468  0.00  0.00    -0.060 A 
ATOM     17  H19 Z5K d   1      28.890  23.698   9.203  0.00  0.00     0.083 H 
ATOM     18  H20 Z5K d   1      28.383  22.038  10.970  0.00  0.00     0.085 H 
BRANCH  11  19
ATOM     19  C14 Z5K d   1      33.144  21.941   8.433  0.00  0.00     0.417 C 
ATOM     20  F15 Z5K d   1      33.806  23.054   8.795  0.00  0.00    -0.166 F 
ATOM     21  F16 Z5K d   1      32.950  21.885   7.099  0.00  0.00    -0.166 F 
ATOM     22  F17 Z5K d   1      33.840  20.867   8.797  0.00  0.00    -0.166 F 
ENDBRANCH  11  19
ENDBRANCH   6   9
ENDBRANCH   4   6
ENDBRANCH   1   4
BRANCH   1  23
ATOM     23  C05 Z5K d   1      27.837  20.880  14.936  0.00  0.00     0.098 C 
ATOM     24  H4  Z5K d   1      27.222  21.716  15.299  0.00  0.00     0.078 H 
ATOM     25  H5  Z5K d   1      28.455  20.495  15.760  0.00  0.00     0.078 H 
BRANCH  23  26
ATOM     26  N06 Z5K d   1      26.916  19.797  14.531  0.00  0.00    -0.070 N 
ATOM     27  H6  Z5K d   1      27.292  19.442  13.666  0.00  0.00     0.279 HD
BRANCH  26  28
ATOM     28  C07 Z5K d   1      25.561  20.256  14.202  0.00  0.00     0.080 C 
ATOM     29  H7  Z5K d   1      25.375  21.179  14.770  0.00  0.00     0.075 H 
ATOM     30  H8  Z5K d   1      24.857  19.476  14.528  0.00  0.00     0.075 H 
BRANCH  28  31
ATOM     31  C08 Z5K d   1      25.278  20.548  12.754  0.00  0.00    -0.053 C 
ATOM     32  H9  Z5K d   1      24.235  20.881  12.644  0.00  0.00     0.029 H 
ATOM     33  H10 Z5K d   1      25.437  19.637  12.158  0.00  0.00     0.029 H 
ATOM     34  H11 Z5K d   1      25.955  21.340  12.400  0.00  0.00     0.029 H 
ENDBRANCH  28  31
ENDBRANCH  26  28
BRANCH  26  35
ATOM     35  C09 Z5K d   1      26.922  18.659  15.451  0.00  0.00     0.080 C 
ATOM     36  H12 Z5K d   1      25.877  18.389  15.663  0.00  0.00     0.075 H 
ATOM     37  H13 Z5K d   1      27.414  18.978  16.382  0.00  0.00     0.075 H 
BRANCH  35  38
ATOM     38  C10 Z5K d   1      27.623  17.434  14.956  0.00  0.00    -0.053 C 
ATOM     39  H14 Z5K d   1      27.567  16.645  15.721  0.00  0.00     0.029 H 
ATOM     40  H15 Z5K d   1      28.677  17.672  14.751  0.00  0.00     0.029 H 
ATOM     41  H16 Z5K d   1      27.140  17.083  14.032  0.00  0.00     0.029 H 
ENDBRANCH  35  38
ENDBRANCH  26  35
ENDBRANCH  23  26
ENDBRANCH   1  23
TORSDOF 10
