REMARK  9 active torsions:
REMARK  status: ('A' for Active; 'I' for Inactive)
REMARK    1  A    between atoms: S1_2  and  N4_4 
REMARK    2  A    between atoms: S1_2  and  C5_10 
REMARK    3  A    between atoms: N4_4  and  C22_5 
REMARK    4  A    between atoms: C22_5  and  C21_6 
REMARK    5  A    between atoms: C21_6  and  N17_7 
REMARK    6  A    between atoms: N17_7  and  C16_8 
REMARK    7  A    between atoms: N17_7  and  C11_16 
REMARK    8  A    between atoms: C16_8  and  C20_9 
REMARK    9  A    between atoms: C11_16  and  C12_17 
ROOT
ATOM      1  C22 B3W d   1      28.543  21.664  13.688  0.00  0.00     0.025 C 
ATOM      2  H2  B3W d   1      28.120  21.837  12.687  0.00  0.00     0.067 H 
ATOM      3  H3  B3W d   1      29.104  22.555  14.008  0.00  0.00     0.067 H 
ENDROOT
BRANCH   1   4
ATOM      4  N4  B3W d   1      29.500  20.530  13.592  0.00  0.00    -0.314 N 
ATOM      5  H1  B3W d   1      30.177  20.378  14.312  0.00  0.00     0.172 HD
BRANCH   4   6
ATOM      6  S1  B3W d   1      29.432  19.521  12.278  0.00  0.00     0.258 S 
ATOM      7  O2  B3W d   1      28.071  19.267  11.972  0.00  0.00    -0.201 OA
ATOM      8  O1  B3W d   1      30.265  18.403  12.544  0.00  0.00    -0.201 OA
BRANCH   6   9
ATOM      9  C5  B3W d   1      30.084  20.406  11.004  0.00  0.00     0.079 A 
ATOM     10  C10 B3W d   1      29.352  21.405  10.327  0.00  0.00    -0.059 A 
ATOM     11  C9  B3W d   1      29.911  22.134   9.275  0.00  0.00    -0.060 A 
ATOM     12  H12 B3W d   1      28.332  21.611  10.631  0.00  0.00     0.086 H 
ATOM     13  C8  B3W d   1      31.222  21.848   8.897  0.00  0.00     0.034 A 
ATOM     14  H13 B3W d   1      29.340  22.902   8.766  0.00  0.00     0.086 H 
ATOM     15  C7  B3W d   1      31.970  20.877   9.533  0.00  0.00    -0.060 A 
ATOM     16 CL8  B3W d   1      31.965  22.708   7.603  0.00  0.00    -0.084 Cl
ATOM     17  C6  B3W d   1      31.390  20.167  10.575  0.00  0.00    -0.059 A 
ATOM     18  H14 B3W d   1      32.989  20.674   9.225  0.00  0.00     0.086 H 
ATOM     19  H15 B3W d   1      31.972  19.400  11.073  0.00  0.00     0.086 H 
ENDBRANCH   6   9
ENDBRANCH   4   6
ENDBRANCH   1   4
BRANCH   1  20
ATOM     20  C21 B3W d   1      27.358  21.459  14.682  0.00  0.00     0.098 C 
ATOM     21  H4  B3W d   1      26.563  22.186  14.462  0.00  0.00     0.078 H 
ATOM     22  H5  B3W d   1      27.713  21.605  15.713  0.00  0.00     0.078 H 
BRANCH  20  23
ATOM     23  N17 B3W d   1      26.815  20.049  14.526  0.00  0.00    -0.070 N 
ATOM     24  H6  B3W d   1      27.520  19.544  14.013  0.00  0.00     0.279 HD
BRANCH  23  25
ATOM     25  C16 B3W d   1      25.557  19.961  13.680  0.00  0.00     0.080 C 
ATOM     26  H7  B3W d   1      24.814  19.344  14.207  0.00  0.00     0.075 H 
ATOM     27  H8  B3W d   1      25.806  19.492  12.717  0.00  0.00     0.075 H 
BRANCH  25  28
ATOM     28  C20 B3W d   1      24.955  21.352  13.418  0.00  0.00    -0.053 C 
ATOM     29  H9  B3W d   1      24.048  21.249  12.804  0.00  0.00     0.029 H 
ATOM     30  H10 B3W d   1      25.689  21.975  12.886  0.00  0.00     0.029 H 
ATOM     31  H11 B3W d   1      24.697  21.826  14.376  0.00  0.00     0.029 H 
ENDBRANCH  25  28
ENDBRANCH  23  25
BRANCH  23  32
ATOM     32  C11 B3W d   1      26.680  19.336  15.848  0.00  0.00     0.080 C 
ATOM     33  H16 B3W d   1      25.613  19.202  16.079  0.00  0.00     0.075 H 
ATOM     34  H17 B3W d   1      27.152  19.942  16.635  0.00  0.00     0.075 H 
BRANCH  32  35
ATOM     35  C12 B3W d   1      27.356  17.971  15.794  0.00  0.00    -0.053 C 
ATOM     36  H18 B3W d   1      27.246  17.469  16.766  0.00  0.00     0.029 H 
ATOM     37  H19 B3W d   1      28.424  18.100  15.567  0.00  0.00     0.029 H 
ATOM     38  H20 B3W d   1      26.885  17.359  15.010  0.00  0.00     0.029 H 
ENDBRANCH  32  35
ENDBRANCH  23  32
ENDBRANCH  20  23
ENDBRANCH   1  20
TORSDOF 9
