REMARK WARNING: 32 MAX_TORS EXCEEDED!!!
REMARK  49 active torsions:
REMARK  status: ('A' for Active; 'I' for Inactive)
REMARK    1  A    between atoms: N_1  and  CA_2 
REMARK    2  A    between atoms: CA_2  and  C_3 
REMARK       I    between atoms: C_3  and  N_5 
REMARK    3  A    between atoms: N_5  and  CA_6 
REMARK    4  A    between atoms: CA_6  and  C_7 
REMARK    5  A    between atoms: CA_6  and  CB_9 
REMARK       I    between atoms: C_7  and  N_11 
REMARK    6  A    between atoms: CB_9  and  OG_10 
REMARK    7  A    between atoms: CA_12  and  C_13 
REMARK       I    between atoms: C_13  and  N_18 
REMARK    8  A    between atoms: CA_19  and  C_20 
REMARK       I    between atoms: C_20  and  N_25 
REMARK    9  A    between atoms: N_25  and  CA_26 
REMARK   10  A    between atoms: CA_26  and  C_27 
REMARK   11  A    between atoms: CA_26  and  CB_29 
REMARK       I    between atoms: C_27  and  N_34 
REMARK   12  A    between atoms: CB_29  and  CG_30 
REMARK   13  A    between atoms: CG_30  and  CD_31 
REMARK   14  A    between atoms: CD_31  and  CE_32 
REMARK   15  A    between atoms: CE_32  and  NZ_33 
REMARK   16  A    between atoms: N_34  and  CA_35 
REMARK   17  A    between atoms: CA_35  and  C_36 
REMARK   18  A    between atoms: CA_35  and  CB_38 
REMARK       I    between atoms: C_36  and  N_43 
REMARK   19  A    between atoms: CB_38  and  CG_39 
REMARK   20  A    between atoms: CG_39  and  CD_40 
REMARK   21  A    between atoms: CD_40  and  CE_41 
REMARK   22  A    between atoms: CE_41  and  NZ_42 
REMARK   23  A    between atoms: N_43  and  CA_44 
REMARK   24  A    between atoms: CA_44  and  C_45 
REMARK   25  A    between atoms: CA_44  and  CB_47 
REMARK       I    between atoms: C_45  and  N_52 
REMARK   26  A    between atoms: CB_47  and  CG_48 
REMARK   27  A    between atoms: CG_48  and  CD_49 
REMARK   28  A    between atoms: CD_49  and  CE_50 
REMARK   29  A    between atoms: CE_50  and  NZ_51 
REMARK   30  A    between atoms: N_52  and  CA_53 
REMARK   31  A    between atoms: CA_53  and  C_54 
REMARK   32  A    between atoms: CA_53  and  CB_56 
REMARK       I    between atoms: C_54  and  N_63 
REMARK   33  A    between atoms: CB_56  and  CG_57 
REMARK   34  A    between atoms: CG_57  and  CD_58 
REMARK   35  A    between atoms: CD_58  and  NE_59 
REMARK       I    between atoms: NE_59  and  CZ_60 
REMARK       I    between atoms: CZ_60  and  NH1_61 
REMARK   36  A    between atoms: N_63  and  CA_64 
REMARK   37  A    between atoms: CA_64  and  C_65 
REMARK   38  A    between atoms: CA_64  and  CB_67 
REMARK       I    between atoms: C_65  and  N_72 
REMARK   39  A    between atoms: CB_67  and  CG_68 
REMARK   40  A    between atoms: CG_68  and  CD_69 
REMARK   41  A    between atoms: CD_69  and  CE_70 
REMARK   42  A    between atoms: CE_70  and  NZ_71 
REMARK   43  A    between atoms: N_72  and  CA_73 
REMARK   44  A    between atoms: CA_73  and  C_74 
REMARK   45  A    between atoms: CA_73  and  CB_76 
REMARK       I    between atoms: C_74  and  N_79 
REMARK   46  A    between atoms: CB_76  and  CG1_77 
REMARK   47  A    between atoms: CB_76  and  CG2_78 
REMARK   48  A    between atoms: N_79  and  CA_80 
REMARK   49  A    between atoms: CA_80  and  C_81 
ROOT
ATOM      1  C   LYS d   1      49.798   2.066  -1.812  0.00  0.00     0.241 C 
ATOM      2  O   LYS d   1      49.921   1.371  -0.825  0.00  0.00    -0.271 OA
ATOM      3  N   LYS d   1      50.201   1.690  -3.020  0.00  0.00    -0.346 N 
ATOM      4  H51 LYS d   1      49.990   2.268  -3.808  0.00  0.00     0.163 HD
ENDROOT
BRANCH   1   5
ATOM      5  CA  LYS d   1      49.088   3.386  -1.717  0.00  0.00     0.089 C 
ATOM      6  H39 LYS d   1      48.546   3.583  -2.654  0.00  0.00     0.087 H 
BRANCH   5   7
ATOM      7  N   LYS d   1      48.139   3.305  -0.613  0.00  0.00    -0.346 N 
ATOM      8  C   LYS d   1      46.960   3.900  -0.639  0.00  0.00     0.241 C 
ATOM      9  O   LYS d   1      46.552   4.534  -1.596  0.00  0.00    -0.271 OA
ATOM     10  H38 LYS d   1      48.391   2.777   0.198  0.00  0.00     0.163 HD
BRANCH   8  11
ATOM     11  CA  LYS d   1      46.135   3.784   0.628  0.00  0.00     0.089 C 
ATOM     12  H26 LYS d   1      45.071   3.736   0.355  0.00  0.00     0.087 H 
BRANCH  11  13
ATOM     13  N   LYS d   1      46.471   2.603   1.395  0.00  0.00    -0.346 N 
ATOM     14  C   PRO d   1      46.041   1.388   1.077  0.00  0.00     0.241 C 
ATOM     15  O   PRO d   1      45.235   1.164   0.163  0.00  0.00    -0.271 OA
ATOM     16  H25 LYS d   1      47.054   2.707   2.201  0.00  0.00     0.163 HD
BRANCH  14  17
ATOM     17  CA  PRO d   1      46.602   0.260   1.945  0.00  0.00     0.091 C 
ATOM     18  N   PRO d   1      45.632  -0.831   2.134  0.00  0.00    -0.337 N 
ATOM     19  C   PRO d   1      44.443  -0.541   2.665  0.00  0.00     0.243 C 
ATOM     20  CD  PRO d   1      46.039  -2.080   1.470  0.00  0.00    -0.001 C 
ATOM     21  O   PRO d   1      44.123   0.602   2.984  0.00  0.00    -0.271 OA
ATOM     22  CG  PRO d   1      47.216  -1.660   0.636  0.00  0.00    -0.048 C 
ATOM     23  H23 PRO d   1      45.229  -2.473   0.838  0.00  0.00     0.064 H 
ATOM     24  H24 PRO d   1      46.331  -2.842   2.208  0.00  0.00     0.064 H 
ATOM     25  CB  PRO d   1      47.786  -0.427   1.248  0.00  0.00    -0.036 C 
ATOM     26  H21 PRO d   1      47.973  -2.458   0.627  0.00  0.00     0.035 H 
ATOM     27  H22 PRO d   1      46.890  -1.451  -0.394  0.00  0.00     0.035 H 
ATOM     28  H19 PRO d   1      48.567  -0.684   1.978  0.00  0.00     0.036 H 
ATOM     29  H20 PRO d   1      48.210   0.228   0.473  0.00  0.00     0.036 H 
ATOM     30  H18 PRO d   1      46.909   0.674   2.917  0.00  0.00     0.087 H 
BRANCH  19  31
ATOM     31  CA  PRO d   1      43.452  -1.693   2.854  0.00  0.00     0.092 C 
ATOM     32  N   PRO d   1      42.578  -1.470   4.015  0.00  0.00    -0.337 N 
ATOM     33  C   SER d   1      43.144  -1.494   5.237  0.00  0.00     0.245 C 
ATOM     34  CD  PRO d   1      41.172  -1.326   3.618  0.00  0.00    -0.001 C 
ATOM     35  O   SER d   1      44.342  -1.684   5.387  0.00  0.00    -0.271 OA
ATOM     36  CG  PRO d   1      41.133  -2.017   2.290  0.00  0.00    -0.048 C 
ATOM     37  H16 PRO d   1      40.893  -0.266   3.522  0.00  0.00     0.064 H 
ATOM     38  H17 PRO d   1      40.504  -1.817   4.340  0.00  0.00     0.064 H 
ATOM     39  CB  PRO d   1      42.475  -1.748   1.670  0.00  0.00    -0.036 C 
ATOM     40  H14 PRO d   1      40.978  -3.098   2.421  0.00  0.00     0.035 H 
ATOM     41  H15 PRO d   1      40.328  -1.605   1.663  0.00  0.00     0.035 H 
ATOM     42  H12 PRO d   1      42.751  -2.557   0.978  0.00  0.00     0.036 H 
ATOM     43  H13 PRO d   1      42.467  -0.790   1.130  0.00  0.00     0.036 H 
ATOM     44  H11 PRO d   1      44.004  -2.639   2.957  0.00  0.00     0.087 H 
BRANCH  33  45
ATOM     45  CA  SER d   1      42.240  -1.255   6.455  0.00  0.00     0.109 C 
ATOM     46  H7  SER d   1      41.277  -1.757   6.280  0.00  0.00     0.090 H 
BRANCH  45  47
ATOM     47  N   SER d   1      42.817  -1.770   7.689  0.00  0.00    -0.344 N 
ATOM     48  C   GLY d   1      43.004  -3.067   7.898  0.00  0.00     0.243 C 
ATOM     49  O   GLY d   1      42.642  -3.926   7.094  0.00  0.00    -0.272 OA
ATOM     50  H6  SER d   1      43.082  -1.123   8.404  0.00  0.00     0.163 HD
BRANCH  48  51
ATOM     51  CA  GLY d   1      43.685  -3.451   9.206  0.00  0.00     0.152 C 
ATOM     52  H4  GLY d   1      43.309  -4.436   9.521  0.00  0.00     0.090 H 
ATOM     53  H5  GLY d   1      44.769  -3.511   9.032  0.00  0.00     0.090 H 
BRANCH  51  54
ATOM     54  N   GLY d   1      43.441  -2.499  10.276  0.00  0.00    -0.071 N 
ATOM     55  H1  GLY d   1      43.914  -2.804  11.112  0.00  0.00     0.274 HD
ATOM     56  H2  GLY d   1      42.450  -2.439  10.453  0.00  0.00     0.274 HD
ATOM     57  H3  GLY d   1      43.789  -1.593  10.005  0.00  0.00     0.274 HD
ENDBRANCH  51  54
ENDBRANCH  48  51
ENDBRANCH  45  47
BRANCH  45  58
ATOM     58  CB  SER d   1      42.008   0.238   6.617  0.00  0.00     0.044 C 
ATOM     59  H8  SER d   1      42.959   0.726   6.877  0.00  0.00     0.077 H 
ATOM     60  H9  SER d   1      41.278   0.406   7.422  0.00  0.00     0.077 H 
BRANCH  58  61
ATOM     61  OG  SER d   1      41.515   0.792   5.422  0.00  0.00    -0.398 OA
ATOM     62  H10 SER d   1      40.692   0.374   5.196  0.00  0.00     0.209 HD
ENDBRANCH  58  61
ENDBRANCH  45  58
ENDBRANCH  33  45
ENDBRANCH  19  31
ENDBRANCH  14  17
ENDBRANCH  11  13
BRANCH  11  63
ATOM     63  CB  LYS d   1      46.383   5.017   1.483  0.00  0.00    -0.038 C 
ATOM     64  H27 LYS d   1      46.335   5.909   0.841  0.00  0.00     0.036 H 
ATOM     65  H28 LYS d   1      47.385   4.941   1.932  0.00  0.00     0.036 H 
BRANCH  63  66
ATOM     66  CG  LYS d   1      45.341   5.162   2.614  0.00  0.00    -0.061 C 
ATOM     67  H29 LYS d   1      45.356   4.254   3.235  0.00  0.00     0.033 H 
ATOM     68  H30 LYS d   1      44.343   5.285   2.169  0.00  0.00     0.033 H 
BRANCH  66  69
ATOM     69  CD  LYS d   1      45.644   6.355   3.480  0.00  0.00    -0.043 C 
ATOM     70  H31 LYS d   1      45.901   7.210   2.838  0.00  0.00     0.035 H 
ATOM     71  H32 LYS d   1      46.496   6.118   4.134  0.00  0.00     0.035 H 
BRANCH  69  72
ATOM     72  CE  LYS d   1      44.451   6.718   4.333  0.00  0.00     0.080 C 
ATOM     73  H33 LYS d   1      44.221   5.881   5.009  0.00  0.00     0.075 H 
ATOM     74  H34 LYS d   1      43.586   6.912   3.682  0.00  0.00     0.075 H 
BRANCH  72  75
ATOM     75  NZ  LYS d   1      44.739   7.934   5.140  0.00  0.00    -0.079 N 
ATOM     76  H35 LYS d   1      43.934   8.162   5.702  0.00  0.00     0.274 HD
ATOM     77  H36 LYS d   1      44.948   8.704   4.524  0.00  0.00     0.274 HD
ATOM     78  H37 LYS d   1      45.530   7.760   5.740  0.00  0.00     0.274 HD
ENDBRANCH  72  75
ENDBRANCH  69  72
ENDBRANCH  66  69
ENDBRANCH  63  66
ENDBRANCH  11  63
ENDBRANCH   8  11
ENDBRANCH   5   7
BRANCH   5  79
ATOM     79  CB  LYS d   1      50.091   4.497  -1.481  0.00  0.00    -0.038 C 
ATOM     80  H40 LYS d   1      50.901   4.394  -2.218  0.00  0.00     0.036 H 
ATOM     81  H41 LYS d   1      50.501   4.383  -0.467  0.00  0.00     0.036 H 
BRANCH  79  82
ATOM     82  CG  LYS d   1      49.505   5.900  -1.606  0.00  0.00    -0.061 C 
ATOM     83  H42 LYS d   1      48.837   6.088  -0.752  0.00  0.00     0.033 H 
ATOM     84  H43 LYS d   1      48.931   5.967  -2.542  0.00  0.00     0.033 H 
BRANCH  82  85
ATOM     85  CD  LYS d   1      50.597   6.949  -1.619  0.00  0.00    -0.043 C 
ATOM     86  H44 LYS d   1      51.241   6.787  -2.496  0.00  0.00     0.035 H 
ATOM     87  H45 LYS d   1      51.196   6.856  -0.701  0.00  0.00     0.035 H 
BRANCH  85  88
ATOM     88  CE  LYS d   1      50.014   8.332  -1.687  0.00  0.00     0.080 C 
ATOM     89  H46 LYS d   1      49.497   8.548  -0.741  0.00  0.00     0.075 H 
ATOM     90  H47 LYS d   1      49.293   8.375  -2.517  0.00  0.00     0.075 H 
BRANCH  88  91
ATOM     91  NZ  LYS d   1      51.058   9.351  -1.906  0.00  0.00    -0.079 N 
ATOM     92  H48 LYS d   1      50.633  10.264  -1.946  0.00  0.00     0.274 HD
ATOM     93  H49 LYS d   1      51.534   9.163  -2.775  0.00  0.00     0.274 HD
ATOM     94  H50 LYS d   1      51.720   9.322  -1.147  0.00  0.00     0.274 HD
ENDBRANCH  88  91
ENDBRANCH  85  88
ENDBRANCH  82  85
ENDBRANCH  79  82
ENDBRANCH   5  79
ENDBRANCH   1   5
BRANCH   3  95
ATOM     95  CA  LYS d   1      50.942   0.456  -3.220  0.00  0.00     0.089 C 
ATOM     96  H52 LYS d   1      51.334   0.096  -2.257  0.00  0.00     0.087 H 
BRANCH  95  97
ATOM     97  C   LYS d   1      52.075   0.746  -4.181  0.00  0.00     0.241 C 
ATOM     98  O   LYS d   1      51.856   1.349  -5.249  0.00  0.00    -0.271 OA
ATOM     99  N   ARG d   1      53.271   0.309  -3.807  0.00  0.00    -0.346 N 
ATOM    100  H64 ARG d   1      53.368  -0.131  -2.914  0.00  0.00     0.163 HD
BRANCH  99 101
ATOM    101  CA  ARG d   1      54.448   0.450  -4.657  0.00  0.00     0.089 C 
ATOM    102  H65 ARG d   1      54.289   1.258  -5.386  0.00  0.00     0.087 H 
BRANCH 101 103
ATOM    103  C   ARG d   1      54.626  -0.870  -5.388  0.00  0.00     0.241 C 
ATOM    104  O   ARG d   1      54.497  -1.927  -4.798  0.00  0.00    -0.271 OA
ATOM    105  N   LYS d   1      54.899  -0.793  -6.678  0.00  0.00    -0.346 N 
ATOM    106  H77 LYS d   1      55.006   0.107  -7.101  0.00  0.00     0.163 HD
BRANCH 105 107
ATOM    107  CA  LYS d   1      55.048  -1.980  -7.497  0.00  0.00     0.089 C 
ATOM    108  H78 LYS d   1      54.418  -2.778  -7.077  0.00  0.00     0.087 H 
BRANCH 107 109
ATOM    109  C   LYS d   1      56.502  -2.458  -7.482  0.00  0.00     0.241 C 
ATOM    110  O   LYS d   1      57.385  -1.788  -7.977  0.00  0.00    -0.271 OA
ATOM    111  N   VAL d   1      56.742  -3.615  -6.890  0.00  0.00    -0.346 N 
ATOM    112  H90 VAL d   1      55.981  -4.157  -6.532  0.00  0.00     0.163 HD
BRANCH 111 113
ATOM    113  CA  VAL d   1      58.102  -4.105  -6.756  0.00  0.00     0.092 C 
ATOM    114  H91 VAL d   1      58.771  -3.277  -7.035  0.00  0.00     0.088 H 
BRANCH 113 115
ATOM    115  C   VAL d   1      58.398  -5.263  -7.699  0.00  0.00     0.241 C 
ATOM    116  O   VAL d   1      59.549  -5.616  -7.910  0.00  0.00    -0.271 OA
ATOM    117  N   GLY d   1      57.358  -5.838  -8.278  0.00  0.00    -0.349 N 
ATOM    118  H99 GLY d   1      56.443  -5.469  -8.116  0.00  0.00     0.163 HD
BRANCH 117 119
ATOM    119  CA  GLY d   1      57.513  -6.991  -9.143  0.00  0.00     0.075 C 
ATOM    120 0H10 GLY d   1      57.178  -7.885  -8.596  0.00  0.00     0.080 H 
ATOM    121 1H10 GLY d   1      58.578  -7.095  -9.398  0.00  0.00     0.080 H 
BRANCH 119 122
ATOM    122  C   GLY d   1      56.718  -6.889 -10.430  0.00  0.00     0.191 C 
ATOM    123  O   GLY d   1      55.666  -6.197 -10.485  0.00  0.00    -0.647 OA
ATOM    124  O   GLY d   1      57.113  -7.503 -11.457  0.00  0.00    -0.647 OA
ENDBRANCH 119 122
ENDBRANCH 117 119
ENDBRANCH 113 115
BRANCH 113 125
ATOM    125  CB  VAL d   1      58.434  -4.494  -5.306  0.00  0.00    -0.033 C 
ATOM    126  H92 VAL d   1      59.489  -4.803  -5.268  0.00  0.00     0.042 H 
BRANCH 125 127
ATOM    127  CG1 VAL d   1      58.254  -3.311  -4.375  0.00  0.00    -0.071 C 
ATOM    128  H93 VAL d   1      58.497  -3.614  -3.346  0.00  0.00     0.028 H 
ATOM    129  H94 VAL d   1      57.211  -2.965  -4.419  0.00  0.00     0.028 H 
ATOM    130  H95 VAL d   1      58.924  -2.495  -4.685  0.00  0.00     0.028 H 
ENDBRANCH 125 127
BRANCH 125 131
ATOM    131  CG2 VAL d   1      57.585  -5.661  -4.856  0.00  0.00    -0.071 C 
ATOM    132  H96 VAL d   1      57.730  -6.507  -5.544  0.00  0.00     0.028 H 
ATOM    133  H97 VAL d   1      56.525  -5.365  -4.857  0.00  0.00     0.028 H 
ATOM    134  H98 VAL d   1      57.881  -5.960  -3.840  0.00  0.00     0.028 H 
ENDBRANCH 125 131
ENDBRANCH 113 125
ENDBRANCH 111 113
ENDBRANCH 107 109
BRANCH 107 135
ATOM    135  CB  LYS d   1      54.573  -1.688  -8.920  0.00  0.00    -0.038 C 
ATOM    136  H79 LYS d   1      55.262  -0.955  -9.364  0.00  0.00     0.036 H 
ATOM    137  H80 LYS d   1      53.565  -1.253  -8.859  0.00  0.00     0.036 H 
BRANCH 135 138
ATOM    138  CG  LYS d   1      54.509  -2.887  -9.842  0.00  0.00    -0.061 C 
ATOM    139  H81 LYS d   1      53.745  -3.587  -9.473  0.00  0.00     0.033 H 
ATOM    140  H82 LYS d   1      55.489  -3.387  -9.855  0.00  0.00     0.033 H 
BRANCH 138 141
ATOM    141  CD  LYS d   1      54.150  -2.452 -11.254  0.00  0.00    -0.043 C 
ATOM    142  H83 LYS d   1      54.690  -1.522 -11.482  0.00  0.00     0.035 H 
ATOM    143  H84 LYS d   1      53.066  -2.268 -11.299  0.00  0.00     0.035 H 
BRANCH 141 144
ATOM    144  CE  LYS d   1      54.508  -3.488 -12.301  0.00  0.00     0.080 C 
ATOM    145  H85 LYS d   1      55.583  -3.713 -12.229  0.00  0.00     0.075 H 
ATOM    146  H86 LYS d   1      54.284  -3.081 -13.298  0.00  0.00     0.075 H 
BRANCH 144 147
ATOM    147  NZ  LYS d   1      53.742  -4.737 -12.108  0.00  0.00    -0.079 N 
ATOM    148  H87 LYS d   1      54.002  -5.404 -12.818  0.00  0.00     0.274 HD
ATOM    149  H88 LYS d   1      52.756  -4.540 -12.177  0.00  0.00     0.274 HD
ATOM    150  H89 LYS d   1      53.946  -5.119 -11.198  0.00  0.00     0.274 HD
ENDBRANCH 144 147
ENDBRANCH 141 144
ENDBRANCH 138 141
ENDBRANCH 135 138
ENDBRANCH 107 135
ENDBRANCH 105 107
ENDBRANCH 101 103
BRANCH 101 151
ATOM    151  CB  ARG d   1      55.679   0.782  -3.803  0.00  0.00    -0.036 C 
ATOM    152  H66 ARG d   1      55.909  -0.090  -3.172  0.00  0.00     0.036 H 
ATOM    153  H67 ARG d   1      55.435   1.643  -3.164  0.00  0.00     0.036 H 
BRANCH 151 154
ATOM    154  CG  ARG d   1      56.937   1.130  -4.629  0.00  0.00    -0.048 C 
ATOM    155  H68 ARG d   1      56.652   1.803  -5.451  0.00  0.00     0.035 H 
ATOM    156  H69 ARG d   1      57.361   0.204  -5.044  0.00  0.00     0.035 H 
BRANCH 154 157
ATOM    157  CD  ARG d   1      57.992   1.817  -3.766  0.00  0.00     0.009 C 
ATOM    158  H70 ARG d   1      57.554   2.715  -3.305  0.00  0.00     0.064 H 
ATOM    159  H71 ARG d   1      58.844   2.107  -4.398  0.00  0.00     0.064 H 
BRANCH 157 160
ATOM    160  NE  ARG d   1      58.456   0.919  -2.719  0.00  0.00    -0.227 N 
ATOM    161  CZ  ARG d   1      59.479   0.079  -2.830  0.00  0.00     0.665 C 
ATOM    162  NH1 ARG d   1      60.204   0.044  -3.951  0.00  0.00    -0.235 N 
ATOM    163  NH2 ARG d   1      59.790  -0.717  -1.805  0.00  0.00    -0.235 N 
ATOM    164  H73 ARG d   1      60.996  -0.609  -4.032  0.00  0.00     0.174 HD
ATOM    165  H74 ARG d   1      59.971   0.670  -4.735  0.00  0.00     0.174 HD
ATOM    166  H75 ARG d   1      59.229  -0.688  -0.942  0.00  0.00     0.174 HD
ATOM    167  H76 ARG d   1      60.591  -1.361  -1.877  0.00  0.00     0.174 HD
ATOM    168  H72 ARG d   1      57.951   0.936  -1.821  0.00  0.00     0.177 HD
ENDBRANCH 157 160
ENDBRANCH 154 157
ENDBRANCH 151 154
ENDBRANCH 101 151
ENDBRANCH  99 101
ENDBRANCH  95  97
BRANCH  95 169
ATOM    169  CB  LYS d   1      50.067  -0.618  -3.859  0.00  0.00    -0.038 C 
ATOM    170  H53 LYS d   1      50.723  -1.448  -4.160  0.00  0.00     0.036 H 
ATOM    171  H54 LYS d   1      49.597  -0.179  -4.752  0.00  0.00     0.036 H 
BRANCH 169 172
ATOM    172  CG  LYS d   1      48.986  -1.182  -3.011  0.00  0.00    -0.061 C 
ATOM    173  H55 LYS d   1      48.283  -0.383  -2.732  0.00  0.00     0.033 H 
ATOM    174  H56 LYS d   1      49.423  -1.619  -2.101  0.00  0.00     0.033 H 
BRANCH 172 175
ATOM    175  CD  LYS d   1      48.246  -2.261  -3.788  0.00  0.00    -0.043 C 
ATOM    176  H57 LYS d   1      48.935  -3.096  -3.982  0.00  0.00     0.035 H 
ATOM    177  H58 LYS d   1      47.902  -1.839  -4.744  0.00  0.00     0.035 H 
BRANCH 175 178
ATOM    178  CE  LYS d   1      47.047  -2.782  -3.022  0.00  0.00     0.080 C 
ATOM    179  H59 LYS d   1      46.364  -1.943  -2.824  0.00  0.00     0.075 H 
ATOM    180  H60 LYS d   1      47.395  -3.204  -2.068  0.00  0.00     0.075 H 
BRANCH 178 181
ATOM    181  NZ  LYS d   1      46.298  -3.843  -3.771  0.00  0.00    -0.079 N 
ATOM    182  H61 LYS d   1      45.514  -4.154  -3.219  0.00  0.00     0.274 HD
ATOM    183  H62 LYS d   1      46.911  -4.622  -3.952  0.00  0.00     0.274 HD
ATOM    184  H63 LYS d   1      45.966  -3.466  -4.645  0.00  0.00     0.274 HD
ENDBRANCH 178 181
ENDBRANCH 175 178
ENDBRANCH 172 175
ENDBRANCH 169 172
ENDBRANCH  95 169
ENDBRANCH   3  95
TORSDOF 49
