REMARK WARNING: 32 MAX_TORS EXCEEDED!!!
REMARK  38 active torsions:
REMARK  status: ('A' for Active; 'I' for Inactive)
REMARK    1  A    between atoms: N_1  and  CA_2 
REMARK    2  A    between atoms: CA_2  and  C_3 
REMARK    3  A    between atoms: CA_2  and  CB_5 
REMARK       I    between atoms: C_3  and  N_8 
REMARK    4  A    between atoms: CB_5  and  OG1_6 
REMARK    5  A    between atoms: CB_5  and  CG2_7 
REMARK    6  A    between atoms: N_8  and  CA_9 
REMARK    7  A    between atoms: CA_9  and  C_10 
REMARK    8  A    between atoms: CA_9  and  CB_12 
REMARK       I    between atoms: C_10  and  N_15 
REMARK    9  A    between atoms: CB_12  and  CG1_13 
REMARK   10  A    between atoms: CB_12  and  CG2_14 
REMARK   11  A    between atoms: N_15  and  CA_16 
REMARK   12  A    between atoms: CA_16  and  C_17 
REMARK   13  A    between atoms: CA_16  and  CB_19 
REMARK       I    between atoms: C_17  and  N_23 
REMARK   14  A    between atoms: CB_19  and  CG_20 
REMARK   15  A    between atoms: CG_20  and  CD1_21 
REMARK   16  A    between atoms: CG_20  and  CD2_22 
REMARK   17  A    between atoms: N_23  and  CA_24 
REMARK   18  A    between atoms: CA_24  and  C_25 
REMARK       I    between atoms: C_25  and  N_27 
REMARK   19  A    between atoms: N_27  and  CA_28 
REMARK   20  A    between atoms: CA_28  and  C_29 
REMARK   21  A    between atoms: CA_28  and  CB_31 
REMARK       I    between atoms: C_29  and  N_36 
REMARK   22  A    between atoms: CB_31  and  CG_32 
REMARK   23  A    between atoms: CG_32  and  CD_33 
REMARK   24  A    between atoms: CD_33  and  CE_34 
REMARK   25  A    between atoms: CE_34  and  NZ_35 
REMARK   26  A    between atoms: N_36  and  CA_37 
REMARK   27  A    between atoms: CA_37  and  C_38 
REMARK   28  A    between atoms: CA_37  and  CB_40 
REMARK       I    between atoms: C_38  and  N_47 
REMARK   29  A    between atoms: CB_40  and  CG_41 
REMARK   30  A    between atoms: CG_41  and  CD_42 
REMARK   31  A    between atoms: CD_42  and  NE_43 
REMARK       I    between atoms: NE_43  and  CZ_44 
REMARK       I    between atoms: CZ_44  and  NH1_45 
REMARK   32  A    between atoms: N_47  and  CA_48 
REMARK   33  A    between atoms: CA_48  and  C_49 
REMARK   34  A    between atoms: CA_48  and  CB_51 
REMARK   35  A    between atoms: CB_51  and  CG_52 
REMARK   36  A    between atoms: CG_52  and  CD_53 
REMARK   37  A    between atoms: CD_53  and  CE_54 
REMARK   38  A    between atoms: CE_54  and  NZ_55 
ROOT
ATOM      1  CA  LYS d   1      15.358 -13.576  27.805  0.00  0.00     0.089 C 
ATOM      2  H34 LYS d   1      15.138 -13.254  28.834  0.00  0.00     0.087 H 
ENDROOT
BRANCH   1   3
ATOM      3  N   LYS d   1      14.339 -14.558  27.435  0.00  0.00    -0.346 N 
ATOM      4  C   GLY d   1      13.096 -14.448  27.884  0.00  0.00     0.236 C 
ATOM      5  O   GLY d   1      12.747 -13.560  28.650  0.00  0.00    -0.272 OA
ATOM      6  H33 LYS d   1      14.582 -15.321  26.837  0.00  0.00     0.163 HD
BRANCH   4   7
ATOM      7  CA  GLY d   1      12.093 -15.465  27.390  0.00  0.00     0.069 C 
ATOM      8  H31 GLY d   1      12.350 -15.738  26.356  0.00  0.00     0.078 H 
ATOM      9  H32 GLY d   1      12.153 -16.357  28.030  0.00  0.00     0.078 H 
BRANCH   7  10
ATOM     10  N   GLY d   1      10.726 -14.966  27.414  0.00  0.00    -0.351 N 
ATOM     11  C   LEU d   1       9.770 -15.526  26.676  0.00  0.00     0.240 C 
ATOM     12  O   LEU d   1       9.985 -16.440  25.891  0.00  0.00    -0.271 OA
ATOM     13  H30 GLY d   1      10.500 -14.186  27.997  0.00  0.00     0.163 HD
BRANCH  11  14
ATOM     14  CA  LEU d   1       8.364 -14.979  26.831  0.00  0.00     0.089 C 
ATOM     15  H20 LEU d   1       8.426 -13.940  27.186  0.00  0.00     0.087 H 
BRANCH  14  16
ATOM     16  N   LEU d   1       7.660 -14.993  25.554  0.00  0.00    -0.346 N 
ATOM     17  C   VAL d   1       7.696 -13.978  24.694  0.00  0.00     0.241 C 
ATOM     18  O   VAL d   1       8.460 -13.023  24.815  0.00  0.00    -0.271 OA
ATOM     19  H19 LEU d   1       7.125 -15.803  25.313  0.00  0.00     0.163 HD
BRANCH  17  20
ATOM     20  CA  VAL d   1       6.768 -14.095  23.483  0.00  0.00     0.092 C 
ATOM     21  H11 VAL d   1       7.193 -13.522  22.646  0.00  0.00     0.088 H 
BRANCH  20  22
ATOM     22  N   VAL d   1       6.657 -15.492  23.090  0.00  0.00    -0.346 N 
ATOM     23  C   THR d   1       7.414 -16.009  22.132  0.00  0.00     0.251 C 
ATOM     24  O   THR d   1       8.206 -15.331  21.490  0.00  0.00    -0.271 OA
ATOM     25  H10 VAL d   1       5.992 -16.077  23.555  0.00  0.00     0.163 HD
BRANCH  23  26
ATOM     26  CA  THR d   1       7.256 -17.511  21.857  0.00  0.00     0.199 C 
ATOM     27  H4  THR d   1       8.240 -17.920  21.583  0.00  0.00     0.103 H 
BRANCH  26  28
ATOM     28  N   THR d   1       6.802 -18.197  23.063  0.00  0.00    -0.064 N 
ATOM     29  H1  THR d   1       7.454 -18.026  23.812  0.00  0.00     0.275 HD
ATOM     30  H2  THR d   1       6.747 -19.188  22.885  0.00  0.00     0.275 HD
ATOM     31  H3  THR d   1       5.892 -17.851  23.324  0.00  0.00     0.275 HD
ENDBRANCH  26  28
BRANCH  26  32
ATOM     32  CB  THR d   1       6.289 -17.735  20.655  0.00  0.00     0.068 C 
ATOM     33  H5  THR d   1       5.385 -17.130  20.818  0.00  0.00     0.086 H 
BRANCH  32  34
ATOM     34  OG1 THR d   1       5.917 -19.113  20.573  0.00  0.00    -0.393 OA
ATOM     35  H6  THR d   1       5.328 -19.238  19.838  0.00  0.00     0.210 HD
ENDBRANCH  32  34
BRANCH  32  36
ATOM     36  CG2 THR d   1       6.933 -17.309  19.326  0.00  0.00    -0.050 C 
ATOM     37  H7  THR d   1       6.224 -17.481  18.503  0.00  0.00     0.031 H 
ATOM     38  H8  THR d   1       7.844 -17.900  19.154  0.00  0.00     0.031 H 
ATOM     39  H9  THR d   1       7.192 -16.241  19.370  0.00  0.00     0.031 H 
ENDBRANCH  32  36
ENDBRANCH  26  32
ENDBRANCH  23  26
ENDBRANCH  20  22
BRANCH  20  40
ATOM     40  CB  VAL d   1       5.382 -13.513  23.836  0.00  0.00    -0.033 C 
ATOM     41  H12 VAL d   1       4.929 -14.152  24.608  0.00  0.00     0.042 H 
BRANCH  40  42
ATOM     42  CG1 VAL d   1       5.497 -12.108  24.396  0.00  0.00    -0.071 C 
ATOM     43  H13 VAL d   1       4.494 -11.726  24.636  0.00  0.00     0.028 H 
ATOM     44  H14 VAL d   1       5.970 -11.453  23.649  0.00  0.00     0.028 H 
ATOM     45  H15 VAL d   1       6.110 -12.126  25.309  0.00  0.00     0.028 H 
ENDBRANCH  40  42
BRANCH  40  46
ATOM     46  CG2 VAL d   1       4.481 -13.529  22.616  0.00  0.00    -0.071 C 
ATOM     47  H16 VAL d   1       4.411 -14.555  22.226  0.00  0.00     0.028 H 
ATOM     48  H17 VAL d   1       4.901 -12.870  21.842  0.00  0.00     0.028 H 
ATOM     49  H18 VAL d   1       3.478 -13.174  22.896  0.00  0.00     0.028 H 
ENDBRANCH  40  46
ENDBRANCH  20  40
ENDBRANCH  17  20
ENDBRANCH  14  16
BRANCH  14  50
ATOM     50  CB  LEU d   1       7.601 -15.811  27.865  0.00  0.00    -0.035 C 
ATOM     51  H21 LEU d   1       8.222 -15.865  28.771  0.00  0.00     0.037 H 
ATOM     52  H22 LEU d   1       7.471 -16.821  27.448  0.00  0.00     0.037 H 
BRANCH  50  53
ATOM     53  CG  LEU d   1       6.223 -15.304  28.281  0.00  0.00    -0.059 C 
ATOM     54  H23 LEU d   1       5.620 -15.140  27.375  0.00  0.00     0.038 H 
BRANCH  53  55
ATOM     55  CD1 LEU d   1       5.527 -16.321  29.140  0.00  0.00    -0.073 C 
ATOM     56  H24 LEU d   1       4.537 -15.940  29.430  0.00  0.00     0.028 H 
ATOM     57  H25 LEU d   1       6.126 -16.510  30.043  0.00  0.00     0.028 H 
ATOM     58  H26 LEU d   1       5.408 -17.258  28.576  0.00  0.00     0.028 H 
ENDBRANCH  53  55
BRANCH  53  59
ATOM     59  CD2 LEU d   1       6.356 -14.000  29.011  0.00  0.00    -0.073 C 
ATOM     60  H27 LEU d   1       6.867 -13.270  28.367  0.00  0.00     0.028 H 
ATOM     61  H28 LEU d   1       6.942 -14.152  29.930  0.00  0.00     0.028 H 
ATOM     62  H29 LEU d   1       5.356 -13.622  29.272  0.00  0.00     0.028 H 
ENDBRANCH  53  59
ENDBRANCH  50  53
ENDBRANCH  14  50
ENDBRANCH  11  14
ENDBRANCH   7  10
ENDBRANCH   4   7
ENDBRANCH   1   3
BRANCH   1  63
ATOM     63  C   LYS d   1      15.334 -12.319  26.925  0.00  0.00     0.241 C 
ATOM     64  O   LYS d   1      14.988 -12.375  25.751  0.00  0.00    -0.271 OA
ATOM     65  N   ARG d   1      15.680 -11.186  27.535  0.00  0.00    -0.346 N 
ATOM     66  H46 ARG d   1      15.981 -11.240  28.487  0.00  0.00     0.163 HD
BRANCH  65  67
ATOM     67  CA  ARG d   1      15.647  -9.871  26.901  0.00  0.00     0.089 C 
ATOM     68  H47 ARG d   1      15.452 -10.004  25.827  0.00  0.00     0.087 H 
BRANCH  67  69
ATOM     69  C   ARG d   1      16.964  -9.143  27.084  0.00  0.00     0.241 C 
ATOM     70  O   ARG d   1      17.413  -8.942  28.211  0.00  0.00    -0.271 OA
ATOM     71  N   LYS d   1      17.560  -8.717  25.981  0.00  0.00    -0.345 N 
ATOM     72  H59 LYS d   1      17.193  -8.987  25.091  0.00  0.00     0.163 HD
BRANCH  71  73
ATOM     73  CA  LYS d   1      18.732  -7.868  26.037  0.00  0.00     0.096 C 
ATOM     74  H60 LYS d   1      19.404  -8.245  26.822  0.00  0.00     0.089 H 
BRANCH  73  75
ATOM     75  C   LYS d   1      18.339  -6.433  26.383  0.00  0.00     0.196 C 
ATOM     76  O   LYS d   1      19.176  -5.641  26.893  0.00  0.00    -0.646 OA
ATOM     77  O   LYS d   1      17.165  -6.037  26.156  0.00  0.00    -0.646 OA
ENDBRANCH  73  75
BRANCH  73  78
ATOM     78  CB  LYS d   1      19.465  -7.919  24.700  0.00  0.00    -0.037 C 
ATOM     79  H61 LYS d   1      20.272  -7.172  24.720  0.00  0.00     0.036 H 
ATOM     80  H62 LYS d   1      18.750  -7.665  23.904  0.00  0.00     0.036 H 
BRANCH  78  81
ATOM     81  CG  LYS d   1      20.075  -9.272  24.380  0.00  0.00    -0.061 C 
ATOM     82  H63 LYS d   1      20.221  -9.345  23.292  0.00  0.00     0.033 H 
ATOM     83  H64 LYS d   1      19.381 -10.059  24.711  0.00  0.00     0.033 H 
BRANCH  81  84
ATOM     84  CD  LYS d   1      21.400  -9.481  25.059  0.00  0.00    -0.043 C 
ATOM     85  H65 LYS d   1      21.283  -9.320  26.141  0.00  0.00     0.035 H 
ATOM     86  H66 LYS d   1      22.130  -8.762  24.659  0.00  0.00     0.035 H 
BRANCH  84  87
ATOM     87  CE  LYS d   1      21.895 -10.876  24.817  0.00  0.00     0.080 C 
ATOM     88  H67 LYS d   1      22.101 -11.007  23.744  0.00  0.00     0.075 H 
ATOM     89  H68 LYS d   1      21.124 -11.594  25.132  0.00  0.00     0.075 H 
BRANCH  87  90
ATOM     90  NZ  LYS d   1      23.127 -11.121  25.581  0.00  0.00    -0.079 N 
ATOM     91  H69 LYS d   1      23.448 -12.061  25.409  0.00  0.00     0.274 HD
ATOM     92  H70 LYS d   1      22.941 -11.004  26.565  0.00  0.00     0.274 HD
ATOM     93  H71 LYS d   1      23.837 -10.466  25.293  0.00  0.00     0.274 HD
ENDBRANCH  87  90
ENDBRANCH  84  87
ENDBRANCH  81  84
ENDBRANCH  78  81
ENDBRANCH  73  78
ENDBRANCH  71  73
ENDBRANCH  67  69
BRANCH  67  94
ATOM     94  CB  ARG d   1      14.547  -8.998  27.512  0.00  0.00    -0.036 C 
ATOM     95  H48 ARG d   1      14.683  -7.972  27.141  0.00  0.00     0.036 H 
ATOM     96  H49 ARG d   1      14.671  -9.012  28.605  0.00  0.00     0.036 H 
BRANCH  94  97
ATOM     97  CG  ARG d   1      13.125  -9.426  27.196  0.00  0.00    -0.048 C 
ATOM     98  H50 ARG d   1      12.992 -10.475  27.499  0.00  0.00     0.035 H 
ATOM     99  H51 ARG d   1      12.956  -9.333  26.113  0.00  0.00     0.035 H 
BRANCH  97 100
ATOM    100  CD  ARG d   1      12.110  -8.570  27.928  0.00  0.00     0.009 C 
ATOM    101  H52 ARG d   1      11.104  -8.829  27.565  0.00  0.00     0.064 H 
ATOM    102  H53 ARG d   1      12.318  -7.513  27.708  0.00  0.00     0.064 H 
BRANCH 100 103
ATOM    103  NE  ARG d   1      12.147  -8.761  29.366  0.00  0.00    -0.227 N 
ATOM    104  CZ  ARG d   1      11.905  -7.789  30.234  0.00  0.00     0.665 C 
ATOM    105  NH1 ARG d   1      11.646  -6.574  29.784  0.00  0.00    -0.235 N 
ATOM    106  NH2 ARG d   1      11.945  -8.023  31.544  0.00  0.00    -0.235 N 
ATOM    107  H55 ARG d   1      11.456  -5.809  30.447  0.00  0.00     0.174 HD
ATOM    108  H56 ARG d   1      11.634  -6.392  28.770  0.00  0.00     0.174 HD
ATOM    109  H57 ARG d   1      12.147  -8.971  31.892  0.00  0.00     0.174 HD
ATOM    110  H58 ARG d   1      11.774  -7.256  32.210  0.00  0.00     0.174 HD
ATOM    111  H54 ARG d   1      12.372  -9.698  29.730  0.00  0.00     0.177 HD
ENDBRANCH 100 103
ENDBRANCH  97 100
ENDBRANCH  94  97
ENDBRANCH  67  94
ENDBRANCH  65  67
ENDBRANCH   1  63
BRANCH   1 112
ATOM    112  CB  LYS d   1      16.747 -14.212  27.808  0.00  0.00    -0.038 C 
ATOM    113  H35 LYS d   1      17.500 -13.432  27.993  0.00  0.00     0.036 H 
ATOM    114  H36 LYS d   1      16.933 -14.676  26.828  0.00  0.00     0.036 H 
BRANCH 112 115
ATOM    115  CG  LYS d   1      16.854 -15.265  28.880  0.00  0.00    -0.061 C 
ATOM    116  H37 LYS d   1      16.553 -16.231  28.448  0.00  0.00     0.033 H 
ATOM    117  H38 LYS d   1      16.167 -14.999  29.697  0.00  0.00     0.033 H 
BRANCH 115 118
ATOM    118  CD  LYS d   1      18.220 -15.411  29.447  0.00  0.00    -0.043 C 
ATOM    119  H39 LYS d   1      18.550 -14.443  29.852  0.00  0.00     0.035 H 
ATOM    120  H40 LYS d   1      18.911 -15.731  28.653  0.00  0.00     0.035 H 
BRANCH 118 121
ATOM    121  CE  LYS d   1      18.219 -16.443  30.555  0.00  0.00     0.080 C 
ATOM    122  H41 LYS d   1      18.193 -17.446  30.104  0.00  0.00     0.075 H 
ATOM    123  H42 LYS d   1      17.322 -16.296  31.174  0.00  0.00     0.075 H 
BRANCH 121 124
ATOM    124  NZ  LYS d   1      19.407 -16.343  31.415  0.00  0.00    -0.079 N 
ATOM    125  H43 LYS d   1      19.361 -17.047  32.135  0.00  0.00     0.274 HD
ATOM    126  H44 LYS d   1      19.438 -15.430  31.840  0.00  0.00     0.274 HD
ATOM    127  H45 LYS d   1      20.236 -16.483  30.860  0.00  0.00     0.274 HD
ENDBRANCH 121 124
ENDBRANCH 118 121
ENDBRANCH 115 118
ENDBRANCH 112 115
ENDBRANCH   1 112
TORSDOF 38
