REMARK  28 active torsions:
REMARK  status: ('A' for Active; 'I' for Inactive)
REMARK    1  A    between atoms: C1_1  and  O1L_10 
REMARK    2  A    between atoms: C2_2  and  N2_9 
REMARK    3  A    between atoms: C3_3  and  O3_11 
REMARK    4  A    between atoms: O4_12  and  C4_4 
REMARK    5  A    between atoms: C5_5  and  C6_6 
REMARK    6  A    between atoms: C6_6  and  O6_14 
REMARK    7  A    between atoms: C7_7  and  C8_8 
REMARK       I    between atoms: N2_9  and  C7_7 
REMARK    8  A    between atoms: C1_16  and  O4_12 
REMARK    9  A    between atoms: C2_17  and  N2_24 
REMARK   10  A    between atoms: C3_18  and  O3_25 
REMARK   11  A    between atoms: O4_26  and  C4_19 
REMARK   12  A    between atoms: C5_20  and  C6_21 
REMARK   13  A    between atoms: C6_21  and  O6_28 
REMARK   14  A    between atoms: C7_22  and  C8_23 
REMARK       I    between atoms: N2_24  and  C7_22 
REMARK   15  A    between atoms: C1_30  and  O4_26 
REMARK   16  A    between atoms: C2_31  and  N2_38 
REMARK   17  A    between atoms: C3_32  and  O3_39 
REMARK   18  A    between atoms: O4_40  and  C4_33 
REMARK   19  A    between atoms: C5_34  and  C6_35 
REMARK   20  A    between atoms: C6_35  and  O6_42 
REMARK   21  A    between atoms: C7_36  and  C8_37 
REMARK       I    between atoms: N2_38  and  C7_36 
REMARK   22  A    between atoms: C1_44  and  O4_40 
REMARK   23  A    between atoms: N2_52  and  C2_45 
REMARK   24  A    between atoms: C3_46  and  O3_53 
REMARK   25  A    between atoms: C4_47  and  O4_54 
REMARK   26  A    between atoms: C5_48  and  C6_49 
REMARK   27  A    between atoms: C6_49  and  O6_56 
REMARK   28  A    between atoms: C7_50  and  C8_51 
REMARK       I    between atoms: C7_50  and  N2_52 
ROOT
ATOM      1  O4  NDG d   1     -12.995  20.125  62.634  0.00  0.00    -0.348 OA
ENDROOT
BRANCH   1   2
ATOM      2  C4  NDG d   1     -12.453  20.936  61.611  0.00  0.00     0.095 C 
ATOM      3  C3  NDG d   1     -11.214  20.276  61.048  0.00  0.00     0.087 C 
ATOM      4  C2  NDG d   1     -10.783  20.955  59.715  0.00  0.00     0.087 C 
ATOM      5  H17 NDG d   1     -11.492  19.241  60.802  0.00  0.00     0.090 H 
ATOM      6  C1  NDG d   1     -11.974  21.229  58.781  0.00  0.00     0.154 C 
ATOM      7  H16 NDG d   1     -10.331  21.927  59.963  0.00  0.00     0.084 H 
ATOM      8  O5  NDG d   1     -12.997  21.932  59.478  0.00  0.00    -0.349 OA
ATOM      9  H15 NDG d   1     -12.378  20.284  58.390  0.00  0.00     0.132 H 
ATOM     10  C5  NDG d   1     -13.543  21.154  60.545  0.00  0.00     0.089 C 
ATOM     11  H19 NDG d   1     -13.876  20.176  60.166  0.00  0.00     0.090 H 
ATOM     12  H18 NDG d   1     -12.168  21.912  62.031  0.00  0.00     0.091 H 
BRANCH   3  13
ATOM     13  O3  NDG d   1     -10.152  20.192  61.979  0.00  0.00    -0.391 OA
ATOM     14  H26 NDG d   1     -10.431  19.683  62.731  0.00  0.00     0.210 HD
ENDBRANCH   3  13
BRANCH   4  15
ATOM     15  N2  NDG d   1      -9.765  20.138  59.071  0.00  0.00    -0.349 N 
ATOM     16  C7  NDG d   1      -8.473  20.475  58.983  0.00  0.00     0.214 C 
ATOM     17  O7  NDG d   1      -8.029  21.521  59.448  0.00  0.00    -0.274 OA
ATOM     18  H25 NDG d   1     -10.050  19.268  58.668  0.00  0.00     0.163 HD
BRANCH  16  19
ATOM     19  C8  NDG d   1      -7.592  19.448  58.286  0.00  0.00    -0.003 C 
ATOM     20  H22 NDG d   1      -6.554  19.811  58.262  0.00  0.00     0.040 H 
ATOM     21  H23 NDG d   1      -7.951  19.295  57.257  0.00  0.00     0.040 H 
ATOM     22  H24 NDG d   1      -7.635  18.496  58.835  0.00  0.00     0.040 H 
ENDBRANCH  16  19
ENDBRANCH   4  15
BRANCH   6  23
ATOM     23  O4  NDG d   1     -11.470  22.028  57.721  0.00  0.00    -0.348 OA
BRANCH  23  24
ATOM     24  C4  NDG d   1     -12.171  21.999  56.496  0.00  0.00     0.095 C 
ATOM     25  C3  NDG d   1     -12.910  23.317  56.383  0.00  0.00     0.087 C 
ATOM     26  C2  NDG d   1     -13.446  23.482  54.946  0.00  0.00     0.086 C 
ATOM     27  H3  NDG d   1     -12.201  24.137  56.569  0.00  0.00     0.090 H 
ATOM     28  C1  NDG d   1     -12.317  23.308  53.902  0.00  0.00     0.151 C 
ATOM     29  H2  NDG d   1     -14.199  22.699  54.771  0.00  0.00     0.084 H 
ATOM     30  O   NDG d   1     -11.669  22.042  54.078  0.00  0.00    -0.349 OA
ATOM     31  H1  NDG d   1     -12.735  23.378  52.887  0.00  0.00     0.132 H 
ATOM     32  C5  NDG d   1     -11.136  21.838  55.390  0.00  0.00     0.089 C 
ATOM     33  H5  NDG d   1     -10.338  22.577  55.557  0.00  0.00     0.090 H 
ATOM     34  H4  NDG d   1     -12.884  21.162  56.469  0.00  0.00     0.091 H 
BRANCH  25  35
ATOM     35  O3  NDG d   1     -13.913  23.368  57.407  0.00  0.00    -0.391 OA
ATOM     36  H13 NDG d   1     -13.498  23.301  58.259  0.00  0.00     0.210 HD
ENDBRANCH  25  35
BRANCH  26  37
ATOM     37  N2  NDG d   1     -14.092  24.785  54.779  0.00  0.00    -0.349 N 
ATOM     38  C7  NDG d   1     -15.379  24.929  54.374  0.00  0.00     0.214 C 
ATOM     39  O7  NDG d   1     -16.101  23.926  54.102  0.00  0.00    -0.274 OA
ATOM     40  H11 NDG d   1     -13.559  25.609  54.973  0.00  0.00     0.163 HD
BRANCH  38  41
ATOM     41  C8  NDG d   1     -15.907  26.355  54.232  0.00  0.00    -0.003 C 
ATOM     42  H8  NDG d   1     -16.955  26.326  53.900  0.00  0.00     0.040 H 
ATOM     43  H9  NDG d   1     -15.302  26.898  53.491  0.00  0.00     0.040 H 
ATOM     44  H10 NDG d   1     -15.844  26.868  55.203  0.00  0.00     0.040 H 
ENDBRANCH  38  41
ENDBRANCH  26  37
BRANCH  28  45
ATOM     45  O1L NDG d   1     -11.337  24.332  54.107  0.00  0.00    -0.369 OA
ATOM     46  H12 NDG d   1     -10.985  24.260  54.986  0.00  0.00     0.212 HD
ENDBRANCH  28  45
BRANCH  32  47
ATOM     47  C6  NDG d   1     -10.537  20.427  55.456  0.00  0.00     0.043 C 
ATOM     48  H6  NDG d   1     -11.109  19.735  54.821  0.00  0.00     0.078 H 
ATOM     49  H7  NDG d   1     -10.534  20.057  56.492  0.00  0.00     0.078 H 
BRANCH  47  50
ATOM     50  O6  NDG d   1      -9.228  20.563  54.980  0.00  0.00    -0.398 OA
ATOM     51  H14 NDG d   1      -8.797  19.716  54.995  0.00  0.00     0.209 HD
ENDBRANCH  47  50
ENDBRANCH  32  47
ENDBRANCH  23  24
ENDBRANCH   6  23
BRANCH  10  52
ATOM     52  C6  NDG d   1     -14.740  21.916  61.096  0.00  0.00     0.043 C 
ATOM     53  H20 NDG d   1     -15.184  21.368  61.940  0.00  0.00     0.078 H 
ATOM     54  H21 NDG d   1     -15.497  22.055  60.310  0.00  0.00     0.078 H 
BRANCH  52  55
ATOM     55  O6  NDG d   1     -14.251  23.170  61.531  0.00  0.00    -0.398 OA
ATOM     56  H27 NDG d   1     -13.864  23.630  60.795  0.00  0.00     0.209 HD
ENDBRANCH  52  55
ENDBRANCH  10  52
ENDBRANCH   1   2
BRANCH   1  57
ATOM     57  C1  NDG d   1     -13.028  20.854  63.888  0.00  0.00     0.154 C 
ATOM     58  C2  NDG d   1     -14.060  20.244  64.854  0.00  0.00     0.087 C 
ATOM     59  C3  NDG d   1     -14.074  20.992  66.176  0.00  0.00     0.087 C 
ATOM     60  H29 NDG d   1     -13.769  19.202  65.053  0.00  0.00     0.084 H 
ATOM     61  C4  NDG d   1     -12.645  21.142  66.669  0.00  0.00     0.095 C 
ATOM     62  H30 NDG d   1     -14.481  21.998  65.999  0.00  0.00     0.090 H 
ATOM     63  C5  NDG d   1     -11.663  21.656  65.623  0.00  0.00     0.089 C 
ATOM     64  H31 NDG d   1     -12.305  20.189  67.100  0.00  0.00     0.091 H 
ATOM     65  O5  NDG d   1     -11.737  20.855  64.445  0.00  0.00    -0.349 OA
ATOM     66  H32 NDG d   1     -11.898  22.705  65.389  0.00  0.00     0.090 H 
ATOM     67  H28 NDG d   1     -13.323  21.894  63.684  0.00  0.00     0.132 H 
BRANCH  58  68
ATOM     68  N2  NDG d   1     -15.394  20.239  64.252  0.00  0.00    -0.349 N 
ATOM     69  C7  NDG d   1     -15.834  19.142  63.590  0.00  0.00     0.214 C 
ATOM     70  O7  NDG d   1     -15.156  18.099  63.518  0.00  0.00    -0.274 OA
ATOM     71  H38 NDG d   1     -15.981  21.045  64.329  0.00  0.00     0.163 HD
BRANCH  69  72
ATOM     72  C8  NDG d   1     -17.188  19.199  62.974  0.00  0.00    -0.003 C 
ATOM     73  H35 NDG d   1     -17.405  18.243  62.476  0.00  0.00     0.040 H 
ATOM     74  H36 NDG d   1     -17.221  20.013  62.235  0.00  0.00     0.040 H 
ATOM     75  H37 NDG d   1     -17.939  19.383  63.756  0.00  0.00     0.040 H 
ENDBRANCH  69  72
ENDBRANCH  58  68
BRANCH  59  76
ATOM     76  O3  NDG d   1     -14.928  20.340  67.141  0.00  0.00    -0.391 OA
ATOM     77  H39 NDG d   1     -14.947  20.851  67.942  0.00  0.00     0.210 HD
ENDBRANCH  59  76
BRANCH  61  78
ATOM     78  O4  NDG d   1     -12.585  22.173  67.571  0.00  0.00    -0.348 OA
BRANCH  78  79
ATOM     79  C1  NDG d   1     -12.664  21.798  68.929  0.00  0.00     0.154 C 
ATOM     80  C2  NDG d   1     -11.937  22.845  69.784  0.00  0.00     0.087 C 
ATOM     81  C3  NDG d   1     -12.256  22.549  71.268  0.00  0.00     0.086 C 
ATOM     82  H42 NDG d   1     -12.398  23.814  69.543  0.00  0.00     0.084 H 
ATOM     83  C4  NDG d   1     -13.761  22.403  71.527  0.00  0.00     0.089 C 
ATOM     84  H43 NDG d   1     -11.794  21.579  71.503  0.00  0.00     0.090 H 
ATOM     85  C5  NDG d   1     -14.362  21.367  70.553  0.00  0.00     0.089 C 
ATOM     86  H44 NDG d   1     -14.256  23.373  71.373  0.00  0.00     0.091 H 
ATOM     87  O5  NDG d   1     -14.063  21.730  69.209  0.00  0.00    -0.349 OA
ATOM     88  H45 NDG d   1     -13.893  20.396  70.771  0.00  0.00     0.090 H 
ATOM     89  H41 NDG d   1     -12.199  20.814  69.090  0.00  0.00     0.132 H 
BRANCH  80  90
ATOM     90  N2  NDG d   1     -10.478  23.029  69.525  0.00  0.00    -0.349 N 
ATOM     91  C7  NDG d   1      -9.893  24.181  69.042  0.00  0.00     0.214 C 
ATOM     92  O7  NDG d   1     -10.514  25.210  68.734  0.00  0.00    -0.274 OA
ATOM     93  H51 NDG d   1      -9.876  22.254  69.717  0.00  0.00     0.163 HD
BRANCH  91  94
ATOM     94  C8  NDG d   1      -8.391  24.217  68.858  0.00  0.00    -0.003 C 
ATOM     95  H48 NDG d   1      -8.093  25.201  68.468  0.00  0.00     0.040 H 
ATOM     96  H49 NDG d   1      -8.090  23.434  68.146  0.00  0.00     0.040 H 
ATOM     97  H50 NDG d   1      -7.899  24.041  69.826  0.00  0.00     0.040 H 
ENDBRANCH  91  94
ENDBRANCH  80  90
BRANCH  81  98
ATOM     98  O3  NDG d   1     -11.680  23.506  72.145  0.00  0.00    -0.391 OA
ATOM     99  H52 NDG d   1     -11.810  23.228  73.044  0.00  0.00     0.210 HD
ENDBRANCH  81  98
BRANCH  83 100
ATOM    100  O4  NDG d   1     -13.952  21.985  72.865  0.00  0.00    -0.390 OA
ATOM    101  H53 NDG d   1     -13.578  22.630  73.454  0.00  0.00     0.210 HD
ENDBRANCH  83 100
BRANCH  85 102
ATOM    102  C6  NDG d   1     -15.887  21.193  70.669  0.00  0.00     0.043 C 
ATOM    103  H46 NDG d   1     -16.382  22.169  70.555  0.00  0.00     0.078 H 
ATOM    104  H47 NDG d   1     -16.139  20.767  71.651  0.00  0.00     0.078 H 
BRANCH 102 105
ATOM    105  O6  NDG d   1     -16.316  20.313  69.639  0.00  0.00    -0.398 OA
ATOM    106  H54 NDG d   1     -16.094  20.685  68.793  0.00  0.00     0.209 HD
ENDBRANCH 102 105
ENDBRANCH  85 102
ENDBRANCH  78  79
ENDBRANCH  61  78
BRANCH  63 107
ATOM    107  C6  NDG d   1     -10.203  21.535  66.116  0.00  0.00     0.043 C 
ATOM    108  H33 NDG d   1     -10.071  22.159  67.012  0.00  0.00     0.078 H 
ATOM    109  H34 NDG d   1      -9.524  21.882  65.324  0.00  0.00     0.078 H 
BRANCH 107 110
ATOM    110  O6  NDG d   1      -9.891  20.170  66.441  0.00  0.00    -0.398 OA
ATOM    111  H40 NDG d   1     -10.002  19.628  65.668  0.00  0.00     0.209 HD
ENDBRANCH 107 110
ENDBRANCH  63 107
ENDBRANCH   1  57
TORSDOF 28
