REMARK WARNING: 32 MAX_TORS EXCEEDED!!!
REMARK  36 active torsions:
REMARK  status: ('A' for Active; 'I' for Inactive)
REMARK    1  A    between atoms: N_1  and  CA_2 
REMARK    2  A    between atoms: CA_2  and  C_3 
REMARK    3  A    between atoms: CA_2  and  CB_5 
REMARK       I    between atoms: C_3  and  N_6 
REMARK    4  A    between atoms: N_6  and  CA_7 
REMARK    5  A    between atoms: CA_7  and  C_8 
REMARK       I    between atoms: C_8  and  N_10 
REMARK    6  A    between atoms: N_10  and  CA_11 
REMARK    7  A    between atoms: CA_11  and  CB_12 
REMARK    8  A    between atoms: CA_11  and  C_21 
REMARK    9  A    between atoms: CB_12  and  CG_13 
REMARK   10  A    between atoms: CG_13  and  CD_14 
REMARK   11  A    between atoms: CD_14  and  NE_15 
REMARK       I    between atoms: NE_15  and  CZ_16 
REMARK       I    between atoms: CZ_16  and  NH1_17 
REMARK       I    between atoms: CZ_16  and  NH2_19 
REMARK   12  A    between atoms: NH1_17  and  CQ1_18 
REMARK   13  A    between atoms: NH2_19  and  CQ2_20 
REMARK       I    between atoms: C_21  and  N_23 
REMARK   14  A    between atoms: N_23  and  CA_24 
REMARK   15  A    between atoms: CA_24  and  C_25 
REMARK       I    between atoms: C_25  and  N_27 
REMARK   16  A    between atoms: N_27  and  CA_28 
REMARK   17  A    between atoms: CA_28  and  C_29 
REMARK   18  A    between atoms: CA_28  and  CB_31 
REMARK       I    between atoms: C_29  and  N_35 
REMARK   19  A    between atoms: CB_31  and  CG_32 
REMARK   20  A    between atoms: CG_32  and  CD1_33 
REMARK   21  A    between atoms: CG_32  and  CD2_34 
REMARK   22  A    between atoms: N_35  and  CA_36 
REMARK   23  A    between atoms: CA_36  and  C_37 
REMARK   24  A    between atoms: CA_36  and  CB_39 
REMARK       I    between atoms: C_37  and  N_42 
REMARK   25  A    between atoms: CB_39  and  CG1_40 
REMARK   26  A    between atoms: CB_39  and  CG2_41 
REMARK   27  A    between atoms: N_42  and  CA_43 
REMARK   28  A    between atoms: CA_43  and  C_44 
REMARK   29  A    between atoms: CA_43  and  CB_46 
REMARK       I    between atoms: C_44  and  N_53 
REMARK   30  A    between atoms: CB_46  and  CG_47 
REMARK   31  A    between atoms: N_53  and  CA_54 
REMARK   32  A    between atoms: CA_54  and  C_55 
REMARK   33  A    between atoms: CA_54  and  CB_57 
REMARK   34  A    between atoms: CB_57  and  CG_58 
REMARK   35  A    between atoms: CG_58  and  CD_59 
REMARK   36  A    between atoms: CD_59  and  NE_60 
REMARK       I    between atoms: NE_60  and  CZ_61 
REMARK       I    between atoms: CZ_61  and  NH1_62 
ROOT
ATOM      1  CA  LEU d   1      25.340  21.365  45.719  0.00  0.00     0.089 C 
ATOM      2  H32 LEU d   1      24.548  21.782  45.079  0.00  0.00     0.087 H 
ENDROOT
BRANCH   1   3
ATOM      3  N   LEU d   1      26.504  21.057  44.905  0.00  0.00    -0.346 N 
ATOM      4  C   GLY d   1      27.133  21.997  44.224  0.00  0.00     0.236 C 
ATOM      5  O   GLY d   1      26.773  23.170  44.221  0.00  0.00    -0.272 OA
ATOM      6  H31 LEU d   1      26.835  20.114  44.860  0.00  0.00     0.163 HD
BRANCH   4   7
ATOM      7  CA  GLY d   1      28.361  21.558  43.470  0.00  0.00     0.069 C 
ATOM      8  H29 GLY d   1      29.238  21.619  44.132  0.00  0.00     0.078 H 
ATOM      9  H30 GLY d   1      28.230  20.520  43.130  0.00  0.00     0.078 H 
BRANCH   7  10
ATOM     10  N   GLY d   1      28.564  22.422  42.318  0.00  0.00    -0.351 N 
ATOM     11  C   2MR d   1      27.972  22.180  41.159  0.00  0.00     0.240 C 
ATOM     12  O   2MR d   1      27.173  21.270  40.991  0.00  0.00    -0.271 OA
ATOM     13  H28 GLY d   1      29.165  23.217  42.403  0.00  0.00     0.163 HD
BRANCH  11  14
ATOM     14  CA  2MR d   1      28.350  23.079  40.029  0.00  0.00     0.089 C 
ATOM     15  H12 2MR d   1      28.467  24.109  40.398  0.00  0.00     0.087 H 
BRANCH  14  16
ATOM     16  N   2MR d   1      29.656  22.599  39.516  0.00  0.00    -0.346 N 
ATOM     17  C   GLY d   1      30.802  23.169  39.908  0.00  0.00     0.236 C 
ATOM     18  O   GLY d   1      30.827  24.180  40.609  0.00  0.00    -0.272 OA
ATOM     19  H11 2MR d   1      29.681  21.838  38.867  0.00  0.00     0.163 HD
BRANCH  17  20
ATOM     20  CA  GLY d   1      32.109  22.514  39.479  0.00  0.00     0.069 C 
ATOM     21  H9  GLY d   1      31.907  21.679  38.792  0.00  0.00     0.078 H 
ATOM     22  H10 GLY d   1      32.756  23.250  38.980  0.00  0.00     0.078 H 
BRANCH  20  23
ATOM     23  N   GLY d   1      32.756  22.018  40.704  0.00  0.00    -0.351 N 
ATOM     24  C   ALA d   1      33.679  22.703  41.387  0.00  0.00     0.248 C 
ATOM     25  O   ALA d   1      34.311  23.649  40.905  0.00  0.00    -0.271 OA
ATOM     26  H8  GLY d   1      32.490  21.116  41.045  0.00  0.00     0.163 HD
BRANCH  24  27
ATOM     27  CA  ALA d   1      33.945  22.229  42.836  0.00  0.00     0.172 C 
ATOM     28  H4  ALA d   1      34.397  23.070  43.383  0.00  0.00     0.098 H 
BRANCH  27  29
ATOM     29  N   ALA d   1      32.669  21.853  43.544  0.00  0.00    -0.067 N 
ATOM     30  H1  ALA d   1      32.882  21.550  44.482  0.00  0.00     0.275 HD
ATOM     31  H2  ALA d   1      32.215  21.104  43.044  0.00  0.00     0.275 HD
ATOM     32  H3  ALA d   1      32.056  22.653  43.580  0.00  0.00     0.275 HD
ENDBRANCH  27  29
BRANCH  27  33
ATOM     33  CB  ALA d   1      34.934  21.064  42.867  0.00  0.00    -0.042 C 
ATOM     34  H5  ALA d   1      35.859  21.354  42.347  0.00  0.00     0.030 H 
ATOM     35  H6  ALA d   1      34.489  20.192  42.365  0.00  0.00     0.030 H 
ATOM     36  H7  ALA d   1      35.166  20.807  43.911  0.00  0.00     0.030 H 
ENDBRANCH  27  33
ENDBRANCH  24  27
ENDBRANCH  20  23
ENDBRANCH  17  20
ENDBRANCH  14  16
BRANCH  14  37
ATOM     37  CB  2MR d   1      27.246  23.068  38.968  0.00  0.00    -0.036 C 
ATOM     38  H13 2MR d   1      26.263  22.995  39.456  0.00  0.00     0.036 H 
ATOM     39  H14 2MR d   1      27.386  22.210  38.295  0.00  0.00     0.036 H 
BRANCH  37  40
ATOM     40  CG  2MR d   1      27.331  24.370  38.170  0.00  0.00    -0.048 C 
ATOM     41  H15 2MR d   1      28.390  24.589  37.970  0.00  0.00     0.035 H 
ATOM     42  H16 2MR d   1      26.897  25.180  38.775  0.00  0.00     0.035 H 
BRANCH  40  43
ATOM     43  CD  2MR d   1      26.594  24.311  36.846  0.00  0.00     0.009 C 
ATOM     44  H17 2MR d   1      25.511  24.335  37.035  0.00  0.00     0.064 H 
ATOM     45  H18 2MR d   1      26.855  23.376  36.329  0.00  0.00     0.064 H 
BRANCH  43  46
ATOM     46  NE  2MR d   1      26.958  25.445  35.999  0.00  0.00    -0.227 N 
ATOM     47  CZ  2MR d   1      27.575  25.353  34.821  0.00  0.00     0.668 C 
ATOM     48  NH1 2MR d   1      27.857  26.484  34.144  0.00  0.00    -0.231 N 
ATOM     49  NH2 2MR d   1      27.920  24.214  34.338  0.00  0.00    -0.231 N 
ATOM     50  H20 2MR d   1      28.346  26.397  33.241  0.00  0.00     0.177 HD
ATOM     51  H24 2MR d   1      27.679  23.399  34.919  0.00  0.00     0.177 HD
ATOM     52  H19 2MR d   1      26.719  26.388  36.338  0.00  0.00     0.177 HD
BRANCH  48  53
ATOM     53  CQ1 2MR d   1      27.514  27.824  34.609  0.00  0.00    -0.005 C 
ATOM     54  H21 2MR d   1      27.855  28.566  33.872  0.00  0.00     0.057 H 
ATOM     55  H22 2MR d   1      28.005  28.014  35.575  0.00  0.00     0.057 H 
ATOM     56  H23 2MR d   1      26.424  27.902  34.730  0.00  0.00     0.057 H 
ENDBRANCH  48  53
BRANCH  49  57
ATOM     57  CQ2 2MR d   1      28.611  23.902  33.073  0.00  0.00    -0.005 C 
ATOM     58  H25 2MR d   1      28.743  22.813  32.986  0.00  0.00     0.057 H 
ATOM     59  H26 2MR d   1      29.595  24.393  33.062  0.00  0.00     0.057 H 
ATOM     60  H27 2MR d   1      28.010  24.267  32.227  0.00  0.00     0.057 H 
ENDBRANCH  49  57
ENDBRANCH  43  46
ENDBRANCH  40  43
ENDBRANCH  37  40
ENDBRANCH  14  37
ENDBRANCH  11  14
ENDBRANCH   7  10
ENDBRANCH   4   7
ENDBRANCH   1   3
BRANCH   1  61
ATOM     61  C   LEU d   1      25.732  22.428  46.766  0.00  0.00     0.241 C 
ATOM     62  O   LEU d   1      26.833  22.398  47.317  0.00  0.00    -0.271 OA
ATOM     63  N   VAL d   1      24.851  23.399  46.983  0.00  0.00    -0.346 N 
ATOM     64  H42 VAL d   1      24.037  23.445  46.404  0.00  0.00     0.163 HD
BRANCH  63  65
ATOM     65  CA  VAL d   1      25.021  24.402  48.032  0.00  0.00     0.092 C 
ATOM     66  H43 VAL d   1      25.951  24.204  48.585  0.00  0.00     0.088 H 
BRANCH  65  67
ATOM     67  C   VAL d   1      23.829  24.277  48.966  0.00  0.00     0.241 C 
ATOM     68  O   VAL d   1      22.701  24.457  48.550  0.00  0.00    -0.271 OA
ATOM     69  N   PHE d   1      24.060  23.965  50.228  0.00  0.00    -0.346 N 
ATOM     70  H51 PHE d   1      24.996  23.793  50.536  0.00  0.00     0.163 HD
BRANCH  69  71
ATOM     71  CA  PHE d   1      22.954  23.870  51.175  0.00  0.00     0.093 C 
ATOM     72  H52 PHE d   1      22.180  23.228  50.728  0.00  0.00     0.088 H 
BRANCH  71  73
ATOM     73  C   PHE d   1      22.332  25.256  51.431  0.00  0.00     0.241 C 
ATOM     74  O   PHE d   1      23.036  26.213  51.810  0.00  0.00    -0.271 OA
ATOM     75  N   ARG d   1      21.022  25.341  51.193  0.00  0.00    -0.345 N 
ATOM     76  H60 ARG d   1      20.566  24.552  50.782  0.00  0.00     0.163 HD
BRANCH  75  77
ATOM     77  CA  ARG d   1      20.211  26.526  51.500  0.00  0.00     0.096 C 
ATOM     78  H61 ARG d   1      20.802  27.218  52.118  0.00  0.00     0.089 H 
BRANCH  77  79
ATOM     79  C   ARG d   1      18.937  26.134  52.234  0.00  0.00     0.196 C 
ATOM     80  O   ARG d   1      18.218  27.018  52.696  0.00  0.00    -0.646 OA
ATOM     81  OXT ARG d   1      18.572  24.941  52.342  0.00  0.00    -0.646 OA
ENDBRANCH  77  79
BRANCH  77  82
ATOM     82  CB  ARG d   1      19.777  27.219  50.211  0.00  0.00    -0.035 C 
ATOM     83  H62 ARG d   1      18.706  27.455  50.297  0.00  0.00     0.036 H 
ATOM     84  H63 ARG d   1      19.932  26.516  49.379  0.00  0.00     0.036 H 
BRANCH  82  85
ATOM     85  CG  ARG d   1      20.506  28.490  49.884  0.00  0.00    -0.047 C 
ATOM     86  H64 ARG d   1      21.581  28.280  49.782  0.00  0.00     0.035 H 
ATOM     87  H65 ARG d   1      20.350  29.220  50.692  0.00  0.00     0.035 H 
BRANCH  85  88
ATOM     88  CD  ARG d   1      19.976  29.057  48.580  0.00  0.00     0.009 C 
ATOM     89  H66 ARG d   1      19.095  29.683  48.782  0.00  0.00     0.064 H 
ATOM     90  H67 ARG d   1      19.694  28.233  47.908  0.00  0.00     0.064 H 
BRANCH  88  91
ATOM     91  NE  ARG d   1      21.004  29.856  47.960  0.00  0.00    -0.227 N 
ATOM     92  CZ  ARG d   1      20.990  30.296  46.708  0.00  0.00     0.665 C 
ATOM     93  NH1 ARG d   1      19.975  30.036  45.882  0.00  0.00    -0.235 N 
ATOM     94  NH2 ARG d   1      22.025  31.003  46.292  0.00  0.00    -0.235 N 
ATOM     95  H69 ARG d   1      19.993  30.392  44.916  0.00  0.00     0.174 HD
ATOM     96  H70 ARG d   1      19.173  29.480  46.211  0.00  0.00     0.174 HD
ATOM     97  H71 ARG d   1      22.805  31.200  46.934  0.00  0.00     0.174 HD
ATOM     98  H72 ARG d   1      22.052  31.357  45.325  0.00  0.00     0.174 HD
ATOM     99  H68 ARG d   1      21.819  30.107  48.538  0.00  0.00     0.177 HD
ENDBRANCH  88  91
ENDBRANCH  85  88
ENDBRANCH  82  85
ENDBRANCH  77  82
ENDBRANCH  75  77
ENDBRANCH  71  73
BRANCH  71 100
ATOM    100  CB  PHE d   1      23.403  23.221  52.489  0.00  0.00    -0.014 C 
ATOM    101  H53 PHE d   1      22.562  23.253  53.197  0.00  0.00     0.043 H 
ATOM    102  H54 PHE d   1      24.245  23.802  52.893  0.00  0.00     0.043 H 
BRANCH 100 103
ATOM    103  CG  PHE d   1      23.843  21.786  52.338  0.00  0.00    -0.056 A 
ATOM    104  CD1 PHE d   1      22.910  20.763  52.273  0.00  0.00    -0.077 A 
ATOM    105  CE1 PHE d   1      23.308  19.446  52.123  0.00  0.00    -0.082 A 
ATOM    106  H55 PHE d   1      21.854  20.998  52.341  0.00  0.00     0.084 H 
ATOM    107  CZ  PHE d   1      24.643  19.134  52.066  0.00  0.00    -0.083 A 
ATOM    108  H57 PHE d   1      22.565  18.660  52.050  0.00  0.00     0.083 H 
ATOM    109  CE2 PHE d   1      25.591  20.145  52.139  0.00  0.00    -0.082 A 
ATOM    110  H59 PHE d   1      24.956  18.101  51.964  0.00  0.00     0.083 H 
ATOM    111  CD2 PHE d   1      25.187  21.459  52.277  0.00  0.00    -0.077 A 
ATOM    112  H58 PHE d   1      26.647  19.904  52.088  0.00  0.00     0.083 H 
ATOM    113  H56 PHE d   1      25.932  22.244  52.338  0.00  0.00     0.084 H 
ENDBRANCH 100 103
ENDBRANCH  71 100
ENDBRANCH  69  71
ENDBRANCH  65  67
BRANCH  65 114
ATOM    114  CB  VAL d   1      25.083  25.834  47.434  0.00  0.00    -0.033 C 
ATOM    115  H44 VAL d   1      24.241  25.939  46.734  0.00  0.00     0.042 H 
BRANCH 114 116
ATOM    116  CG1 VAL d   1      24.908  26.885  48.521  0.00  0.00    -0.071 C 
ATOM    117  H45 VAL d   1      24.956  27.888  48.072  0.00  0.00     0.028 H 
ATOM    118  H46 VAL d   1      25.710  26.778  49.267  0.00  0.00     0.028 H 
ATOM    119  H47 VAL d   1      23.932  26.748  49.010  0.00  0.00     0.028 H 
ENDBRANCH 114 116
BRANCH 114 120
ATOM    120  CG2 VAL d   1      26.375  26.049  46.635  0.00  0.00    -0.071 C 
ATOM    121  H48 VAL d   1      26.462  25.271  45.863  0.00  0.00     0.028 H 
ATOM    122  H49 VAL d   1      27.239  25.991  47.313  0.00  0.00     0.028 H 
ATOM    123  H50 VAL d   1      26.350  27.039  46.157  0.00  0.00     0.028 H 
ENDBRANCH 114 120
ENDBRANCH  65 114
ENDBRANCH  63  65
ENDBRANCH   1  61
BRANCH   1 124
ATOM    124  CB  LEU d   1      24.827  20.080  46.344  0.00  0.00    -0.035 C 
ATOM    125  H33 LEU d   1      25.695  19.616  46.835  0.00  0.00     0.037 H 
ATOM    126  H34 LEU d   1      24.498  19.448  45.506  0.00  0.00     0.037 H 
BRANCH 124 127
ATOM    127  CG  LEU d   1      23.695  20.040  47.369  0.00  0.00    -0.059 C 
ATOM    128  H35 LEU d   1      22.901  20.727  47.042  0.00  0.00     0.038 H 
BRANCH 127 129
ATOM    129  CD1 LEU d   1      23.112  18.631  47.456  0.00  0.00    -0.073 C 
ATOM    130  H36 LEU d   1      22.299  18.616  48.197  0.00  0.00     0.028 H 
ATOM    131  H37 LEU d   1      23.899  17.927  47.762  0.00  0.00     0.028 H 
ATOM    132  H38 LEU d   1      22.718  18.336  46.472  0.00  0.00     0.028 H 
ENDBRANCH 127 129
BRANCH 127 133
ATOM    133  CD2 LEU d   1      24.197  20.494  48.722  0.00  0.00    -0.073 C 
ATOM    134  H39 LEU d   1      24.612  21.509  48.637  0.00  0.00     0.028 H 
ATOM    135  H40 LEU d   1      24.980  19.806  49.072  0.00  0.00     0.028 H 
ATOM    136  H41 LEU d   1      23.364  20.497  49.440  0.00  0.00     0.028 H 
ENDBRANCH 127 133
ENDBRANCH 124 127
ENDBRANCH   1 124
TORSDOF 36
