REMARK WARNING: 32 MAX_TORS EXCEEDED!!!
REMARK  33 active torsions:
REMARK  status: ('A' for Active; 'I' for Inactive)
REMARK    1  A    between atoms: N_1  and  CA_2 
REMARK    2  A    between atoms: CA_2  and  C_3 
REMARK    3  A    between atoms: CA_2  and  CB_5 
REMARK       I    between atoms: C_3  and  N_9 
REMARK    4  A    between atoms: CB_5  and  CG_6 
REMARK    5  A    between atoms: CG_6  and  CD1_7 
REMARK    6  A    between atoms: CG_6  and  CD2_8 
REMARK    7  A    between atoms: N_9  and  CA_10 
REMARK    8  A    between atoms: CA_10  and  C_11 
REMARK       I    between atoms: C_11  and  N_13 
REMARK    9  A    between atoms: N_13  and  CA_14 
REMARK   10  A    between atoms: CA_14  and  C_15 
REMARK   11  A    between atoms: CA_14  and  CB_17 
REMARK       I    between atoms: C_15  and  N_22 
REMARK   12  A    between atoms: CB_17  and  CG_18 
REMARK   13  A    between atoms: CG_18  and  CD_19 
REMARK   14  A    between atoms: CD_19  and  CE_20 
REMARK   15  A    between atoms: CE_20  and  NZ_21 
REMARK   16  A    between atoms: N_22  and  CA_23 
REMARK   17  A    between atoms: CA_23  and  C_24 
REMARK   18  A    between atoms: CA_23  and  CB_26 
REMARK       I    between atoms: C_24  and  N_33 
REMARK   19  A    between atoms: CB_26  and  CG_27 
REMARK   20  A    between atoms: CG_27  and  CD_28 
REMARK   21  A    between atoms: CD_28  and  NE_29 
REMARK       I    between atoms: NE_29  and  CZ_30 
REMARK       I    between atoms: CZ_30  and  NH1_31 
REMARK   22  A    between atoms: N_33  and  CA_34 
REMARK   23  A    between atoms: CA_34  and  C_35 
REMARK   24  A    between atoms: CA_34  and  CB_37 
REMARK       I    between atoms: C_35  and  N_42 
REMARK   25  A    between atoms: CB_37  and  CG_38 
REMARK   26  A    between atoms: CG_38  and  CD_39 
REMARK   27  A    between atoms: CD_39  and  CE_40 
REMARK   28  A    between atoms: CE_40  and  NZ_41 
REMARK   29  A    between atoms: N_42  and  CA_43 
REMARK   30  A    between atoms: CA_43  and  C_44 
REMARK   31  A    between atoms: CA_43  and  CB_46 
REMARK   32  A    between atoms: CB_46  and  CG_47 
REMARK   33  A    between atoms: CZ_52  and  OH_53 
ROOT
ATOM      1  CA  ARG d   1       1.338   5.362   7.944  0.00  0.00     0.089 C 
ATOM      2  H31 ARG d   1       1.817   5.043   7.007  0.00  0.00     0.087 H 
ENDROOT
BRANCH   1   3
ATOM      3  N   ARG d   1       0.101   6.070   7.601  0.00  0.00    -0.346 N 
ATOM      4  C   LYS d   1      -0.105   6.659   6.417  0.00  0.00     0.241 C 
ATOM      5  O   LYS d   1       0.742   6.683   5.516  0.00  0.00    -0.271 OA
ATOM      6  H30 ARG d   1      -0.626   6.115   8.286  0.00  0.00     0.163 HD
BRANCH   4   7
ATOM      7  CA  LYS d   1      -1.449   7.349   6.225  0.00  0.00     0.089 C 
ATOM      8  H18 LYS d   1      -1.786   7.744   7.195  0.00  0.00     0.087 H 
BRANCH   7   9
ATOM      9  N   LYS d   1      -1.307   8.464   5.293  0.00  0.00    -0.346 N 
ATOM     10  C   GLY d   1      -1.778   9.697   5.475  0.00  0.00     0.236 C 
ATOM     11  O   GLY d   1      -2.368  10.063   6.497  0.00  0.00    -0.272 OA
ATOM     12  H17 LYS d   1      -0.812   8.286   4.442  0.00  0.00     0.163 HD
BRANCH  10  13
ATOM     13  CA  GLY d   1      -1.527  10.656   4.336  0.00  0.00     0.069 C 
ATOM     14  H15 GLY d   1      -1.414  10.086   3.402  0.00  0.00     0.078 H 
ATOM     15  H16 GLY d   1      -2.382  11.342   4.246  0.00  0.00     0.078 H 
BRANCH  13  16
ATOM     16  N   GLY d   1      -0.317  11.428   4.575  0.00  0.00    -0.351 N 
ATOM     17  C   LEU d   1       0.816  11.320   3.887  0.00  0.00     0.248 C 
ATOM     18  O   LEU d   1       0.979  10.536   2.945  0.00  0.00    -0.271 OA
ATOM     19  H14 GLY d   1      -0.339  12.096   5.319  0.00  0.00     0.163 HD
BRANCH  17  20
ATOM     20  CA  LEU d   1       1.930  12.289   4.343  0.00  0.00     0.176 C 
ATOM     21  H4  LEU d   1       1.604  13.312   4.104  0.00  0.00     0.099 H 
BRANCH  20  22
ATOM     22  N   LEU d   1       2.097  12.197   5.794  0.00  0.00    -0.066 N 
ATOM     23  H1  LEU d   1       2.824  12.830   6.089  0.00  0.00     0.275 HD
ATOM     24  H2  LEU d   1       2.350  11.254   6.044  0.00  0.00     0.275 HD
ATOM     25  H3  LEU d   1       1.232  12.444   6.248  0.00  0.00     0.275 HD
ENDBRANCH  20  22
BRANCH  20  26
ATOM     26  CB  LEU d   1       3.266  12.042   3.598  0.00  0.00    -0.028 C 
ATOM     27  H5  LEU d   1       3.049  12.041   2.520  0.00  0.00     0.037 H 
ATOM     28  H6  LEU d   1       3.635  11.050   3.899  0.00  0.00     0.037 H 
BRANCH  26  29
ATOM     29  CG  LEU d   1       4.407  13.060   3.844  0.00  0.00    -0.059 C 
ATOM     30  H7  LEU d   1       4.475  13.224   4.929  0.00  0.00     0.038 H 
BRANCH  29  31
ATOM     31  CD1 LEU d   1       5.746  12.507   3.373  0.00  0.00    -0.073 C 
ATOM     32  H8  LEU d   1       6.536  13.250   3.560  0.00  0.00     0.028 H 
ATOM     33  H9  LEU d   1       5.695  12.290   2.296  0.00  0.00     0.028 H 
ATOM     34  H10 LEU d   1       5.975  11.582   3.923  0.00  0.00     0.028 H 
ENDBRANCH  29  31
BRANCH  29  35
ATOM     35  CD2 LEU d   1       4.121  14.418   3.187  0.00  0.00    -0.073 C 
ATOM     36  H11 LEU d   1       3.151  14.799   3.540  0.00  0.00     0.028 H 
ATOM     37  H12 LEU d   1       4.092  14.298   2.094  0.00  0.00     0.028 H 
ATOM     38  H13 LEU d   1       4.915  15.130   3.456  0.00  0.00     0.028 H 
ENDBRANCH  29  35
ENDBRANCH  26  29
ENDBRANCH  20  26
ENDBRANCH  17  20
ENDBRANCH  13  16
ENDBRANCH  10  13
ENDBRANCH   7   9
BRANCH   7  39
ATOM     39  CB  LYS d   1      -2.495   6.337   5.717  0.00  0.00    -0.038 C 
ATOM     40  H19 LYS d   1      -2.494   5.472   6.397  0.00  0.00     0.036 H 
ATOM     41  H20 LYS d   1      -2.197   6.012   4.709  0.00  0.00     0.036 H 
BRANCH  39  42
ATOM     42  CG  LYS d   1      -3.916   6.880   5.640  0.00  0.00    -0.061 C 
ATOM     43  H21 LYS d   1      -3.907   7.842   5.107  0.00  0.00     0.033 H 
ATOM     44  H22 LYS d   1      -4.302   7.029   6.659  0.00  0.00     0.033 H 
BRANCH  42  45
ATOM     45  CD  LYS d   1      -4.820   5.909   4.902  0.00  0.00    -0.043 C 
ATOM     46  H23 LYS d   1      -4.932   4.994   5.503  0.00  0.00     0.035 H 
ATOM     47  H24 LYS d   1      -4.364   5.658   3.933  0.00  0.00     0.035 H 
BRANCH  45  48
ATOM     48  CE  LYS d   1      -6.181   6.512   4.664  0.00  0.00     0.080 C 
ATOM     49  H25 LYS d   1      -6.054   7.471   4.140  0.00  0.00     0.075 H 
ATOM     50  H26 LYS d   1      -6.663   6.687   5.637  0.00  0.00     0.075 H 
BRANCH  48  51
ATOM     51  NZ  LYS d   1      -7.063   5.636   3.847  0.00  0.00    -0.079 N 
ATOM     52  H27 LYS d   1      -7.956   6.085   3.719  0.00  0.00     0.274 HD
ATOM     53  H28 LYS d   1      -7.194   4.756   4.321  0.00  0.00     0.274 HD
ATOM     54  H29 LYS d   1      -6.636   5.474   2.948  0.00  0.00     0.274 HD
ENDBRANCH  48  51
ENDBRANCH  45  48
ENDBRANCH  42  45
ENDBRANCH  39  42
ENDBRANCH   7  39
ENDBRANCH   4   7
ENDBRANCH   1   3
BRANCH   1  55
ATOM     55  C   ARG d   1       1.030   4.131   8.774  0.00  0.00     0.241 C 
ATOM     56  O   ARG d   1       0.244   4.195   9.729  0.00  0.00    -0.271 OA
ATOM     57  N   LYS d   1       1.655   3.010   8.414  0.00  0.00    -0.346 N 
ATOM     58  H43 LYS d   1       2.220   3.019   7.589  0.00  0.00     0.163 HD
BRANCH  57  59
ATOM     59  CA  LYS d   1       1.547   1.769   9.178  0.00  0.00     0.089 C 
ATOM     60  H44 LYS d   1       0.592   1.775   9.723  0.00  0.00     0.087 H 
BRANCH  59  61
ATOM     61  C   LYS d   1       2.698   1.753  10.212  0.00  0.00     0.241 C 
ATOM     62  O   LYS d   1       3.716   2.416   9.994  0.00  0.00    -0.271 OA
ATOM     63  N   TYR d   1       2.512   1.043  11.343  0.00  0.00    -0.344 N 
ATOM     64  H56 TYR d   1       1.635   0.575  11.454  0.00  0.00     0.163 HD
BRANCH  63  65
ATOM     65  CA  TYR d   1       3.493   0.903  12.424  0.00  0.00     0.100 C 
ATOM     66  H57 TYR d   1       4.223   1.722  12.353  0.00  0.00     0.090 H 
BRANCH  65  67
ATOM     67  C   TYR d   1       4.242  -0.429  12.277  0.00  0.00     0.197 C 
ATOM     68  O   TYR d   1       3.626  -1.473  11.933  0.00  0.00    -0.646 OA
ATOM     69  O   TYR d   1       5.481  -0.479  12.502  0.00  0.00    -0.646 OA
ENDBRANCH  65  67
BRANCH  65  70
ATOM     70  CB  TYR d   1       2.765   1.009  13.785  0.00  0.00    -0.013 C 
ATOM     71  H58 TYR d   1       2.017   0.203  13.813  0.00  0.00     0.043 H 
ATOM     72  H59 TYR d   1       2.255   1.983  13.802  0.00  0.00     0.043 H 
BRANCH  70  73
ATOM     73  CG  TYR d   1       3.576   0.909  15.069  0.00  0.00    -0.056 A 
ATOM     74  CD1 TYR d   1       4.964   1.033  15.060  0.00  0.00    -0.074 A 
ATOM     75  CE1 TYR d   1       5.707   0.935  16.240  0.00  0.00    -0.051 A 
ATOM     76  H60 TYR d   1       5.477   1.209  14.121  0.00  0.00     0.084 H 
ATOM     77  CZ  TYR d   1       5.056   0.750  17.451  0.00  0.00     0.065 A 
ATOM     78  H62 TYR d   1       6.788   1.003  16.209  0.00  0.00     0.087 H 
ATOM     79  CE2 TYR d   1       3.679   0.642  17.481  0.00  0.00    -0.051 A 
ATOM     80  CD2 TYR d   1       2.949   0.741  16.298  0.00  0.00    -0.074 A 
ATOM     81  H63 TYR d   1       3.167   0.481  18.423  0.00  0.00     0.087 H 
ATOM     82  H61 TYR d   1       1.867   0.686  16.337  0.00  0.00     0.084 H 
BRANCH  77  83
ATOM     83  OH  TYR d   1       5.756   0.659  18.630  0.00  0.00    -0.361 OA
ATOM     84  H64 TYR d   1       6.685   0.751  18.453  0.00  0.00     0.217 HD
ENDBRANCH  77  83
ENDBRANCH  70  73
ENDBRANCH  65  70
ENDBRANCH  63  65
ENDBRANCH  59  61
BRANCH  59  85
ATOM     85  CB  LYS d   1       1.549   0.528   8.256  0.00  0.00    -0.038 C 
ATOM     86  H45 LYS d   1       0.723   0.641   7.538  0.00  0.00     0.036 H 
ATOM     87  H46 LYS d   1       1.371  -0.357   8.884  0.00  0.00     0.036 H 
BRANCH  85  88
ATOM     88  CG  LYS d   1       2.837   0.284   7.455  0.00  0.00    -0.061 C 
ATOM     89  H47 LYS d   1       3.665   0.122   8.161  0.00  0.00     0.033 H 
ATOM     90  H48 LYS d   1       3.045   1.175   6.844  0.00  0.00     0.033 H 
BRANCH  88  91
ATOM     91  CD  LYS d   1       2.738  -0.941   6.522  0.00  0.00    -0.043 C 
ATOM     92  H49 LYS d   1       3.563  -0.889   5.797  0.00  0.00     0.035 H 
ATOM     93  H50 LYS d   1       1.777  -0.890   5.989  0.00  0.00     0.035 H 
BRANCH  91  94
ATOM     94  CE  LYS d   1       2.816  -2.280   7.234  0.00  0.00     0.080 C 
ATOM     95  H51 LYS d   1       1.861  -2.466   7.748  0.00  0.00     0.075 H 
ATOM     96  H52 LYS d   1       3.630  -2.243   7.973  0.00  0.00     0.075 H 
BRANCH  94  97
ATOM     97  NZ  LYS d   1       3.077  -3.397   6.287  0.00  0.00    -0.079 N 
ATOM     98  H53 LYS d   1       3.122  -4.266   6.796  0.00  0.00     0.274 HD
ATOM     99  H54 LYS d   1       3.953  -3.239   5.814  0.00  0.00     0.274 HD
ATOM    100  H55 LYS d   1       2.333  -3.443   5.609  0.00  0.00     0.274 HD
ENDBRANCH  94  97
ENDBRANCH  91  94
ENDBRANCH  88  91
ENDBRANCH  85  88
ENDBRANCH  59  85
ENDBRANCH  57  59
ENDBRANCH   1  55
BRANCH   1 101
ATOM    101  CB  ARG d   1       2.344   6.262   8.725  0.00  0.00    -0.036 C 
ATOM    102  H32 ARG d   1       3.344   5.819   8.604  0.00  0.00     0.036 H 
ATOM    103  H33 ARG d   1       2.056   6.233   9.786  0.00  0.00     0.036 H 
BRANCH 101 104
ATOM    104  CG  ARG d   1       2.444   7.743   8.316  0.00  0.00    -0.048 C 
ATOM    105  H34 ARG d   1       2.744   8.328   9.198  0.00  0.00     0.035 H 
ATOM    106  H35 ARG d   1       1.453   8.077   7.974  0.00  0.00     0.035 H 
BRANCH 104 107
ATOM    107  CD  ARG d   1       3.446   8.001   7.206  0.00  0.00     0.009 C 
ATOM    108  H36 ARG d   1       3.080   7.532   6.281  0.00  0.00     0.064 H 
ATOM    109  H37 ARG d   1       4.411   7.554   7.487  0.00  0.00     0.064 H 
BRANCH 107 110
ATOM    110  NE  ARG d   1       3.640   9.435   6.965  0.00  0.00    -0.227 N 
ATOM    111  CZ  ARG d   1       4.506  10.203   7.625  0.00  0.00     0.665 C 
ATOM    112  NH1 ARG d   1       5.264   9.689   8.588  0.00  0.00    -0.235 N 
ATOM    113  NH2 ARG d   1       4.616  11.493   7.332  0.00  0.00    -0.235 N 
ATOM    114  H39 ARG d   1       5.931  10.289   9.094  0.00  0.00     0.174 HD
ATOM    115  H40 ARG d   1       5.184   8.691   8.829  0.00  0.00     0.174 HD
ATOM    116  H41 ARG d   1       4.034  11.903   6.588  0.00  0.00     0.174 HD
ATOM    117  H42 ARG d   1       5.283  12.084   7.849  0.00  0.00     0.174 HD
ATOM    118  H38 ARG d   1       3.066   9.880   6.234  0.00  0.00     0.177 HD
ENDBRANCH 107 110
ENDBRANCH 104 107
ENDBRANCH 101 104
ENDBRANCH   1 101
TORSDOF 33
