REMARK  9 active torsions:
REMARK  status: ('A' for Active; 'I' for Inactive)
REMARK    1  A    between atoms: C20_4  and  C26_8 
REMARK    2  A    between atoms: C7_10  and  C5_5 
REMARK    3  A    between atoms: C21_6  and  C23_11 
REMARK    4  A    between atoms: C2_7  and  C1_17 
REMARK    5  A    between atoms: N13_25  and  C18_9 
REMARK       I    between atoms: N9_26  and  C7_10 
REMARK    6  A    between atoms: C10_15  and  N9_26 
REMARK    7  A    between atoms: C15_16  and  O16_30 
REMARK    8  A    between atoms: N30_24  and  C31_18 
REMARK    9  A    between atoms: O16_30  and  C17_19 
ROOT
ATOM      1  C11 RWX d   1       4.457  -3.489 -16.859  0.00  0.00    -0.029 C 
ATOM      2  C12 RWX d   1       4.829  -3.101 -18.274  0.00  0.00    -0.001 C 
ATOM      3  C14 RWX d   1       6.969  -4.248 -18.101  0.00  0.00     0.023 C 
ATOM      4  C10 RWX d   1       5.684  -3.787 -16.010  0.00  0.00     0.040 C 
ATOM      5  C15 RWX d   1       6.685  -4.736 -16.684  0.00  0.00     0.073 C 
ATOM      6  N13 RWX d   1       5.693  -4.143 -18.800  0.00  0.00    -0.357 N 
ATOM      7  H   RWX d   1       3.821  -4.386 -16.892  0.00  0.00     0.038 H 
ATOM      8  H   RWX d   1       3.899  -2.661 -16.398  0.00  0.00     0.038 H 
ATOM      9  H   RWX d   1       5.361  -2.138 -18.272  0.00  0.00     0.064 H 
ATOM     10  H   RWX d   1       3.922  -3.018 -18.891  0.00  0.00     0.064 H 
ATOM     11  H   RWX d   1       7.622  -4.965 -18.620  0.00  0.00     0.068 H 
ATOM     12  H   RWX d   1       7.459  -3.264 -18.067  0.00  0.00     0.068 H 
ATOM     13  H   RWX d   1       6.216  -2.828 -15.925  0.00  0.00     0.076 H 
ATOM     14  H   RWX d   1       7.619  -4.737 -16.103  0.00  0.00     0.089 H 
ENDROOT
BRANCH   6  15
ATOM     15  C18 RWX d   1       5.744  -4.284 -20.154  0.00  0.00     0.170 A 
ATOM     16  N19 RWX d   1       6.800  -4.717 -20.808  0.00  0.00    -0.219 NA
ATOM     17  C20 RWX d   1       6.557  -4.791 -22.154  0.00  0.00     0.131 A 
ATOM     18  C21 RWX d   1       5.294  -4.423 -22.560  0.00  0.00     0.117 A 
ATOM     19  S22 RWX d   1       4.395  -3.958 -21.176  0.00  0.00    -0.043 SA
BRANCH  17  20
ATOM     20  C26 RWX d   1       7.597  -5.296 -23.069  0.00  0.00     0.177 A 
ATOM     21  N27 RWX d   1       8.612  -4.591 -23.516  0.00  0.00    -0.219 NA
ATOM     22  C28 RWX d   1       9.275  -5.500 -24.299  0.00  0.00     0.108 A 
ATOM     23  N29 RWX d   1       8.734  -6.723 -24.355  0.00  0.00    -0.164 NA
ATOM     24  H   RWX d   1      10.184  -5.244 -24.841  0.00  0.00     0.149 H 
ATOM     25  N30 RWX d   1       7.664  -6.571 -23.563  0.00  0.00    -0.254 N 
BRANCH  25  26
ATOM     26  C31 RWX d   1       6.754  -7.682 -23.326  0.00  0.00     0.004 C 
ATOM     27  H   RWX d   1       7.104  -8.567 -23.878  0.00  0.00     0.059 H 
ATOM     28  H   RWX d   1       5.745  -7.410 -23.671  0.00  0.00     0.059 H 
ATOM     29  H   RWX d   1       6.725  -7.909 -22.250  0.00  0.00     0.059 H 
ENDBRANCH  25  26
ENDBRANCH  17  20
BRANCH  18  30
ATOM     30  C23 RWX d   1       4.701  -4.391 -23.859  0.00  0.00     0.219 C 
ATOM     31  O24 RWX d   1       3.610  -4.856 -24.153  0.00  0.00    -0.643 OA
ATOM     32  O25 RWX d   1       5.530  -3.774 -24.746  0.00  0.00    -0.643 OA
ENDBRANCH  18  30
ENDBRANCH   6  15
BRANCH   5  33
ATOM     33  O16 RWX d   1       6.179  -6.076 -16.757  0.00  0.00    -0.387 OA
BRANCH  33  34
ATOM     34  C17 RWX d   1       7.086  -6.987 -16.141  0.00  0.00     0.005 C 
ATOM     35  H   RWX d   1       6.681  -8.008 -16.207  0.00  0.00     0.066 H 
ATOM     36  H   RWX d   1       7.220  -6.713 -15.084  0.00  0.00     0.066 H 
ATOM     37  H   RWX d   1       8.057  -6.943 -16.657  0.00  0.00     0.066 H 
ENDBRANCH  33  34
ENDBRANCH   5  33
BRANCH   4  38
ATOM     38  N9  RWX d   1       5.346  -4.153 -14.648  0.00  0.00    -0.348 N 
ATOM     39  C7  RWX d   1       4.741  -3.276 -13.768  0.00  0.00     0.270 C 
ATOM     40  O8  RWX d   1       4.374  -2.154 -14.088  0.00  0.00    -0.266 OA
ATOM     41  H   RWX d   1       5.559  -5.078 -14.333  0.00  0.00     0.163 HD
BRANCH  39  42
ATOM     42  C5  RWX d   1       4.544  -3.719 -12.419  0.00  0.00     0.120 A 
ATOM     43  C4  RWX d   1       4.988  -4.803 -11.680  0.00  0.00     0.067 A 
ATOM     44  C3  RWX d   1       4.461  -4.679 -10.366  0.00  0.00     0.076 A 
ATOM     45 BR3  RWX d   1       6.134  -6.237 -12.221  0.00  0.00    -0.047 Br
ATOM     46  C2  RWX d   1       3.712  -3.527 -10.317  0.00  0.00     0.029 A 
ATOM     47 CL3  RWX d   1       4.728  -5.708  -9.037  0.00  0.00    -0.081 Cl
ATOM     48  N6  RWX d   1       3.766  -2.987 -11.565  0.00  0.00    -0.353 N 
ATOM     49  H   RWX d   1       3.275  -2.123 -11.836  0.00  0.00     0.166 HD
BRANCH  46  50
ATOM     50  C1  RWX d   1       2.940  -2.924  -9.218  0.00  0.00    -0.036 C 
ATOM     51  H   RWX d   1       2.472  -1.992  -9.567  0.00  0.00     0.035 H 
ATOM     52  H   RWX d   1       3.612  -2.703  -8.376  0.00  0.00     0.035 H 
ATOM     53  H   RWX d   1       2.159  -3.626  -8.890  0.00  0.00     0.035 H 
ENDBRANCH  46  50
ENDBRANCH  39  42
ENDBRANCH   4  38
TORSDOF 9
