REMARK  4 active torsions:
REMARK  status: ('A' for Active; 'I' for Inactive)
REMARK    1  A    between atoms: C10_11  and  C19_20 
REMARK    2  A    between atoms: C13_14  and  C18_19 
REMARK    3  A    between atoms: C17_18  and  C20_21 
REMARK    4  A    between atoms: C20_21  and  C21_23 
ROOT
ATOM      1  C1  STR d   1     -30.522  -8.700   2.133  0.00  0.00    -0.048 C 
ATOM      2  C2  STR d   1     -30.638  -7.562   3.148  0.00  0.00    -0.005 C 
ATOM      3  C3  STR d   1     -30.349  -8.096   4.534  0.00  0.00     0.149 C 
ATOM      4  O3  STR d   1     -30.902  -7.623   5.514  0.00  0.00    -0.293 OA
ATOM      5  C4  STR d   1     -29.384  -9.200   4.713  0.00  0.00    -0.036 C 
ATOM      6  C5  STR d   1     -28.829  -9.833   3.667  0.00  0.00    -0.068 C 
ATOM      7  C6  STR d   1     -27.749 -10.857   3.956  0.00  0.00    -0.043 C 
ATOM      8  C7  STR d   1     -28.089 -12.185   3.284  0.00  0.00    -0.058 C 
ATOM      9  C8  STR d   1     -28.418 -12.005   1.804  0.00  0.00    -0.045 C 
ATOM     10  C9  STR d   1     -29.514 -10.935   1.562  0.00  0.00    -0.040 C 
ATOM     11  C10 STR d   1     -29.249  -9.564   2.230  0.00  0.00    -0.016 C 
ATOM     12  C11 STR d   1     -29.888 -10.825   0.068  0.00  0.00    -0.060 C 
ATOM     13  C12 STR d   1     -30.229 -12.168  -0.591  0.00  0.00    -0.057 C 
ATOM     14  C13 STR d   1     -29.168 -13.235  -0.316  0.00  0.00    -0.030 C 
ATOM     15  C14 STR d   1     -28.890 -13.326   1.184  0.00  0.00    -0.043 C 
ATOM     16  C15 STR d   1     -28.095 -14.614   1.390  0.00  0.00    -0.060 C 
ATOM     17  C16 STR d   1     -28.709 -15.536   0.329  0.00  0.00    -0.054 C 
ATOM     18  C17 STR d   1     -29.629 -14.668  -0.555  0.00  0.00     0.011 C 
ATOM     19  H1  STR d   1     -30.553  -8.258   1.126  0.00  0.00     0.035 H 
ATOM     20  H2  STR d   1     -31.390  -9.362   2.269  0.00  0.00     0.035 H 
ATOM     21  H3  STR d   1     -31.656  -7.146   3.119  0.00  0.00     0.044 H 
ATOM     22  H4  STR d   1     -29.913  -6.773   2.900  0.00  0.00     0.044 H 
ATOM     23  H5  STR d   1     -29.115  -9.509   5.722  0.00  0.00     0.089 H 
ATOM     24  H6  STR d   1     -27.673 -11.009   5.043  0.00  0.00     0.039 H 
ATOM     25  H7  STR d   1     -26.787 -10.490   3.569  0.00  0.00     0.039 H 
ATOM     26  H8  STR d   1     -28.959 -12.628   3.791  0.00  0.00     0.034 H 
ATOM     27  H9  STR d   1     -27.227 -12.862   3.377  0.00  0.00     0.034 H 
ATOM     28  H10 STR d   1     -27.500 -11.683   1.291  0.00  0.00     0.041 H 
ATOM     29  H11 STR d   1     -30.413 -11.325   2.062  0.00  0.00     0.042 H 
ATOM     30  H12 STR d   1     -29.037 -10.382  -0.470  0.00  0.00     0.033 H 
ATOM     31  H13 STR d   1     -30.762 -10.164  -0.022  0.00  0.00     0.033 H 
ATOM     32  H14 STR d   1     -30.307 -12.019  -1.678  0.00  0.00     0.034 H 
ATOM     33  H15 STR d   1     -31.195 -12.520  -0.199  0.00  0.00     0.034 H 
ATOM     34  H16 STR d   1     -29.860 -13.508   1.670  0.00  0.00     0.041 H 
ATOM     35  H17 STR d   1     -28.241 -15.017   2.403  0.00  0.00     0.033 H 
ATOM     36  H18 STR d   1     -27.022 -14.455   1.210  0.00  0.00     0.033 H 
ATOM     37  H19 STR d   1     -29.294 -16.331   0.814  0.00  0.00     0.034 H 
ATOM     38  H20 STR d   1     -27.914 -15.987  -0.283  0.00  0.00     0.034 H 
ATOM     39  H21 STR d   1     -30.657 -14.763  -0.174  0.00  0.00     0.052 H 
ENDROOT
BRANCH  18  40
ATOM     40  C20 STR d   1     -29.678 -15.084  -2.014  0.00  0.00     0.128 C 
ATOM     41  O20 STR d   1     -28.798 -15.807  -2.470  0.00  0.00    -0.298 OA
BRANCH  40  42
ATOM     42  C21 STR d   1     -30.825 -14.612  -2.874  0.00  0.00    -0.021 C 
ATOM     43  H28 STR d   1     -30.703 -15.003  -3.895  0.00  0.00     0.037 H 
ATOM     44  H29 STR d   1     -30.834 -13.512  -2.901  0.00  0.00     0.037 H 
ATOM     45  H30 STR d   1     -31.773 -14.976  -2.453  0.00  0.00     0.037 H 
ENDBRANCH  40  42
ENDBRANCH  18  40
BRANCH  14  46
ATOM     46  C18 STR d   1     -27.906 -12.924  -1.141  0.00  0.00    -0.068 C 
ATOM     47  H22 STR d   1     -27.592 -11.887  -0.953  0.00  0.00     0.028 H 
ATOM     48  H23 STR d   1     -28.127 -13.052  -2.211  0.00  0.00     0.028 H 
ATOM     49  H24 STR d   1     -27.098 -13.611  -0.848  0.00  0.00     0.028 H 
ENDBRANCH  14  46
BRANCH  11  50
ATOM     50  C19 STR d   1     -28.096  -8.802   1.570  0.00  0.00    -0.065 C 
ATOM     51  H25 STR d   1     -27.952  -7.839   2.082  0.00  0.00     0.028 H 
ATOM     52  H26 STR d   1     -28.334  -8.622   0.511  0.00  0.00     0.028 H 
ATOM     53  H27 STR d   1     -27.174  -9.397   1.643  0.00  0.00     0.028 H 
ENDBRANCH  11  50
TORSDOF 4
