REMARK  8 active torsions:
REMARK  status: ('A' for Active; 'I' for Inactive)
REMARK       I    between atoms: C3_2  and  N_3 
REMARK    1  A    between atoms: C3_2  and  C4_8 
REMARK    2  A    between atoms: N_3  and  C2_4 
REMARK    3  A    between atoms: C2_4  and  C1_5 
REMARK    4  A    between atoms: C1_5  and  O_6 
REMARK    5  A    between atoms: O_6  and  C_7 
REMARK    6  A    between atoms: C7_11  and  N1_14 
REMARK    7  A    between atoms: N1_14  and  C8_15 
REMARK    8  A    between atoms: C12_23  and  C16_25 
ROOT
ATOM      1  N1  32W d   1      14.325   8.476  11.528  0.00  0.00    -0.188 N 
ATOM      2  H13 32W d   1      15.334   8.279  11.587  0.00  0.00     0.184 HD
ENDROOT
BRANCH   1   3
ATOM      3  C7  32W d   1      14.047   9.812  11.180  0.00  0.00     0.049 C 
ATOM      4  C21 32W d   1      15.115  10.699  11.106  0.00  0.00    -0.056 C 
ATOM      5  C22 32W d   1      14.884  12.049  10.903  0.00  0.00    -0.066 C 
ATOM      6  H10 32W d   1      16.130  10.333  11.207  0.00  0.00     0.087 H 
ATOM      7  C4  32W d   1      13.585  12.556  10.907  0.00  0.00     0.032 C 
ATOM      8  H9  32W d   1      15.721  12.718  10.739  0.00  0.00     0.085 H 
ATOM      9  C5  32W d   1      12.524  11.672  11.092  0.00  0.00    -0.066 C 
ATOM     10  C6  32W d   1      12.757  10.322  11.290  0.00  0.00    -0.056 C 
ATOM     11  H12 32W d   1      11.506  12.045  11.081  0.00  0.00     0.085 H 
ATOM     12  H11 32W d   1      11.933   9.661  11.531  0.00  0.00     0.087 H 
BRANCH   7  13
ATOM     13  C3  32W d   1      13.353  14.019  10.673  0.00  0.00     0.251 C 
ATOM     14  O1  32W d   1      14.165  14.692  10.041  0.00  0.00    -0.268 OA
ATOM     15  N   32W d   1      12.240  14.546  11.198  0.00  0.00    -0.355 N 
ATOM     16  H1  32W d   1      11.627  13.945  11.712  0.00  0.00     0.162 HD
BRANCH  15  17
ATOM     17  C2  32W d   1      11.875  15.953  11.059  0.00  0.00     0.015 C 
ATOM     18  H2  32W d   1      10.778  16.030  11.042  0.00  0.00     0.067 H 
ATOM     19  H3  32W d   1      12.284  16.328  10.109  0.00  0.00     0.067 H 
BRANCH  17  20
ATOM     20  C1  32W d   1      12.397  16.811  12.176  0.00  0.00     0.034 C 
ATOM     21  H4  32W d   1      12.120  17.861  12.001  0.00  0.00     0.076 H 
ATOM     22  H5  32W d   1      13.492  16.725  12.233  0.00  0.00     0.076 H 
BRANCH  20  23
ATOM     23  O   32W d   1      11.816  16.356  13.382  0.00  0.00    -0.394 OA
BRANCH  23  24
ATOM     24  C   32W d   1      12.264  17.093  14.508  0.00  0.00     0.004 C 
ATOM     25  H6  32W d   1      11.784  16.701  15.417  0.00  0.00     0.066 H 
ATOM     26  H7  32W d   1      11.999  18.153  14.382  0.00  0.00     0.066 H 
ATOM     27  H8  32W d   1      13.356  16.996  14.599  0.00  0.00     0.066 H 
ENDBRANCH  23  24
ENDBRANCH  20  23
ENDBRANCH  17  20
ENDBRANCH  15  17
ENDBRANCH   7  13
ENDBRANCH   1   3
BRANCH   1  28
ATOM     28  C8  32W d   1      13.559   7.391  11.803  0.00  0.00     0.727 A 
ATOM     29  N3  32W d   1      12.182   7.426  11.496  0.00  0.00    -0.062 NA
ATOM     30  C15 32W d   1      11.495   6.270  11.765  0.00  0.00     0.087 A 
ATOM     31  C10 32W d   1      12.138   5.112  12.270  0.00  0.00     0.012 A 
ATOM     32  C14 32W d   1      10.106   6.220  11.491  0.00  0.00    -0.053 A 
ATOM     33  C9  32W d   1      13.544   5.220  12.434  0.00  0.00     0.033 A 
ATOM     34  C11 32W d   1      11.349   3.957  12.503  0.00  0.00    -0.059 A 
ATOM     35  N2  32W d   1      14.237   6.324  12.261  0.00  0.00    -0.074 NA
ATOM     36  H14 32W d   1      14.086   4.327  12.723  0.00  0.00     0.117 H 
ATOM     37  C12 32W d   1       9.981   3.938  12.266  0.00  0.00    -0.025 A 
ATOM     38  H17 32W d   1      11.829   3.060  12.878  0.00  0.00     0.086 H 
ATOM     39  C13 32W d   1       9.380   5.096  11.763  0.00  0.00    -0.070 A 
ATOM     40  H16 32W d   1       8.311   5.101  11.585  0.00  0.00     0.084 H 
ATOM     41  H15 32W d   1       9.614   7.084  11.060  0.00  0.00     0.087 H 
BRANCH  37  42
ATOM     42  C16 32W d   1       9.172   2.772  12.684  0.00  0.00    -0.023 A 
ATOM     43  C20 32W d   1       8.713   1.834  11.766  0.00  0.00    -0.055 A 
ATOM     44  C19 32W d   1       7.966   0.761  12.214  0.00  0.00     0.003 A 
ATOM     45  H18 32W d   1       8.938   1.943  10.711  0.00  0.00     0.087 H 
ATOM     46  N4  32W d   1       7.668   0.545  13.500  0.00  0.00    -0.273 NA
ATOM     47  H19 32W d   1       7.600   0.052  11.480  0.00  0.00     0.114 H 
ATOM     48  C18 32W d   1       8.131   1.435  14.382  0.00  0.00     0.003 A 
ATOM     49  C17 32W d   1       8.887   2.539  14.030  0.00  0.00    -0.055 A 
ATOM     50  H20 32W d   1       7.902   1.284  15.431  0.00  0.00     0.114 H 
ATOM     51  H21 32W d   1       9.254   3.216  14.792  0.00  0.00     0.087 H 
ENDBRANCH  37  42
ENDBRANCH   1  28
TORSDOF 8
