REMARK  6 active torsions:
REMARK  status: ('A' for Active; 'I' for Inactive)
REMARK       I    between atoms: N24_3  and  C22_2 
REMARK    1  A    between atoms: C22_2  and  C19_6 
REMARK    2  A    between atoms: C25_4  and  N24_3 
REMARK    3  A    between atoms: C16_8  and  C12_9 
REMARK    4  A    between atoms: C14_13  and  N7_15 
REMARK    5  A    between atoms: N7_15  and  C1_16 
REMARK    6  A    between atoms: C4_19  and  N8_23 
ROOT
ATOM      1  C12 3O4 d   1       5.742  -9.845  -1.216  0.00  0.00     0.087 A 
ATOM      2  C11 3O4 d   1       6.987  -9.222  -1.247  0.00  0.00    -0.036 A 
ATOM      3  C10 3O4 d   1       7.929  -9.579  -0.288  0.00  0.00     0.023 A 
ATOM      4  N15 3O4 d   1       7.634 -10.491   0.627  0.00  0.00    -0.075 NA
ATOM      5  C14 3O4 d   1       6.427 -11.088   0.656  0.00  0.00     0.727 A 
ATOM      6  N13 3O4 d   1       5.497 -10.761  -0.262  0.00  0.00    -0.062 NA
ATOM      7  H   3O4 d   1       7.218  -8.473  -2.004  0.00  0.00     0.089 H 
ATOM      8  H   3O4 d   1       8.912  -9.108  -0.289  0.00  0.00     0.115 H 
ENDROOT
BRANCH   5   9
ATOM      9  N7  3O4 d   1       6.189 -12.003   1.608  0.00  0.00    -0.188 N 
ATOM     10  H   3O4 d   1       6.987 -12.282   2.179  0.00  0.00     0.184 HD
BRANCH   9  11
ATOM     11  C1  3O4 d   1       5.014 -12.592   1.891  0.00  0.00     0.049 A 
ATOM     12  C2  3O4 d   1       5.025 -13.682   2.760  0.00  0.00    -0.054 A 
ATOM     13  C3  3O4 d   1       3.844 -14.339   3.097  0.00  0.00    -0.055 A 
ATOM     14  H   3O4 d   1       5.970 -14.025   3.181  0.00  0.00     0.087 H 
ATOM     15  C4  3O4 d   1       2.623 -13.913   2.570  0.00  0.00     0.030 A 
ATOM     16  H   3O4 d   1       3.873 -15.191   3.776  0.00  0.00     0.087 H 
ATOM     17  C5  3O4 d   1       2.606 -12.817   1.701  0.00  0.00    -0.055 A 
ATOM     18  C6  3O4 d   1       3.791 -12.161   1.367  0.00  0.00    -0.054 A 
ATOM     19  H   3O4 d   1       1.660 -12.473   1.282  0.00  0.00     0.087 H 
ATOM     20  H   3O4 d   1       3.764 -11.306   0.692  0.00  0.00     0.087 H 
BRANCH  15  21
ATOM     21  N8  3O4 d   1       1.428 -14.583   2.925  0.00  0.00    -0.377 N 
ATOM     22  C9  3O4 d   1       1.372 -15.376   4.189  0.00  0.00     0.015 C 
ATOM     23  C31 3O4 d   1       0.505 -16.631   4.028  0.00  0.00     0.034 C 
ATOM     24  H   3O4 d   1       0.935 -14.752   4.969  0.00  0.00     0.067 H 
ATOM     25  H   3O4 d   1       2.385 -15.687   4.447  0.00  0.00     0.067 H 
ATOM     26  O30 3O4 d   1      -0.768 -16.252   3.461  0.00  0.00    -0.388 OA
ATOM     27  H   3O4 d   1       0.350 -17.099   5.000  0.00  0.00     0.076 H 
ATOM     28  H   3O4 d   1       1.004 -17.341   3.369  0.00  0.00     0.076 H 
ATOM     29  C29 3O4 d   1      -0.621 -15.779   2.103  0.00  0.00     0.034 C 
ATOM     30  C28 3O4 d   1       0.219 -14.492   2.054  0.00  0.00     0.015 C 
ATOM     31  H   3O4 d   1      -1.611 -15.566   1.698  0.00  0.00     0.076 H 
ATOM     32  H   3O4 d   1      -0.116 -16.548   1.518  0.00  0.00     0.076 H 
ATOM     33  H   3O4 d   1       0.549 -14.338   1.027  0.00  0.00     0.067 H 
ATOM     34  H   3O4 d   1      -0.398 -13.667   2.411  0.00  0.00     0.067 H 
ENDBRANCH  15  21
ENDBRANCH   9  11
ENDBRANCH   5   9
BRANCH   1  35
ATOM     35  C16 3O4 d   1       4.745  -9.530  -2.142  0.00  0.00    -0.007 A 
ATOM     36  C17 3O4 d   1       3.487 -10.124  -2.023  0.00  0.00    -0.069 A 
ATOM     37  C90 3O4 d   1       2.474  -9.820  -2.930  0.00  0.00    -0.056 A 
ATOM     38  H   3O4 d   1       3.296 -10.830  -1.215  0.00  0.00     0.085 H 
ATOM     39  C25 3O4 d   1       2.705  -8.916  -3.966  0.00  0.00     0.034 A 
ATOM     40  H   3O4 d   1       1.496 -10.291  -2.829  0.00  0.00     0.086 H 
ATOM     41  C26 3O4 d   1       3.964  -8.318  -4.085  0.00  0.00    -0.056 A 
ATOM     42  C13 3O4 d   1       4.978  -8.621  -3.177  0.00  0.00    -0.069 A 
ATOM     43  H   3O4 d   1       4.154  -7.611  -4.893  0.00  0.00     0.086 H 
ATOM     44  H   3O4 d   1       5.955  -8.148  -3.275  0.00  0.00     0.085 H 
BRANCH  39  45
ATOM     45  N24 3O4 d   1       1.693  -8.660  -4.808  0.00  0.00    -0.328 N 
ATOM     46  C22 3O4 d   1       1.677  -7.736  -5.775  0.00  0.00     0.218 C 
ATOM     47  O23 3O4 d   1       2.602  -6.973  -6.052  0.00  0.00    -0.274 OA
ATOM     48  H   3O4 d   1       0.852  -9.226  -4.700  0.00  0.00     0.169 HD
BRANCH  46  49
ATOM     49  C19 3O4 d   1       0.369  -7.677  -6.564  0.00  0.00    -0.003 C 
ATOM     50  H   3O4 d   1      -0.070  -6.685  -6.463  0.00  0.00     0.040 H 
ATOM     51  H   3O4 d   1       0.571  -7.881  -7.616  0.00  0.00     0.040 H 
ATOM     52  H   3O4 d   1      -0.323  -8.424  -6.174  0.00  0.00     0.040 H 
ENDBRANCH  46  49
ENDBRANCH  39  45
ENDBRANCH   1  35
TORSDOF 6
