REMARK  6 active torsions:
REMARK  status: ('A' for Active; 'I' for Inactive)
REMARK    1  A    between atoms: C9_2  and  C11_3 
REMARK       I    between atoms: C9_2  and  N8_8 
REMARK    2  A    between atoms: N8_8  and  C6_9 
REMARK    3  A    between atoms: C3_13  and  C7_15 
REMARK    4  A    between atoms: C19_17  and  N21_21 
REMARK    5  A    between atoms: N21_21  and  C22_22 
REMARK    6  A    between atoms: C25_25  and  N28_28 
ROOT
ATOM      1  C7  O19 d   1      -7.225 -27.173 -35.202  0.00  0.00     0.087 A 
ATOM      2  N20 O19 d   1      -6.807 -28.042 -36.157  0.00  0.00    -0.062 NA
ATOM      3  C19 O19 d   1      -7.699 -28.556 -37.022  0.00  0.00     0.727 A 
ATOM      4  N18 O19 d   1      -8.947 -28.130 -36.975  0.00  0.00    -0.075 NA
ATOM      5  C17 O19 d   1      -9.434 -27.237 -36.074  0.00  0.00     0.023 A 
ATOM      6  C16 O19 d   1      -8.574 -26.736 -35.104  0.00  0.00    -0.036 A 
ATOM      7  H15 O19 d   1     -10.471 -26.922 -36.111  0.00  0.00     0.115 H 
ATOM      8  H16 O19 d   1      -8.909 -26.059 -34.327  0.00  0.00     0.089 H 
ENDROOT
BRANCH   1   9
ATOM      9  C3  O19 d   1      -6.171 -26.712 -34.275  0.00  0.00    -0.007 A 
ATOM     10  C4  O19 d   1      -6.340 -25.526 -33.528  0.00  0.00    -0.069 A 
ATOM     11  C5  O19 d   1      -5.265 -25.105 -32.728  0.00  0.00    -0.056 A 
ATOM     12  H13 O19 d   1      -7.264 -24.962 -33.570  0.00  0.00     0.085 H 
ATOM     13  C6  O19 d   1      -4.089 -25.869 -32.657  0.00  0.00     0.034 A 
ATOM     14  H12 O19 d   1      -5.344 -24.184 -32.162  0.00  0.00     0.086 H 
ATOM     15  C1  O19 d   1      -3.936 -27.053 -33.396  0.00  0.00    -0.056 A 
ATOM     16  C2  O19 d   1      -5.000 -27.450 -34.217  0.00  0.00    -0.069 A 
ATOM     17  H11 O19 d   1      -3.026 -27.640 -33.334  0.00  0.00     0.086 H 
ATOM     18  H14 O19 d   1      -4.905 -28.349 -34.816  0.00  0.00     0.085 H 
BRANCH  13  19
ATOM     19  N8  O19 d   1      -3.100 -25.404 -31.776  0.00  0.00    -0.325 N 
ATOM     20  C9  O19 d   1      -1.857 -25.866 -31.576  0.00  0.00     0.253 C 
ATOM     21  O10 O19 d   1      -1.350 -26.859 -32.103  0.00  0.00    -0.271 OA
ATOM     22  H10 O19 d   1      -3.359 -24.616 -31.218  0.00  0.00     0.169 HD
BRANCH  20  23
ATOM     23  C11 O19 d   1      -1.116 -25.128 -30.514  0.00  0.00     0.178 C 
ATOM     24  C15 O19 d   1      -1.661 -25.652 -29.179  0.00  0.00    -0.028 C 
ATOM     25  C14 O19 d   1      -0.860 -26.932 -28.912  0.00  0.00    -0.040 C 
ATOM     26  H2  O19 d   1      -2.735 -25.875 -29.259  0.00  0.00     0.036 H 
ATOM     27  H3  O19 d   1      -1.498 -24.917 -28.377  0.00  0.00     0.036 H 
ATOM     28  C13 O19 d   1       0.498 -26.641 -29.517  0.00  0.00     0.083 C 
ATOM     29  H4  O19 d   1      -1.330 -27.798 -29.402  0.00  0.00     0.035 H 
ATOM     30  H5  O19 d   1      -0.775 -27.123 -27.832  0.00  0.00     0.035 H 
ATOM     31  N12 O19 d   1       0.264 -25.543 -30.466  0.00  0.00    -0.062 N 
ATOM     32  H6  O19 d   1       0.886 -27.527 -30.040  0.00  0.00     0.075 H 
ATOM     33  H7  O19 d   1       1.211 -26.333 -28.738  0.00  0.00     0.075 H 
ATOM     34  H8  O19 d   1       0.828 -24.754 -30.191  0.00  0.00     0.278 HD
ATOM     35  H9  O19 d   1       0.540 -25.849 -31.386  0.00  0.00     0.278 HD
ATOM     36  H1  O19 d   1      -1.220 -24.039 -30.630  0.00  0.00     0.099 H 
ENDBRANCH  20  23
ENDBRANCH  13  19
ENDBRANCH   1   9
BRANCH   3  37
ATOM     37  N21 O19 d   1      -7.400 -29.364 -38.060  0.00  0.00    -0.188 N 
ATOM     38  H17 O19 d   1      -8.161 -29.503 -38.740  0.00  0.00     0.184 HD
BRANCH  37  39
ATOM     39  C22 O19 d   1      -6.216 -30.038 -38.350  0.00  0.00     0.049 A 
ATOM     40  C27 O19 d   1      -4.981 -29.740 -37.748  0.00  0.00    -0.054 A 
ATOM     41  C26 O19 d   1      -3.846 -30.482 -38.060  0.00  0.00    -0.055 A 
ATOM     42  H18 O19 d   1      -4.912 -28.926 -37.035  0.00  0.00     0.087 H 
ATOM     43  C25 O19 d   1      -3.966 -31.542 -38.954  0.00  0.00     0.030 A 
ATOM     44  H19 O19 d   1      -2.888 -30.239 -37.616  0.00  0.00     0.087 H 
ATOM     45  C24 O19 d   1      -5.184 -31.854 -39.539  0.00  0.00    -0.055 A 
ATOM     46  C23 O19 d   1      -6.306 -31.106 -39.233  0.00  0.00    -0.054 A 
ATOM     47  H20 O19 d   1      -5.256 -32.682 -40.234  0.00  0.00     0.087 H 
ATOM     48  H21 O19 d   1      -7.260 -31.354 -39.684  0.00  0.00     0.087 H 
BRANCH  43  49
ATOM     49  N28 O19 d   1      -2.862 -32.323 -39.256  0.00  0.00    -0.377 N 
ATOM     50  C33 O19 d   1      -1.872 -32.603 -38.175  0.00  0.00     0.015 C 
ATOM     51  C32 O19 d   1      -0.754 -33.572 -38.584  0.00  0.00     0.034 C 
ATOM     52  H22 O19 d   1      -2.409 -33.037 -37.319  0.00  0.00     0.067 H 
ATOM     53  H23 O19 d   1      -1.411 -31.651 -37.874  0.00  0.00     0.067 H 
ATOM     54  O31 O19 d   1      -0.798 -33.993 -39.956  0.00  0.00    -0.388 OA
ATOM     55  H24 O19 d   1      -0.826 -34.467 -37.948  0.00  0.00     0.076 H 
ATOM     56  H25 O19 d   1       0.211 -33.075 -38.409  0.00  0.00     0.076 H 
ATOM     57  C30 O19 d   1      -2.118 -34.220 -40.471  0.00  0.00     0.034 C 
ATOM     58  C29 O19 d   1      -2.784 -32.867 -40.618  0.00  0.00     0.015 C 
ATOM     59  H26 O19 d   1      -2.691 -34.848 -39.773  0.00  0.00     0.076 H 
ATOM     60  H27 O19 d   1      -2.059 -34.719 -41.450  0.00  0.00     0.076 H 
ATOM     61  H28 O19 d   1      -2.182 -32.209 -41.262  0.00  0.00     0.067 H 
ATOM     62  H29 O19 d   1      -3.791 -32.978 -41.047  0.00  0.00     0.067 H 
ENDBRANCH  43  49
ENDBRANCH  37  39
ENDBRANCH   3  37
TORSDOF 6
