REMARK  10 active torsions:
REMARK  status: ('A' for Active; 'I' for Inactive)
REMARK    1  A    between atoms: CAU_2  and  CAA_1 
REMARK    2  A    between atoms: CAV_3  and  CAU_2 
REMARK    3  A    between atoms: CAZ_9  and  CAY_6 
REMARK    4  A    between atoms: CAZ_9  and  CAX_15 
REMARK    5  A    between atoms: CAZ_9  and  SAT_16 
REMARK    6  A    between atoms: CAW_22  and  CAZ_9 
REMARK    7  A    between atoms: SAT_16  and  CAS_17 
REMARK    8  A    between atoms: CAS_17  and  CAR_18 
REMARK    9  A    between atoms: CAR_18  and  NAB_19 
REMARK   10  A    between atoms: CAF_24  and  OAC_26 
ROOT
ATOM      1  CAZ V02 d   1      14.897  32.638 -26.926  0.00  0.00     0.089 C 
ENDROOT
BRANCH   1   2
ATOM      2  CAY V02 d   1      15.589  32.100 -25.687  0.00  0.00    -0.030 A 
ATOM      3  CAQ V02 d   1      16.399  32.854 -24.883  0.00  0.00    -0.069 A 
ATOM      4  CAV V02 d   1      16.946  32.260 -23.784  0.00  0.00    -0.058 A 
ATOM      5  H7  V02 d   1      16.600  33.894 -25.113  0.00  0.00     0.085 H 
ATOM      6  CAK V02 d   1      16.717  30.952 -23.495  0.00  0.00    -0.077 A 
ATOM      7  CAJ V02 d   1      15.913  30.205 -24.298  0.00  0.00    -0.082 A 
ATOM      8  H6  V02 d   1      17.177  30.503 -22.622  0.00  0.00     0.084 H 
ATOM      9  CAP V02 d   1      15.363  30.787 -25.397  0.00  0.00    -0.075 A 
ATOM     10  H9  V02 d   1      15.714  29.165 -24.066  0.00  0.00     0.083 H 
ATOM     11  H8  V02 d   1      14.734  30.197 -26.054  0.00  0.00     0.084 H 
BRANCH   4  12
ATOM     12  CAU V02 d   1      17.819  33.029 -22.869  0.00  0.00    -0.044 C 
ATOM     13  H4  V02 d   1      17.234  33.818 -22.373  0.00  0.00     0.039 H 
ATOM     14  H5  V02 d   1      18.245  32.356 -22.110  0.00  0.00     0.039 H 
BRANCH  12  15
ATOM     15  CAA V02 d   1      18.912  33.642 -23.665  0.00  0.00    -0.073 C 
ATOM     16  H1  V02 d   1      19.572  34.218 -22.999  0.00  0.00     0.028 H 
ATOM     17  H2  V02 d   1      18.482  34.312 -24.424  0.00  0.00     0.028 H 
ATOM     18  H3  V02 d   1      19.493  32.850 -24.161  0.00  0.00     0.028 H 
ENDBRANCH  12  15
ENDBRANCH   4  12
ENDBRANCH   1   2
BRANCH   1  19
ATOM     19  CAX V02 d   1      14.821  34.119 -27.120  0.00  0.00    -0.030 A 
ATOM     20  CAN V02 d   1      15.391  34.616 -28.261  0.00  0.00    -0.075 A 
ATOM     21  CAH V02 d   1      15.361  35.957 -28.525  0.00  0.00    -0.082 A 
ATOM     22  H10 V02 d   1      15.870  33.941 -28.961  0.00  0.00     0.084 H 
ATOM     23  CAE V02 d   1      14.746  36.793 -27.633  0.00  0.00    -0.083 A 
ATOM     24  H11 V02 d   1      15.817  36.352 -29.426  0.00  0.00     0.083 H 
ATOM     25  CAI V02 d   1      14.158  36.290 -26.498  0.00  0.00    -0.082 A 
ATOM     26  H12 V02 d   1      14.723  37.860 -27.823  0.00  0.00     0.083 H 
ATOM     27  CAO V02 d   1      14.188  34.945 -26.238  0.00  0.00    -0.075 A 
ATOM     28  H13 V02 d   1      13.667  36.962 -25.803  0.00  0.00     0.083 H 
ATOM     29  H14 V02 d   1      13.717  34.544 -25.348  0.00  0.00     0.084 H 
ENDBRANCH   1  19
BRANCH   1  30
ATOM     30  SAT V02 d   1      15.913  32.225 -28.320  0.00  0.00    -0.142 SA
BRANCH  30  31
ATOM     31  CAS V02 d   1      17.572  32.206 -27.540  0.00  0.00     0.001 C 
ATOM     32  H15 V02 d   1      17.820  31.162 -27.299  0.00  0.00     0.051 H 
ATOM     33  H16 V02 d   1      17.516  32.793 -26.611  0.00  0.00     0.051 H 
BRANCH  31  34
ATOM     34  CAR V02 d   1      18.711  32.776 -28.388  0.00  0.00     0.087 C 
ATOM     35  H17 V02 d   1      19.329  33.447 -27.773  0.00  0.00     0.076 H 
ATOM     36  H18 V02 d   1      18.294  33.337 -29.238  0.00  0.00     0.076 H 
BRANCH  34  37
ATOM     37  NAB V02 d   1      19.525  31.675 -28.881  0.00  0.00    -0.079 N 
ATOM     38  H19 V02 d   1      20.279  32.040 -29.442  0.00  0.00     0.274 HD
ATOM     39  H20 V02 d   1      18.956  31.061 -29.442  0.00  0.00     0.274 HD
ATOM     40  H21 V02 d   1      19.904  31.162 -28.101  0.00  0.00     0.274 HD
ENDBRANCH  34  37
ENDBRANCH  31  34
ENDBRANCH  30  31
ENDBRANCH   1  30
BRANCH   1  41
ATOM     41  CAW V02 d   1      13.580  31.994 -27.205  0.00  0.00    -0.028 A 
ATOM     42  CAM V02 d   1      12.556  32.011 -26.304  0.00  0.00    -0.074 A 
ATOM     43  CAG V02 d   1      11.370  31.412 -26.622  0.00  0.00    -0.080 A 
ATOM     44  H23 V02 d   1      12.682  32.496 -25.343  0.00  0.00     0.084 H 
ATOM     45  CAD V02 d   1      11.202  30.797 -27.836  0.00  0.00    -0.051 A 
ATOM     46  H22 V02 d   1      10.554  31.423 -25.908  0.00  0.00     0.083 H 
ATOM     47  CAF V02 d   1      12.233  30.787 -28.726  0.00  0.00     0.066 A 
ATOM     48  H25 V02 d   1      10.259  30.324 -28.085  0.00  0.00     0.087 H 
ATOM     49  CAL V02 d   1      13.418  31.389 -28.412  0.00  0.00    -0.043 A 
ATOM     50  H24 V02 d   1      14.232  31.384 -29.128  0.00  0.00     0.088 H 
BRANCH  47  51
ATOM     51  OAC V02 d   1      12.082  30.195 -29.913  0.00  0.00    -0.361 OA
ATOM     52  H26 V02 d   1      12.887  30.276 -30.411  0.00  0.00     0.217 HD
ENDBRANCH  47  51
ENDBRANCH   1  41
TORSDOF 10
