REMARK  7 active torsions:
REMARK  status: ('A' for Active; 'I' for Inactive)
REMARK    1  A    between atoms: C14_1  and  C15_2 
REMARK    2  A    between atoms: C12_10  and  C14_1 
REMARK    3  A    between atoms: C15_2  and  C16_3 
REMARK    4  A    between atoms: C16_3  and  C17_4 
REMARK       I    between atoms: N11_21  and  C12_10 
REMARK    5  A    between atoms: C10_14  and  C8_13 
REMARK       I    between atoms: C8_13  and  N7_22 
REMARK    6  A    between atoms: C24_16  and  N26_17 
REMARK    7  A    between atoms: C3_26  and  C1_27 
ROOT
ATOM      1  N26 4I4 d   1      37.629  38.203  85.978  0.00  0.00    -0.108 NA
ATOM      2  N27 4I4 d   1      36.436  38.429  86.229  0.00  0.00    -0.167 NA
ATOM      3  N28 4I4 d   1      35.175  38.656  86.495  0.00  0.00     0.068 N 
ENDROOT
BRANCH   1   4
ATOM      4  C24 4I4 d   1      38.224  36.890  86.198  0.00  0.00     0.083 C 
ATOM      5  C25 4I4 d   1      38.152  36.197  84.857  0.00  0.00    -0.013 C 
ATOM      6  C10 4I4 d   1      39.382  36.705  84.090  0.00  0.00     0.094 C 
ATOM      7  H13 4I4 d   1      38.196  35.105  84.982  0.00  0.00     0.040 H 
ATOM      8  H14 4I4 d   1      37.226  36.469  84.329  0.00  0.00     0.040 H 
ATOM      9  N11 4I4 d   1      40.311  37.135  85.140  0.00  0.00    -0.337 N 
ATOM     10  H12 4I4 d   1      39.838  35.874  83.532  0.00  0.00     0.088 H 
ATOM     11  C12 4I4 d   1      41.584  37.435  84.851  0.00  0.00     0.220 C 
ATOM     12  C23 4I4 d   1      39.699  37.172  86.466  0.00  0.00     0.022 C 
ATOM     13  O13 4I4 d   1      42.025  37.397  83.720  0.00  0.00    -0.273 OA
ATOM     14  H16 4I4 d   1      40.133  36.400  87.119  0.00  0.00     0.067 H 
ATOM     15  H17 4I4 d   1      39.830  38.161  86.930  0.00  0.00     0.067 H 
ATOM     16  H15 4I4 d   1      37.740  36.319  87.004  0.00  0.00     0.082 H 
BRANCH   6  17
ATOM     17  C8  4I4 d   1      39.009  37.759  83.097  0.00  0.00     0.243 C 
ATOM     18  O9  4I4 d   1      39.161  38.971  83.358  0.00  0.00    -0.271 OA
ATOM     19  N7  4I4 d   1      38.549  37.303  81.908  0.00  0.00    -0.341 N 
ATOM     20  C6  4I4 d   1      38.365  35.896  81.480  0.00  0.00    -0.001 C 
ATOM     21  C3  4I4 d   1      38.129  38.237  80.884  0.00  0.00     0.046 C 
ATOM     22  C5  4I4 d   1      37.854  35.995  80.049  0.00  0.00    -0.048 C 
ATOM     23  H18 4I4 d   1      37.630  35.388  82.121  0.00  0.00     0.064 H 
ATOM     24  H19 4I4 d   1      39.320  35.351  81.515  0.00  0.00     0.064 H 
ATOM     25  C4  4I4 d   1      38.210  37.416  79.611  0.00  0.00    -0.040 C 
ATOM     26  H20 4I4 d   1      36.766  35.839  80.013  0.00  0.00     0.035 H 
ATOM     27  H21 4I4 d   1      38.352  35.254  79.406  0.00  0.00     0.035 H 
ATOM     28  H22 4I4 d   1      37.491  37.784  78.864  0.00  0.00     0.036 H 
ATOM     29  H23 4I4 d   1      39.226  37.450  79.190  0.00  0.00     0.036 H 
ATOM     30  H24 4I4 d   1      38.795  39.111  80.847  0.00  0.00     0.081 H 
BRANCH  21  31
ATOM     31  C1  4I4 d   1      36.693  38.686  81.092  0.00  0.00    -0.005 C 
ATOM     32  N2  4I4 d   1      35.843  37.960  81.663  0.00  0.00    -0.314 NA
ATOM     33  H26 4I4 d   1      34.898  38.290  81.784  0.00  0.00     0.185 HD
ATOM     34  H25 4I4 d   1      36.391  39.669  80.734  0.00  0.00     0.110 H 
ENDBRANCH  21  31
ENDBRANCH   6  17
BRANCH  11  35
ATOM     35  C14 4I4 d   1      42.487  37.825  86.020  0.00  0.00     0.010 C 
ATOM     36  H1  4I4 d   1      42.128  38.770  86.454  0.00  0.00     0.047 H 
ATOM     37  H2  4I4 d   1      42.451  37.034  86.783  0.00  0.00     0.047 H 
BRANCH  35  38
ATOM     38  C15 4I4 d   1      43.941  38.006  85.547  0.00  0.00    -0.053 C 
ATOM     39  H3  4I4 d   1      44.029  38.978  85.040  0.00  0.00     0.034 H 
ATOM     40  H4  4I4 d   1      44.185  37.200  84.840  0.00  0.00     0.034 H 
BRANCH  38  41
ATOM     41  C16 4I4 d   1      44.941  37.963  86.707  0.00  0.00    -0.041 C 
ATOM     42  H5  4I4 d   1      44.595  38.635  87.506  0.00  0.00     0.040 H 
ATOM     43  H6  4I4 d   1      45.925  38.298  86.347  0.00  0.00     0.040 H 
BRANCH  41  44
ATOM     44  C17 4I4 d   1      45.067  36.546  87.264  0.00  0.00    -0.058 A 
ATOM     45  C22 4I4 d   1      45.431  35.492  86.441  0.00  0.00    -0.077 A 
ATOM     46  C21 4I4 d   1      45.532  34.197  86.956  0.00  0.00    -0.082 A 
ATOM     47  H7  4I4 d   1      45.638  35.673  85.393  0.00  0.00     0.084 H 
ATOM     48  C20 4I4 d   1      45.309  33.952  88.317  0.00  0.00    -0.083 A 
ATOM     49  H9  4I4 d   1      45.785  33.375  86.296  0.00  0.00     0.083 H 
ATOM     50  C19 4I4 d   1      44.955  35.017  89.151  0.00  0.00    -0.082 A 
ATOM     51  H11 4I4 d   1      45.410  32.950  88.718  0.00  0.00     0.083 H 
ATOM     52  C18 4I4 d   1      44.842  36.314  88.619  0.00  0.00    -0.077 A 
ATOM     53  H10 4I4 d   1      44.768  34.843  90.205  0.00  0.00     0.083 H 
ATOM     54  H8  4I4 d   1      44.578  37.140  89.269  0.00  0.00     0.084 H 
ENDBRANCH  41  44
ENDBRANCH  38  41
ENDBRANCH  35  38
ENDBRANCH  11  35
ENDBRANCH   1   4
TORSDOF 7
