REMARK  15 active torsions:
REMARK  status: ('A' for Active; 'I' for Inactive)
REMARK    1  A    between atoms: C14_1  and  C15_2 
REMARK    2  A    between atoms: C14_1  and  C12_10 
REMARK    3  A    between atoms: C15_2  and  C16_3 
REMARK    4  A    between atoms: C16_3  and  C17_4 
REMARK       I    between atoms: C12_10  and  N11_12 
REMARK    5  A    between atoms: C10_14  and  C8_15 
REMARK       I    between atoms: C8_15  and  N7_33 
REMARK    6  A    between atoms: C24_18  and  N26_19 
REMARK    7  A    between atoms: C29_23  and  C31_24 
REMARK    8  A    between atoms: C31_24  and  N32_25 
REMARK       I    between atoms: N32_25  and  C33_27 
REMARK    9  A    between atoms: C33_27  and  O35_28 
REMARK   10  A    between atoms: O35_28  and  C36_29 
REMARK   11  A    between atoms: C36_29  and  C39_30 
REMARK   12  A    between atoms: C36_29  and  C37_31 
REMARK   13  A    between atoms: C36_29  and  C38_32 
REMARK   14  A    between atoms: C3_34  and  C1_35 
REMARK   15  A    between atoms: C1_35  and  N2_36 
ROOT
ATOM      1  C12 JKT d   1      41.760  37.230  84.771  0.00  0.00     0.220 C 
ATOM      2  O13 JKT d   1      42.131  37.263  83.615  0.00  0.00    -0.273 OA
ATOM      3  N11 JKT d   1      40.437  37.019  85.073  0.00  0.00    -0.337 N 
ATOM      4  C23 JKT d   1      40.103  36.520  86.420  0.00  0.00     0.019 C 
ATOM      5  C10 JKT d   1      39.610  36.381  84.044  0.00  0.00     0.094 C 
ATOM      6  C25 JKT d   1      38.561  35.624  84.829  0.00  0.00    -0.016 C 
ATOM      7  C24 JKT d   1      38.641  36.185  86.234  0.00  0.00     0.048 C 
ATOM      8  H12 JKT d   1      40.248  37.294  87.188  0.00  0.00     0.067 H 
ATOM      9  H13 JKT d   1      40.694  35.630  86.681  0.00  0.00     0.067 H 
ATOM     10  H14 JKT d   1      40.190  35.679  83.426  0.00  0.00     0.088 H 
ATOM     11  H15 JKT d   1      38.782  34.546  84.830  0.00  0.00     0.040 H 
ATOM     12  H16 JKT d   1      37.562  35.793  84.402  0.00  0.00     0.040 H 
ATOM     13  H17 JKT d   1      38.288  35.478  86.999  0.00  0.00     0.077 H 
ENDROOT
BRANCH   7  14
ATOM     14  N26 JKT d   1      37.803  37.409  86.197  0.00  0.00    -0.277 N 
ATOM     15  N27 JKT d   1      38.240  38.582  86.826  0.00  0.00     0.005 NA
ATOM     16  N28 JKT d   1      37.199  39.513  86.623  0.00  0.00    -0.161 NA
ATOM     17  C29 JKT d   1      36.224  38.888  85.920  0.00  0.00     0.086 A 
ATOM     18  C30 JKT d   1      36.596  37.581  85.666  0.00  0.00     0.022 A 
ATOM     19  H18 JKT d   1      36.011  36.834  85.132  0.00  0.00     0.116 H 
BRANCH  17  20
ATOM     20  C31 JKT d   1      34.923  39.467  85.425  0.00  0.00     0.040 C 
ATOM     21  H19 JKT d   1      34.327  38.650  84.992  0.00  0.00     0.073 H 
ATOM     22  H20 JKT d   1      35.153  40.207  84.644  0.00  0.00     0.073 H 
BRANCH  20  23
ATOM     23  N32 JKT d   1      34.119  40.122  86.447  0.00  0.00    -0.331 N 
ATOM     24  C33 JKT d   1      32.944  40.551  86.022  0.00  0.00     0.361 C 
ATOM     25  O34 JKT d   1      32.883  41.075  84.922  0.00  0.00    -0.238 OA
ATOM     26  H21 JKT d   1      34.430  40.237  87.391  0.00  0.00     0.165 HD
BRANCH  24  27
ATOM     27  O35 JKT d   1      31.741  40.345  86.843  0.00  0.00    -0.294 OA
BRANCH  27  28
ATOM     28  C36 JKT d   1      30.751  41.347  87.104  0.00  0.00     0.061 C 
BRANCH  28  29
ATOM     29  C39 JKT d   1      30.634  42.327  85.939  0.00  0.00    -0.048 C 
ATOM     30  H22 JKT d   1      29.868  43.082  86.170  0.00  0.00     0.031 H 
ATOM     31  H23 JKT d   1      30.348  41.781  85.028  0.00  0.00     0.031 H 
ATOM     32  H24 JKT d   1      31.602  42.825  85.780  0.00  0.00     0.031 H 
ENDBRANCH  28  29
BRANCH  28  33
ATOM     33  C37 JKT d   1      31.118  42.112  88.376  0.00  0.00    -0.048 C 
ATOM     34  H25 JKT d   1      30.357  42.881  88.574  0.00  0.00     0.031 H 
ATOM     35  H26 JKT d   1      32.099  42.593  88.245  0.00  0.00     0.031 H 
ATOM     36  H27 JKT d   1      31.163  41.413  89.224  0.00  0.00     0.031 H 
ENDBRANCH  28  33
BRANCH  28  37
ATOM     37  C38 JKT d   1      29.406  40.658  87.301  0.00  0.00    -0.048 C 
ATOM     38  H28 JKT d   1      28.633  41.414  87.503  0.00  0.00     0.031 H 
ATOM     39  H29 JKT d   1      29.471  39.964  88.152  0.00  0.00     0.031 H 
ATOM     40  H30 JKT d   1      29.143  40.099  86.391  0.00  0.00     0.031 H 
ENDBRANCH  28  37
ENDBRANCH  27  28
ENDBRANCH  24  27
ENDBRANCH  20  23
ENDBRANCH  17  20
ENDBRANCH   7  14
BRANCH   5  41
ATOM     41  C8  JKT d   1      39.103  37.522  83.177  0.00  0.00     0.243 C 
ATOM     42  O9  JKT d   1      39.201  38.710  83.514  0.00  0.00    -0.271 OA
ATOM     43  N7  JKT d   1      38.592  37.190  81.984  0.00  0.00    -0.341 N 
ATOM     44  C3  JKT d   1      38.094  38.228  81.064  0.00  0.00     0.046 C 
ATOM     45  C6  JKT d   1      38.468  35.820  81.482  0.00  0.00    -0.001 C 
ATOM     46  C4  JKT d   1      38.129  37.443  79.749  0.00  0.00    -0.040 C 
ATOM     47  H31 JKT d   1      38.773  39.093  81.061  0.00  0.00     0.081 H 
ATOM     48  C5  JKT d   1      37.832  35.999  80.115  0.00  0.00    -0.048 C 
ATOM     49  H34 JKT d   1      39.122  37.523  79.283  0.00  0.00     0.036 H 
ATOM     50  H35 JKT d   1      37.366  37.826  79.055  0.00  0.00     0.036 H 
ATOM     51  H36 JKT d   1      38.281  35.311  79.383  0.00  0.00     0.035 H 
ATOM     52  H37 JKT d   1      36.747  35.825  80.164  0.00  0.00     0.035 H 
ATOM     53  H38 JKT d   1      37.824  35.217  82.139  0.00  0.00     0.064 H 
ATOM     54  H39 JKT d   1      39.455  35.342  81.397  0.00  0.00     0.064 H 
BRANCH  44  55
ATOM     55  C1  JKT d   1      36.647  38.728  81.243  0.00  0.00    -0.005 C 
ATOM     56  H32 JKT d   1      36.362  39.763  81.059  0.00  0.00     0.110 H 
BRANCH  55  57
ATOM     57  N2  JKT d   1      35.812  37.854  81.618  0.00  0.00    -0.314 NA
ATOM     58  H33 JKT d   1      34.846  38.106  81.757  0.00  0.00     0.185 HD
ENDBRANCH  55  57
ENDBRANCH  44  55
ENDBRANCH   5  41
BRANCH   1  59
ATOM     59  C14 JKT d   1      42.682  37.560  85.925  0.00  0.00     0.010 C 
ATOM     60  H1  JKT d   1      42.298  38.447  86.450  0.00  0.00     0.047 H 
ATOM     61  H2  JKT d   1      42.710  36.707  86.619  0.00  0.00     0.047 H 
BRANCH  59  62
ATOM     62  C15 JKT d   1      44.094  37.846  85.430  0.00  0.00    -0.053 C 
ATOM     63  H3  JKT d   1      44.123  38.848  84.976  0.00  0.00     0.034 H 
ATOM     64  H4  JKT d   1      44.373  37.094  84.677  0.00  0.00     0.034 H 
BRANCH  62  65
ATOM     65  C16 JKT d   1      45.089  37.790  86.592  0.00  0.00    -0.041 C 
ATOM     66  H5  JKT d   1      44.763  38.483  87.382  0.00  0.00     0.040 H 
ATOM     67  H6  JKT d   1      46.084  38.088  86.231  0.00  0.00     0.040 H 
BRANCH  65  68
ATOM     68  C17 JKT d   1      45.165  36.377  87.164  0.00  0.00    -0.058 A 
ATOM     69  C18 JKT d   1      44.943  36.170  88.516  0.00  0.00    -0.077 A 
ATOM     70  C19 JKT d   1      44.990  34.878  89.056  0.00  0.00    -0.082 A 
ATOM     71  H7  JKT d   1      44.731  37.015  89.161  0.00  0.00     0.084 H 
ATOM     72  C20 JKT d   1      45.281  33.794  88.220  0.00  0.00    -0.083 A 
ATOM     73  H9  JKT d   1      44.803  34.719  90.112  0.00  0.00     0.083 H 
ATOM     74  C21 JKT d   1      45.536  34.022  86.865  0.00  0.00    -0.082 A 
ATOM     75  H11 JKT d   1      45.308  32.787  88.620  0.00  0.00     0.083 H 
ATOM     76  C22 JKT d   1      45.481  35.314  86.344  0.00  0.00    -0.077 A 
ATOM     77  H10 JKT d   1      45.778  33.189  86.215  0.00  0.00     0.083 H 
ATOM     78  H8  JKT d   1      45.687  35.483  85.293  0.00  0.00     0.084 H 
ENDBRANCH  65  68
ENDBRANCH  62  65
ENDBRANCH  59  62
ENDBRANCH   1  59
TORSDOF 15
