REMARK  7 active torsions:
REMARK  status: ('A' for Active; 'I' for Inactive)
REMARK    1  A    between atoms: C12_1  and  C13_2 
REMARK    2  A    between atoms: C10_10  and  C12_1 
REMARK    3  A    between atoms: C13_2  and  C14_3 
REMARK    4  A    between atoms: C14_3  and  C15_4 
REMARK       I    between atoms: N9_30  and  C10_10 
REMARK    5  A    between atoms: C27_19  and  C29_18 
REMARK    6  A    between atoms: C22_24  and  N24_23 
REMARK    7  A    between atoms: C8_27  and  C6_28 
REMARK       I    between atoms: C6_28  and  N5_31 
ROOT
ATOM      1  C10 TDV d   1      41.798  37.260  85.411  0.00  0.00     0.220 C 
ATOM      2  O11 TDV d   1      42.214  37.110  84.247  0.00  0.00    -0.273 OA
ATOM      3  C22 TDV d   1      38.646  36.451  86.973  0.00  0.00     0.048 C 
ATOM      4  C21 TDV d   1      39.923  37.253  87.093  0.00  0.00     0.019 C 
ATOM      5  C23 TDV d   1      38.177  36.610  85.526  0.00  0.00    -0.016 C 
ATOM      6  C8  TDV d   1      39.481  36.734  84.740  0.00  0.00     0.094 C 
ATOM      7  N9  TDV d   1      40.500  37.104  85.737  0.00  0.00    -0.337 N 
ATOM      8  H17 TDV d   1      38.818  35.386  87.189  0.00  0.00     0.077 H 
ATOM      9  H18 TDV d   1      40.590  36.833  87.861  0.00  0.00     0.067 H 
ATOM     10  H19 TDV d   1      39.714  38.307  87.326  0.00  0.00     0.067 H 
ATOM     11  H20 TDV d   1      37.560  37.513  85.410  0.00  0.00     0.040 H 
ATOM     12  H21 TDV d   1      37.603  35.730  85.200  0.00  0.00     0.040 H 
ATOM     13  H22 TDV d   1      39.733  35.766  84.282  0.00  0.00     0.088 H 
ENDROOT
BRANCH   1  14
ATOM     14  C12 TDV d   1      42.749  37.640  86.545  0.00  0.00     0.010 C 
ATOM     15  H1  TDV d   1      42.367  38.548  87.035  0.00  0.00     0.047 H 
ATOM     16  H2  TDV d   1      42.776  36.815  87.272  0.00  0.00     0.047 H 
BRANCH  14  17
ATOM     17  C13 TDV d   1      44.182  37.912  86.056  0.00  0.00    -0.053 C 
ATOM     18  H3  TDV d   1      44.209  38.920  85.616  0.00  0.00     0.034 H 
ATOM     19  H4  TDV d   1      44.428  37.168  85.284  0.00  0.00     0.034 H 
BRANCH  17  20
ATOM     20  C14 TDV d   1      45.260  37.839  87.153  0.00  0.00    -0.041 C 
ATOM     21  H5  TDV d   1      44.999  38.549  87.951  0.00  0.00     0.040 H 
ATOM     22  H6  TDV d   1      46.229  38.121  86.714  0.00  0.00     0.040 H 
BRANCH  20  23
ATOM     23  C15 TDV d   1      45.387  36.434  87.766  0.00  0.00    -0.058 A 
ATOM     24  C20 TDV d   1      45.602  35.331  86.958  0.00  0.00    -0.077 A 
ATOM     25  C19 TDV d   1      45.718  34.059  87.516  0.00  0.00    -0.082 A 
ATOM     26  H7  TDV d   1      45.681  35.457  85.884  0.00  0.00     0.084 H 
ATOM     27  C18 TDV d   1      45.626  33.900  88.905  0.00  0.00    -0.083 A 
ATOM     28  H9  TDV d   1      45.879  33.197  86.879  0.00  0.00     0.083 H 
ATOM     29  C17 TDV d   1      45.419  35.023  89.722  0.00  0.00    -0.082 A 
ATOM     30  H11 TDV d   1      45.714  32.914  89.347  0.00  0.00     0.083 H 
ATOM     31  C16 TDV d   1      45.315  36.301  89.140  0.00  0.00    -0.077 A 
ATOM     32  H10 TDV d   1      45.340  34.907  90.797  0.00  0.00     0.083 H 
ATOM     33  H8  TDV d   1      45.179  37.176  89.766  0.00  0.00     0.084 H 
ENDBRANCH  20  23
ENDBRANCH  17  20
ENDBRANCH  14  17
ENDBRANCH   1  14
BRANCH   6  34
ATOM     34  C6  TDV d   1      39.400  37.786  83.644  0.00  0.00     0.242 C 
ATOM     35  O7  TDV d   1      39.720  38.968  83.873  0.00  0.00    -0.271 OA
ATOM     36  N5  TDV d   1      38.976  37.404  82.445  0.00  0.00    -0.350 N 
ATOM     37  C4  TDV d   1      38.899  38.378  81.347  0.00  0.00    -0.002 C 
ATOM     38  C1  TDV d   1      38.540  36.037  82.109  0.00  0.00    -0.002 C 
ATOM     39  C3  TDV d   1      38.434  37.529  80.178  0.00  0.00    -0.049 C 
ATOM     40  H23 TDV d   1      39.883  38.826  81.145  0.00  0.00     0.064 H 
ATOM     41  H24 TDV d   1      38.173  39.173  81.573  0.00  0.00     0.064 H 
ATOM     42  C2  TDV d   1      37.706  36.358  80.866  0.00  0.00    -0.049 C 
ATOM     43  H25 TDV d   1      39.289  37.170  79.586  0.00  0.00     0.035 H 
ATOM     44  H26 TDV d   1      37.749  38.093  79.528  0.00  0.00     0.035 H 
ATOM     45  H27 TDV d   1      37.661  35.486  80.197  0.00  0.00     0.035 H 
ATOM     46  H28 TDV d   1      36.686  36.654  81.153  0.00  0.00     0.035 H 
ATOM     47  H29 TDV d   1      37.934  35.588  82.909  0.00  0.00     0.064 H 
ATOM     48  H30 TDV d   1      39.389  35.377  81.878  0.00  0.00     0.064 H 
ENDBRANCH   6  34
BRANCH   3  49
ATOM     49  N24 TDV d   1      37.722  37.029  87.995  0.00  0.00    -0.276 N 
ATOM     50  N25 TDV d   1      37.346  36.171  89.043  0.00  0.00     0.005 NA
ATOM     51  N26 TDV d   1      36.516  36.962  89.865  0.00  0.00    -0.158 NA
ATOM     52  C27 TDV d   1      36.438  38.184  89.300  0.00  0.00     0.101 A 
ATOM     53  C28 TDV d   1      37.213  38.250  88.162  0.00  0.00     0.025 A 
ATOM     54  H16 TDV d   1      37.376  39.121  87.529  0.00  0.00     0.117 H 
BRANCH  52  55
ATOM     55  C29 TDV d   1      35.580  39.209  89.992  0.00  0.00    -0.004 A 
ATOM     56  C30 TDV d   1      35.848  40.572  89.810  0.00  0.00    -0.068 A 
ATOM     57  C31 TDV d   1      35.064  41.544  90.434  0.00  0.00    -0.045 A 
ATOM     58  H13 TDV d   1      36.674  40.876  89.177  0.00  0.00     0.085 H 
ATOM     59  C32 TDV d   1      33.995  41.155  91.241  0.00  0.00     0.116 A 
ATOM     60  H12 TDV d   1      35.285  42.596  90.292  0.00  0.00     0.088 H 
ATOM     61  F35 TDV d   1      33.245  42.101  91.840  0.00  0.00    -0.206 F 
ATOM     62  C33 TDV d   1      33.709  39.796  91.421  0.00  0.00    -0.045 A 
ATOM     63  C34 TDV d   1      34.501  38.824  90.793  0.00  0.00    -0.068 A 
ATOM     64  H14 TDV d   1      32.876  39.495  92.046  0.00  0.00     0.088 H 
ATOM     65  H15 TDV d   1      34.276  37.772  90.929  0.00  0.00     0.085 H 
ENDBRANCH  52  55
ENDBRANCH   3  49
TORSDOF 7
