REMARK  8 active torsions:
REMARK  status: ('A' for Active; 'I' for Inactive)
REMARK    1  A    between atoms: C01_1  and  N02_2 
REMARK    2  A    between atoms: N02_2  and  C03_3 
REMARK    3  A    between atoms: C05_5  and  C06_6 
REMARK    4  A    between atoms: C07_7  and  C08_8 
REMARK    5  A    between atoms: C10_10  and  N11_11 
REMARK    6  A    between atoms: N11_11  and  C12_12 
REMARK    7  A    between atoms: C16_16  and  N17_17 
REMARK       I    between atoms: N21_21  and  C22_22 
REMARK    8  A    between atoms: C22_22  and  C23_23 
ROOT
ATOM      1  C08 T6Q d   1      53.438 -15.283 -12.335  0.00  0.00     0.117 A 
ATOM      2  N09 T6Q d   1      54.717 -15.811 -12.270  0.00  0.00    -0.060 NA
ATOM      3  C10 T6Q d   1      55.830 -14.983 -12.279  0.00  0.00     0.727 A 
ATOM      4  N28 T6Q d   1      55.707 -13.629 -12.337  0.00  0.00    -0.073 NA
ATOM      5  C29 T6Q d   1      54.432 -13.072 -12.391  0.00  0.00     0.043 A 
ATOM      6  C30 T6Q d   1      53.277 -13.887 -12.395  0.00  0.00     0.093 A 
ATOM      7  C31 T6Q d   1      51.935 -13.277 -12.405  0.00  0.00     0.103 C 
ATOM      8  N32 T6Q d   1      50.874 -12.796 -12.441  0.00  0.00    -0.191 NA
ATOM      9  H26 T6Q d   1      54.323 -11.994 -12.431  0.00  0.00     0.118 H 
ENDROOT
BRANCH   1  10
ATOM     10  C07 T6Q d   1      52.345 -16.179 -12.341  0.00  0.00     0.063 A 
ATOM     11  C05 T6Q d   1      51.163 -16.311 -13.098  0.00  0.00     0.053 A 
ATOM     12  N04 T6Q d   1      50.366 -17.368 -12.795  0.00  0.00    -0.228 NA
ATOM     13  C03 T6Q d   1      50.787 -18.204 -11.846  0.00  0.00     0.167 A 
ATOM     14  S33 T6Q d   1      52.296 -17.553 -11.370  0.00  0.00    -0.048 SA
BRANCH  11  15
ATOM     15  C06 T6Q d   1      50.704 -15.359 -14.197  0.00  0.00    -0.034 C 
ATOM     16  H5  T6Q d   1      51.450 -14.560 -14.325  0.00  0.00     0.035 H 
ATOM     17  H6  T6Q d   1      49.737 -14.916 -13.918  0.00  0.00     0.035 H 
ATOM     18  H7  T6Q d   1      50.595 -15.914 -15.141  0.00  0.00     0.035 H 
ENDBRANCH  11  15
BRANCH  13  19
ATOM     19  N02 T6Q d   1      50.174 -19.374 -11.364  0.00  0.00    -0.373 N 
ATOM     20  H4  T6Q d   1      50.524 -20.290 -11.679  0.00  0.00     0.161 HD
BRANCH  19  21
ATOM     21  C01 T6Q d   1      49.066 -19.324 -10.438  0.00  0.00    -0.019 C 
ATOM     22  H1  T6Q d   1      48.744 -20.348 -10.195  0.00  0.00     0.056 H 
ATOM     23  H2  T6Q d   1      48.230 -18.776 -10.896  0.00  0.00     0.056 H 
ATOM     24  H3  T6Q d   1      49.380 -18.811  -9.517  0.00  0.00     0.056 H 
ENDBRANCH  19  21
ENDBRANCH  13  19
ENDBRANCH   1  10
BRANCH   3  25
ATOM     25  N11 T6Q d   1      57.178 -15.532 -12.222  0.00  0.00    -0.188 N 
ATOM     26  H8  T6Q d   1      57.962 -14.907 -12.457  0.00  0.00     0.184 HD
BRANCH  25  27
ATOM     27  C12 T6Q d   1      57.489 -16.907 -11.855  0.00  0.00     0.051 A 
ATOM     28  C13 T6Q d   1      58.844 -17.135 -11.546  0.00  0.00    -0.057 A 
ATOM     29  C14 T6Q d   1      59.255 -18.412 -11.191  0.00  0.00    -0.079 A 
ATOM     30  H9  T6Q d   1      59.559 -16.321 -11.585  0.00  0.00     0.086 H 
ATOM     31  C15 T6Q d   1      58.294 -19.468 -11.151  0.00  0.00    -0.057 A 
ATOM     32  H10 T6Q d   1      60.293 -18.606 -10.947  0.00  0.00     0.083 H 
ATOM     33  C16 T6Q d   1      56.949 -19.259 -11.445  0.00  0.00     0.032 A 
ATOM     34  H11 T6Q d   1      58.623 -20.465 -10.883  0.00  0.00     0.086 H 
ATOM     35  C27 T6Q d   1      56.528 -17.972 -11.816  0.00  0.00    -0.031 A 
ATOM     36  H25 T6Q d   1      55.491 -17.785 -12.070  0.00  0.00     0.090 H 
BRANCH  33  37
ATOM     37  N17 T6Q d   1      56.018 -20.402 -11.366  0.00  0.00    -0.379 N 
ATOM     38  C18 T6Q d   1      56.830 -21.531 -11.714  0.00  0.00    -0.003 C 
ATOM     39  C19 T6Q d   1      57.117 -22.416 -10.555  0.00  0.00    -0.035 C 
ATOM     40  H12 T6Q d   1      57.784 -21.165 -12.121  0.00  0.00     0.064 H 
ATOM     41  H13 T6Q d   1      56.305 -22.118 -12.482  0.00  0.00     0.064 H 
ATOM     42  C20 T6Q d   1      56.004 -22.421  -9.558  0.00  0.00    -0.001 C 
ATOM     43  H14 T6Q d   1      58.034 -22.065 -10.060  0.00  0.00     0.037 H 
ATOM     44  H15 T6Q d   1      57.268 -23.442 -10.922  0.00  0.00     0.037 H 
ATOM     45  N21 T6Q d   1      54.674 -22.609 -10.082  0.00  0.00    -0.351 N 
ATOM     46  H16 T6Q d   1      56.023 -21.456  -9.031  0.00  0.00     0.064 H 
ATOM     47  H17 T6Q d   1      56.200 -23.233  -8.842  0.00  0.00     0.064 H 
ATOM     48  C22 T6Q d   1      53.919 -23.713  -9.431  0.00  0.00     0.215 C 
ATOM     49  C25 T6Q d   1      53.996 -21.858 -11.138  0.00  0.00     0.012 C 
ATOM     50  O24 T6Q d   1      54.442 -24.375  -8.532  0.00  0.00    -0.274 OA
ATOM     51  C26 T6Q d   1      54.624 -20.591 -11.686  0.00  0.00     0.010 C 
ATOM     52  H21 T6Q d   1      53.007 -21.579 -10.745  0.00  0.00     0.066 H 
ATOM     53  H22 T6Q d   1      53.872 -22.545 -11.988  0.00  0.00     0.066 H 
ATOM     54  H23 T6Q d   1      54.527 -20.611 -12.781  0.00  0.00     0.066 H 
ATOM     55  H24 T6Q d   1      54.064 -19.734 -11.284  0.00  0.00     0.066 H 
BRANCH  48  56
ATOM     56  C23 T6Q d   1      52.494 -24.103  -9.794  0.00  0.00    -0.003 C 
ATOM     57  H18 T6Q d   1      52.173 -24.947  -9.165  0.00  0.00     0.040 H 
ATOM     58  H19 T6Q d   1      52.453 -24.398 -10.853  0.00  0.00     0.040 H 
ATOM     59  H20 T6Q d   1      51.825 -23.246  -9.626  0.00  0.00     0.040 H 
ENDBRANCH  48  56
ENDBRANCH  33  37
ENDBRANCH  25  27
ENDBRANCH   3  25
TORSDOF 8
