REMARK  7 active torsions:
REMARK  status: ('A' for Active; 'I' for Inactive)
REMARK    1  A    between atoms: C01_1  and  N02_2 
REMARK    2  A    between atoms: N02_2  and  C03_3 
REMARK    3  A    between atoms: C05_5  and  C06_6 
REMARK    4  A    between atoms: C07_7  and  C08_8 
REMARK    5  A    between atoms: C10_10  and  N11_11 
REMARK    6  A    between atoms: N11_11  and  C12_12 
REMARK    7  A    between atoms: C16_16  and  N17_17 
ROOT
ATOM      1  C08 T3C d   1      53.730 -15.427 -12.846  0.00  0.00     0.117 A 
ATOM      2  N09 T3C d   1      54.998 -15.956 -12.812  0.00  0.00    -0.060 NA
ATOM      3  C10 T3C d   1      56.073 -15.142 -12.782  0.00  0.00     0.727 A 
ATOM      4  N25 T3C d   1      55.944 -13.777 -12.781  0.00  0.00    -0.073 NA
ATOM      5  C26 T3C d   1      54.694 -13.209 -12.809  0.00  0.00     0.043 A 
ATOM      6  C27 T3C d   1      53.563 -14.016 -12.832  0.00  0.00     0.093 A 
ATOM      7  C28 T3C d   1      52.211 -13.408 -12.824  0.00  0.00     0.103 C 
ATOM      8  N29 T3C d   1      51.165 -12.945 -12.819  0.00  0.00    -0.191 NA
ATOM      9  H25 T3C d   1      54.590 -12.130 -12.813  0.00  0.00     0.118 H 
ENDROOT
BRANCH   1  10
ATOM     10  C07 T3C d   1      52.646 -16.292 -12.872  0.00  0.00     0.063 A 
ATOM     11  C05 T3C d   1      51.473 -16.352 -13.665  0.00  0.00     0.053 A 
ATOM     12  N04 T3C d   1      50.605 -17.350 -13.411  0.00  0.00    -0.228 NA
ATOM     13  C03 T3C d   1      50.937 -18.197 -12.438  0.00  0.00     0.167 A 
ATOM     14  S30 T3C d   1      52.470 -17.632 -11.877  0.00  0.00    -0.048 SA
BRANCH  11  15
ATOM     15  C06 T3C d   1      51.106 -15.364 -14.789  0.00  0.00    -0.034 C 
ATOM     16  H5  T3C d   1      51.899 -14.608 -14.886  0.00  0.00     0.035 H 
ATOM     17  H6  T3C d   1      50.154 -14.869 -14.546  0.00  0.00     0.035 H 
ATOM     18  H7  T3C d   1      51.003 -15.910 -15.738  0.00  0.00     0.035 H 
ENDBRANCH  11  15
BRANCH  13  19
ATOM     19  N02 T3C d   1      50.222 -19.340 -11.947  0.00  0.00    -0.373 N 
ATOM     20  H4  T3C d   1      49.486 -19.792 -12.509  0.00  0.00     0.161 HD
BRANCH  19  21
ATOM     21  C01 T3C d   1      50.574 -19.836 -10.628  0.00  0.00    -0.019 C 
ATOM     22  H1  T3C d   1      49.949 -20.708 -10.386  0.00  0.00     0.056 H 
ATOM     23  H2  T3C d   1      50.405 -19.046  -9.882  0.00  0.00     0.056 H 
ATOM     24  H3  T3C d   1      51.634 -20.130 -10.618  0.00  0.00     0.056 H 
ENDBRANCH  19  21
ENDBRANCH  13  19
ENDBRANCH   1  10
BRANCH   3  25
ATOM     25  N11 T3C d   1      57.429 -15.686 -12.767  0.00  0.00    -0.188 N 
ATOM     26  H8  T3C d   1      58.199 -15.059 -13.043  0.00  0.00     0.184 HD
BRANCH  25  27
ATOM     27  C12 T3C d   1      57.763 -17.021 -12.398  0.00  0.00     0.051 A 
ATOM     28  C13 T3C d   1      59.127 -17.202 -11.992  0.00  0.00    -0.057 A 
ATOM     29  C14 T3C d   1      59.582 -18.454 -11.609  0.00  0.00    -0.079 A 
ATOM     30  H9  T3C d   1      59.805 -16.356 -11.985  0.00  0.00     0.086 H 
ATOM     31  C15 T3C d   1      58.698 -19.551 -11.623  0.00  0.00    -0.057 A 
ATOM     32  H10 T3C d   1      60.612 -18.588 -11.300  0.00  0.00     0.083 H 
ATOM     33  C16 T3C d   1      57.361 -19.405 -12.026  0.00  0.00     0.032 A 
ATOM     34  H11 T3C d   1      59.057 -20.527 -11.317  0.00  0.00     0.086 H 
ATOM     35  C24 T3C d   1      56.884 -18.122 -12.428  0.00  0.00    -0.031 A 
ATOM     36  H24 T3C d   1      55.858 -17.996 -12.753  0.00  0.00     0.090 H 
BRANCH  33  37
ATOM     37  N17 T3C d   1      56.516 -20.618 -12.029  0.00  0.00    -0.379 N 
ATOM     38  C18 T3C d   1      56.988 -21.990 -12.052  0.00  0.00    -0.003 C 
ATOM     39  C19 T3C d   1      56.944 -22.759 -10.764  0.00  0.00    -0.028 C 
ATOM     40  H12 T3C d   1      58.035 -21.973 -12.390  0.00  0.00     0.064 H 
ATOM     41  H13 T3C d   1      56.375 -22.537 -12.784  0.00  0.00     0.064 H 
ATOM     42  C20 T3C d   1      55.546 -23.144 -10.338  0.00  0.00     0.083 C 
ATOM     43  H14 T3C d   1      57.390 -22.139  -9.973  0.00  0.00     0.037 H 
ATOM     44  H15 T3C d   1      57.536 -23.678 -10.887  0.00  0.00     0.037 H 
ATOM     45  N21 T3C d   1      54.508 -22.697 -11.235  0.00  0.00    -0.074 N 
ATOM     46  H16 T3C d   1      55.356 -22.708  -9.346  0.00  0.00     0.075 H 
ATOM     47  H17 T3C d   1      55.496 -24.241 -10.272  0.00  0.00     0.075 H 
ATOM     48  C22 T3C d   1      54.233 -21.274 -11.336  0.00  0.00     0.096 C 
ATOM     49  H18 T3C d   1      53.653 -23.144 -10.944  0.00  0.00     0.277 HD
ATOM     50  H19 T3C d   1      54.757 -23.017 -12.158  0.00  0.00     0.277 HD
ATOM     51  C23 T3C d   1      55.427 -20.373 -11.132  0.00  0.00     0.018 C 
ATOM     52  H20 T3C d   1      53.480 -21.018 -10.576  0.00  0.00     0.078 H 
ATOM     53  H21 T3C d   1      53.825 -21.076 -12.338  0.00  0.00     0.078 H 
ATOM     54  H22 T3C d   1      55.099 -19.332 -11.267  0.00  0.00     0.066 H 
ATOM     55  H23 T3C d   1      55.791 -20.513 -10.103  0.00  0.00     0.066 H 
ENDBRANCH  33  37
ENDBRANCH  25  27
ENDBRANCH   3  25
TORSDOF 7
