REMARK  9 active torsions:
REMARK  status: ('A' for Active; 'I' for Inactive)
REMARK    1  A    between atoms: C01_1  and  N02_2 
REMARK    2  A    between atoms: N02_2  and  C03_3 
REMARK    3  A    between atoms: C05_5  and  C06_6 
REMARK    4  A    between atoms: C07_7  and  C08_8 
REMARK    5  A    between atoms: C10_10  and  N11_11 
REMARK    6  A    between atoms: N11_11  and  C12_12 
REMARK    7  A    between atoms: C14_14  and  S15_15 
REMARK    8  A    between atoms: S15_15  and  N16_16 
REMARK    9  A    between atoms: C24_24  and  C25_25 
ROOT
ATOM      1  C08 T7Z d   1      54.185 -15.349 -12.658  0.00  0.00     0.117 A 
ATOM      2  N09 T7Z d   1      55.436 -15.887 -12.692  0.00  0.00    -0.060 NA
ATOM      3  C10 T7Z d   1      56.530 -15.080 -12.662  0.00  0.00     0.727 A 
ATOM      4  N28 T7Z d   1      56.398 -13.740 -12.644  0.00  0.00    -0.073 NA
ATOM      5  C29 T7Z d   1      55.163 -13.170 -12.617  0.00  0.00     0.043 A 
ATOM      6  C30 T7Z d   1      53.993 -13.982 -12.627  0.00  0.00     0.093 A 
ATOM      7  C31 T7Z d   1      52.619 -13.426 -12.560  0.00  0.00     0.103 C 
ATOM      8  N32 T7Z d   1      51.535 -12.994 -12.514  0.00  0.00    -0.191 NA
ATOM      9  H23 T7Z d   1      55.069 -12.091 -12.588  0.00  0.00     0.118 H 
ENDROOT
BRANCH   1  10
ATOM     10  C07 T7Z d   1      52.973 -16.258 -12.699  0.00  0.00     0.063 A 
ATOM     11  C05 T7Z d   1      51.833 -16.072 -13.563  0.00  0.00     0.053 A 
ATOM     12  N04 T7Z d   1      50.838 -17.170 -13.377  0.00  0.00    -0.228 NA
ATOM     13  C03 T7Z d   1      51.305 -18.077 -12.395  0.00  0.00     0.167 A 
ATOM     14  S33 T7Z d   1      52.773 -17.595 -11.828  0.00  0.00    -0.048 SA
BRANCH  11  15
ATOM     15  C06 T7Z d   1      51.605 -14.938 -14.519  0.00  0.00    -0.034 C 
ATOM     16  H5  T7Z d   1      52.466 -14.254 -14.488  0.00  0.00     0.035 H 
ATOM     17  H6  T7Z d   1      50.694 -14.393 -14.231  0.00  0.00     0.035 H 
ATOM     18  H7  T7Z d   1      51.489 -15.335 -15.538  0.00  0.00     0.035 H 
ENDBRANCH  11  15
BRANCH  13  19
ATOM     19  N02 T7Z d   1      50.619 -19.277 -11.954  0.00  0.00    -0.373 N 
ATOM     20  H4  T7Z d   1      51.061 -20.196 -12.097  0.00  0.00     0.161 HD
BRANCH  19  21
ATOM     21  C01 T7Z d   1      49.351 -19.201 -11.330  0.00  0.00    -0.019 C 
ATOM     22  H1  T7Z d   1      49.007 -20.214 -11.075  0.00  0.00     0.056 H 
ATOM     23  H2  T7Z d   1      48.632 -18.732 -12.017  0.00  0.00     0.056 H 
ATOM     24  H3  T7Z d   1      49.429 -18.598 -10.413  0.00  0.00     0.056 H 
ENDBRANCH  19  21
ENDBRANCH  13  19
ENDBRANCH   1  10
BRANCH   3  25
ATOM     25  N11 T7Z d   1      57.858 -15.651 -12.656  0.00  0.00    -0.188 N 
ATOM     26  H8  T7Z d   1      58.642 -15.033 -12.908  0.00  0.00     0.184 HD
BRANCH  25  27
ATOM     27  C12 T7Z d   1      58.175 -17.042 -12.319  0.00  0.00     0.050 A 
ATOM     28  C13 T7Z d   1      57.169 -17.996 -12.313  0.00  0.00    -0.034 A 
ATOM     29  C14 T7Z d   1      57.472 -19.350 -12.023  0.00  0.00     0.087 A 
ATOM     30  H9  T7Z d   1      56.148 -17.706 -12.531  0.00  0.00     0.089 H 
ATOM     31  C24 T7Z d   1      58.796 -19.737 -11.732  0.00  0.00    -0.039 A 
ATOM     32  C26 T7Z d   1      59.816 -18.799 -11.755  0.00  0.00    -0.074 A 
ATOM     33  C27 T7Z d   1      59.499 -17.447 -12.055  0.00  0.00    -0.056 A 
ATOM     34  H21 T7Z d   1      60.839 -19.092 -11.547  0.00  0.00     0.084 H 
ATOM     35  H22 T7Z d   1      60.294 -16.710 -12.082  0.00  0.00     0.086 H 
BRANCH  29  36
ATOM     36  S15 T7Z d   1      56.126 -20.555 -12.012  0.00  0.00     0.261 S 
ATOM     37  O22 T7Z d   1      54.943 -19.959 -11.479  0.00  0.00    -0.200 OA
ATOM     38  O23 T7Z d   1      55.821 -21.058 -13.330  0.00  0.00    -0.200 OA
BRANCH  36  39
ATOM     39  N16 T7Z d   1      56.596 -21.760 -11.007  0.00  0.00    -0.303 N 
ATOM     40  C17 T7Z d   1      55.836 -21.772  -9.885  0.00  0.00     0.025 C 
ATOM     41  C18 T7Z d   1      54.925 -22.976  -9.867  0.00  0.00     0.035 C 
ATOM     42  H10 T7Z d   1      55.226 -20.858  -9.853  0.00  0.00     0.068 H 
ATOM     43  H11 T7Z d   1      56.494 -21.805  -9.004  0.00  0.00     0.068 H 
ATOM     44  O19 T7Z d   1      55.636 -24.221 -10.162  0.00  0.00    -0.388 OA
ATOM     45  H12 T7Z d   1      54.136 -22.833 -10.620  0.00  0.00     0.076 H 
ATOM     46  H13 T7Z d   1      54.469 -23.058  -8.870  0.00  0.00     0.076 H 
ATOM     47  C20 T7Z d   1      56.471 -24.082 -11.372  0.00  0.00     0.035 C 
ATOM     48  C21 T7Z d   1      57.298 -22.832 -11.450  0.00  0.00     0.025 C 
ATOM     49  H14 T7Z d   1      55.805 -24.102 -12.247  0.00  0.00     0.076 H 
ATOM     50  H15 T7Z d   1      57.155 -24.943 -11.412  0.00  0.00     0.076 H 
ATOM     51  H16 T7Z d   1      58.197 -22.956 -10.829  0.00  0.00     0.068 H 
ATOM     52  H17 T7Z d   1      57.595 -22.661 -12.495  0.00  0.00     0.068 H 
ENDBRANCH  36  39
ENDBRANCH  29  36
BRANCH  31  53
ATOM     53  C25 T7Z d   1      59.141 -21.150 -11.421  0.00  0.00    -0.050 C 
ATOM     54  H18 T7Z d   1      60.221 -21.229 -11.226  0.00  0.00     0.033 H 
ATOM     55  H19 T7Z d   1      58.875 -21.789 -12.276  0.00  0.00     0.033 H 
ATOM     56  H20 T7Z d   1      58.583 -21.476 -10.531  0.00  0.00     0.033 H 
ENDBRANCH  31  53
ENDBRANCH  25  27
ENDBRANCH   3  25
TORSDOF 9
