REMARK  8 active torsions:
REMARK  status: ('A' for Active; 'I' for Inactive)
REMARK    1  A    between atoms: C7A_1  and  N6A_2 
REMARK    2  A    between atoms: N6A_2  and  C3A_3 
REMARK    3  A    between atoms: C1A_5  and  C8A_6 
REMARK    4  A    between atoms: C5A_7  and  C4_8 
REMARK    5  A    between atoms: C2_10  and  N7_11 
REMARK    6  A    between atoms: N7_11  and  C1B_12 
REMARK    7  A    between atoms: C3B_14  and  S7B_15 
REMARK    8  A    between atoms: S7B_15  and  N9B_17 
ROOT
ATOM      1  C4  T3E d   1      54.018 -15.342 -12.838  0.00  0.00     0.117 A 
ATOM      2  N3  T3E d   1      55.288 -15.838 -12.755  0.00  0.00    -0.060 NA
ATOM      3  C2  T3E d   1      56.365 -14.944 -12.688  0.00  0.00     0.727 A 
ATOM      4  N1  T3E d   1      56.197 -13.587 -12.710  0.00  0.00    -0.073 NA
ATOM      5  C6  T3E d   1      54.906 -13.126 -12.778  0.00  0.00     0.043 A 
ATOM      6  C5  T3E d   1      53.825 -13.992 -12.829  0.00  0.00     0.093 A 
ATOM      7  C8  T3E d   1      52.458 -13.420 -12.807  0.00  0.00     0.103 C 
ATOM      8  N9  T3E d   1      51.401 -12.970 -12.855  0.00  0.00    -0.191 NA
ATOM      9  H15 T3E d   1      54.727 -12.057 -12.792  0.00  0.00     0.118 H 
ENDROOT
BRANCH   1  10
ATOM     10  C5A T3E d   1      52.867 -16.271 -12.872  0.00  0.00     0.063 A 
ATOM     11  C1A T3E d   1      51.624 -16.191 -13.551  0.00  0.00     0.053 A 
ATOM     12  N2A T3E d   1      50.766 -17.359 -13.282  0.00  0.00    -0.228 NA
ATOM     13  C3A T3E d   1      51.409 -18.248 -12.445  0.00  0.00     0.167 A 
ATOM     14  S4A T3E d   1      52.886 -17.636 -12.105  0.00  0.00    -0.048 SA
BRANCH  11  15
ATOM     15  C8A T3E d   1      51.146 -15.155 -14.466  0.00  0.00    -0.034 C 
ATOM     16  H5  T3E d   1      51.905 -14.363 -14.552  0.00  0.00     0.035 H 
ATOM     17  H6  T3E d   1      50.211 -14.726 -14.078  0.00  0.00     0.035 H 
ATOM     18  H7  T3E d   1      50.963 -15.597 -15.457  0.00  0.00     0.035 H 
ENDBRANCH  11  15
BRANCH  13  19
ATOM     19  N6A T3E d   1      50.846 -19.497 -11.999  0.00  0.00    -0.373 N 
ATOM     20  H4  T3E d   1      50.254 -19.524 -11.157  0.00  0.00     0.161 HD
BRANCH  19  21
ATOM     21  C7A T3E d   1      51.115 -20.723 -12.741  0.00  0.00    -0.019 C 
ATOM     22  H1  T3E d   1      50.605 -21.566 -12.253  0.00  0.00     0.056 H 
ATOM     23  H2  T3E d   1      52.199 -20.911 -12.758  0.00  0.00     0.056 H 
ATOM     24  H3  T3E d   1      50.745 -20.617 -13.771  0.00  0.00     0.056 H 
ENDBRANCH  19  21
ENDBRANCH  13  19
ENDBRANCH   1  10
BRANCH   3  25
ATOM     25  N7  T3E d   1      57.723 -15.399 -12.606  0.00  0.00    -0.188 N 
ATOM     26  H8  T3E d   1      58.490 -14.716 -12.690  0.00  0.00     0.184 HD
BRANCH  25  27
ATOM     27  C1B T3E d   1      58.039 -16.803 -12.407  0.00  0.00     0.050 A 
ATOM     28  C2B T3E d   1      59.362 -17.112 -12.657  0.00  0.00    -0.034 A 
ATOM     29  C3B T3E d   1      59.786 -18.440 -12.506  0.00  0.00     0.081 A 
ATOM     30  H9  T3E d   1      60.060 -16.342 -12.964  0.00  0.00     0.089 H 
ATOM     31  C4B T3E d   1      58.920 -19.469 -12.094  0.00  0.00    -0.060 A 
ATOM     32  C5B T3E d   1      57.580 -19.164 -11.828  0.00  0.00    -0.079 A 
ATOM     33  H12 T3E d   1      59.285 -20.484 -11.984  0.00  0.00     0.085 H 
ATOM     34  C6B T3E d   1      57.144 -17.822 -11.998  0.00  0.00    -0.057 A 
ATOM     35  H13 T3E d   1      56.891 -19.934 -11.500  0.00  0.00     0.083 H 
ATOM     36  H14 T3E d   1      56.106 -17.573 -11.811  0.00  0.00     0.086 H 
BRANCH  29  37
ATOM     37  S7B T3E d   1      61.478 -18.764 -12.891  0.00  0.00     0.256 S 
ATOM     38  O8B T3E d   1      61.701 -20.182 -12.659  0.00  0.00    -0.201 OA
ATOM     39  O1B T3E d   1      61.681 -18.349 -14.273  0.00  0.00    -0.201 OA
BRANCH  37  40
ATOM     40  N9B T3E d   1      62.418 -17.885 -11.872  0.00  0.00    -0.324 N 
ATOM     41  H10 T3E d   1      63.414 -17.939 -11.939  0.00  0.00     0.169 HD
ATOM     42  H11 T3E d   1      61.994 -17.296 -11.184  0.00  0.00     0.169 HD
ENDBRANCH  37  40
ENDBRANCH  29  37
ENDBRANCH  25  27
ENDBRANCH   3  25
TORSDOF 8
