REMARK  7 active torsions:
REMARK  status: ('A' for Active; 'I' for Inactive)
REMARK    1  A    between atoms: C01_1  and  N02_2 
REMARK    2  A    between atoms: N02_2  and  C03_3 
REMARK    3  A    between atoms: C05_5  and  C06_6 
REMARK    4  A    between atoms: C07_7  and  C08_8 
REMARK    5  A    between atoms: C10_10  and  N11_11 
REMARK    6  A    between atoms: N11_11  and  C12_12 
REMARK    7  A    between atoms: C14_14  and  O15_15 
ROOT
ATOM      1  C08 T9N d   1      54.306 -15.136 -12.772  0.00  0.00     0.117 A 
ATOM      2  N09 T9N d   1      55.546 -15.646 -12.749  0.00  0.00    -0.060 NA
ATOM      3  C10 T9N d   1      56.596 -14.781 -12.730  0.00  0.00     0.727 A 
ATOM      4  N19 T9N d   1      56.465 -13.406 -12.714  0.00  0.00    -0.073 NA
ATOM      5  C20 T9N d   1      55.224 -12.853 -12.701  0.00  0.00     0.043 A 
ATOM      6  C21 T9N d   1      54.105 -13.699 -12.713  0.00  0.00     0.093 A 
ATOM      7  C22 T9N d   1      52.688 -13.147 -12.619  0.00  0.00     0.103 C 
ATOM      8  N23 T9N d   1      51.621 -12.732 -12.606  0.00  0.00    -0.191 NA
ATOM      9  H14 T9N d   1      55.101 -11.776 -12.682  0.00  0.00     0.118 H 
ENDROOT
BRANCH   1  10
ATOM     10  C07 T9N d   1      53.098 -16.033 -12.768  0.00  0.00     0.063 A 
ATOM     11  C05 T9N d   1      51.828 -15.817 -13.353  0.00  0.00     0.053 A 
ATOM     12  N04 T9N d   1      50.880 -16.801 -13.136  0.00  0.00    -0.228 NA
ATOM     13  C03 T9N d   1      51.350 -17.850 -12.383  0.00  0.00     0.167 A 
ATOM     14  S24 T9N d   1      52.950 -17.517 -12.033  0.00  0.00    -0.048 SA
BRANCH  11  15
ATOM     15  C06 T9N d   1      51.501 -14.589 -14.170  0.00  0.00    -0.034 C 
ATOM     16  H5  T9N d   1      52.385 -13.937 -14.221  0.00  0.00     0.035 H 
ATOM     17  H6  T9N d   1      50.670 -14.044 -13.697  0.00  0.00     0.035 H 
ATOM     18  H7  T9N d   1      51.209 -14.892 -15.186  0.00  0.00     0.035 H 
ENDBRANCH  11  15
BRANCH  13  19
ATOM     19  N02 T9N d   1      50.686 -19.009 -11.958  0.00  0.00    -0.373 N 
ATOM     20  H4  T9N d   1      49.846 -18.944 -11.366  0.00  0.00     0.161 HD
BRANCH  19  21
ATOM     21  C01 T9N d   1      51.198 -20.292 -12.362  0.00  0.00    -0.019 C 
ATOM     22  H1  T9N d   1      50.563 -21.088 -11.945  0.00  0.00     0.056 H 
ATOM     23  H2  T9N d   1      52.226 -20.410 -11.990  0.00  0.00     0.056 H 
ATOM     24  H3  T9N d   1      51.195 -20.359 -13.460  0.00  0.00     0.056 H 
ENDBRANCH  19  21
ENDBRANCH  13  19
ENDBRANCH   1  10
BRANCH   3  25
ATOM     25  N11 T9N d   1      57.933 -15.348 -12.761  0.00  0.00    -0.188 N 
ATOM     26  H8  T9N d   1      58.706 -14.785 -13.143  0.00  0.00     0.184 HD
BRANCH  25  27
ATOM     27  C12 T9N d   1      58.214 -16.702 -12.262  0.00  0.00     0.052 A 
ATOM     28  C13 T9N d   1      59.488 -16.957 -11.736  0.00  0.00    -0.025 A 
ATOM     29  C14 T9N d   1      59.785 -18.227 -11.242  0.00  0.00     0.067 A 
ATOM     30  H9  T9N d   1      60.236 -16.173 -11.713  0.00  0.00     0.091 H 
ATOM     31  C16 T9N d   1      58.813 -19.290 -11.286  0.00  0.00    -0.051 A 
ATOM     32  C17 T9N d   1      57.563 -19.039 -11.817  0.00  0.00    -0.078 A 
ATOM     33  H11 T9N d   1      59.060 -20.275 -10.907  0.00  0.00     0.087 H 
ATOM     34  C18 T9N d   1      57.256 -17.732 -12.312  0.00  0.00    -0.057 A 
ATOM     35  H12 T9N d   1      56.819 -19.827 -11.858  0.00  0.00     0.083 H 
ATOM     36  H13 T9N d   1      56.276 -17.533 -12.730  0.00  0.00     0.086 H 
BRANCH  29  37
ATOM     37  O15 T9N d   1      61.053 -18.441 -10.701  0.00  0.00    -0.361 OA
ATOM     38  H10 T9N d   1      61.122 -19.341 -10.404  0.00  0.00     0.217 HD
ENDBRANCH  29  37
ENDBRANCH  25  27
ENDBRANCH   3  25
TORSDOF 7
