REMARK  7 active torsions:
REMARK  status: ('A' for Active; 'I' for Inactive)
REMARK    1  A    between atoms: N02_2  and  C01_1 
REMARK    2  A    between atoms: C03_3  and  N02_2 
REMARK    3  A    between atoms: C05_5  and  C06_6 
REMARK    4  A    between atoms: C08_8  and  C07_7 
REMARK    5  A    between atoms: N11_12  and  C10_10 
REMARK    6  A    between atoms: C22_21  and  C11_11 
REMARK    7  A    between atoms: C12_13  and  N11_12 
REMARK       I    between atoms: N21_20  and  C22_21 
ROOT
ATOM      1  C08 TJF d   1      35.330 -15.462  32.131  0.00  0.00     0.117 A 
ATOM      2  N09 TJF d   1      34.994 -16.759  32.022  0.00  0.00    -0.060 NA
ATOM      3  C10 TJF d   1      34.805 -17.333  30.830  0.00  0.00     0.727 A 
ATOM      4  N28 TJF d   1      34.945 -16.623  29.703  0.00  0.00    -0.073 NA
ATOM      5  C29 TJF d   1      35.282 -15.329  29.732  0.00  0.00     0.043 A 
ATOM      6  C30 TJF d   1      35.492 -14.706  30.960  0.00  0.00     0.093 A 
ATOM      7  C31 TJF d   1      35.870 -13.265  30.992  0.00  0.00     0.103 C 
ATOM      8  N32 TJF d   1      36.155 -12.164  31.012  0.00  0.00    -0.191 NA
ATOM      9  H21 TJF d   1      35.391 -14.771  28.809  0.00  0.00     0.118 H 
ENDROOT
BRANCH   1  10
ATOM     10  C07 TJF d   1      35.549 -14.881  33.490  0.00  0.00     0.063 A 
ATOM     11  C05 TJF d   1      34.857 -13.782  34.101  0.00  0.00     0.053 A 
ATOM     12  N04 TJF d   1      35.400 -13.534  35.460  0.00  0.00    -0.228 NA
ATOM     13  C03 TJF d   1      36.440 -14.439  35.764  0.00  0.00     0.167 A 
ATOM     14  S33 TJF d   1      36.671 -15.436  34.511  0.00  0.00    -0.048 SA
BRANCH  11  15
ATOM     15  C06 TJF d   1      33.745 -12.985  33.497  0.00  0.00    -0.034 C 
ATOM     16  H5  TJF d   1      33.529 -13.364  32.487  0.00  0.00     0.035 H 
ATOM     17  H6  TJF d   1      34.043 -11.928  33.436  0.00  0.00     0.035 H 
ATOM     18  H7  TJF d   1      32.846 -13.077  34.124  0.00  0.00     0.035 H 
ENDBRANCH  11  15
BRANCH  13  19
ATOM     19  N02 TJF d   1      37.175 -14.466  36.991  0.00  0.00    -0.373 N 
ATOM     20  H4  TJF d   1      36.773 -14.033  37.835  0.00  0.00     0.161 HD
BRANCH  19  21
ATOM     21  C01 TJF d   1      38.468 -15.091  37.060  0.00  0.00    -0.019 C 
ATOM     22  H1  TJF d   1      38.863 -15.005  38.083  0.00  0.00     0.056 H 
ATOM     23  H2  TJF d   1      39.154 -14.593  36.359  0.00  0.00     0.056 H 
ATOM     24  H3  TJF d   1      38.377 -16.154  36.791  0.00  0.00     0.056 H 
ENDBRANCH  19  21
ENDBRANCH  13  19
ENDBRANCH   1  10
BRANCH   3  25
ATOM     25  N11 TJF d   1      34.444 -18.710  30.700  0.00  0.00    -0.188 N 
ATOM     26  H8  TJF d   1      33.983 -18.996  29.824  0.00  0.00     0.184 HD
BRANCH  25  27
ATOM     27  C12 TJF d   1      34.668 -19.723  31.682  0.00  0.00     0.050 A 
ATOM     28  C13 TJF d   1      35.641 -19.595  32.662  0.00  0.00    -0.057 A 
ATOM     29  C14 TJF d   1      35.833 -20.597  33.600  0.00  0.00    -0.080 A 
ATOM     30  H9  TJF d   1      36.257 -18.703  32.695  0.00  0.00     0.086 H 
ATOM     31  C15 TJF d   1      35.052 -21.742  33.557  0.00  0.00    -0.068 A 
ATOM     32  H10 TJF d   1      36.592 -20.486  34.366  0.00  0.00     0.083 H 
ATOM     33  C11 TJF d   1      34.084 -21.896  32.564  0.00  0.00     0.034 A 
ATOM     34  H11 TJF d   1      35.194 -22.520  34.298  0.00  0.00     0.085 H 
ATOM     35  C27 TJF d   1      33.895 -20.880  31.642  0.00  0.00    -0.041 A 
ATOM     36  H20 TJF d   1      33.134 -20.987  30.878  0.00  0.00     0.088 H 
BRANCH  33  37
ATOM     37  C22 TJF d   1      33.216 -23.108  32.479  0.00  0.00     0.254 C 
ATOM     38  N21 TJF d   1      33.711 -24.427  32.235  0.00  0.00    -0.344 N 
ATOM     39  C20 TJF d   1      35.046 -24.630  32.069  0.00  0.00     0.018 C 
ATOM     40  C25 TJF d   1      32.783 -25.421  32.182  0.00  0.00     0.018 C 
ATOM     41  C19 TJF d   1      35.343 -26.085  31.912  0.00  0.00     0.034 C 
ATOM     42  H14 TJF d   1      35.384 -24.093  31.170  0.00  0.00     0.067 H 
ATOM     43  H15 TJF d   1      35.582 -24.245  32.949  0.00  0.00     0.067 H 
ATOM     44  O19 TJF d   1      34.519 -26.655  30.876  0.00  0.00    -0.388 OA
ATOM     45  H12 TJF d   1      36.402 -26.212  31.644  0.00  0.00     0.076 H 
ATOM     46  H13 TJF d   1      35.140 -26.601  32.862  0.00  0.00     0.076 H 
ATOM     47  C26 TJF d   1      33.113 -26.482  31.173  0.00  0.00     0.034 C 
ATOM     48  H18 TJF d   1      32.728 -27.440  31.553  0.00  0.00     0.076 H 
ATOM     49  H19 TJF d   1      32.599 -26.227  30.235  0.00  0.00     0.076 H 
ATOM     50  H16 TJF d   1      31.811 -24.979  31.919  0.00  0.00     0.067 H 
ATOM     51  H17 TJF d   1      32.716 -25.891  33.175  0.00  0.00     0.067 H 
ATOM     52  O24 TJF d   1      32.010 -22.961  32.619  0.00  0.00    -0.267 OA
ENDBRANCH  33  37
ENDBRANCH  25  27
ENDBRANCH   3  25
TORSDOF 7
