REMARK  3 active torsions:
REMARK  status: ('A' for Active; 'I' for Inactive)
REMARK    1  A    between atoms: C6_6  and  C7_9 
REMARK    2  A    between atoms: C1_7  and  O13_8 
REMARK    3  A    between atoms: C8_10  and  S9_11 
ROOT
ATOM      1 BR   TU0 d   1      -7.438   7.105  12.131  0.00  0.00    -0.051 Br
ATOM      2  C4  TU0 d   1      -5.920   6.253  12.871  0.00  0.00     0.011 A 
ATOM      3  C3  TU0 d   1      -4.662   6.688  12.458  0.00  0.00    -0.064 A 
ATOM      4  C2  TU0 d   1      -3.515   6.095  12.978  0.00  0.00    -0.049 A 
ATOM      5  C5  TU0 d   1      -6.096   5.228  13.806  0.00  0.00    -0.054 A 
ATOM      6  C6  TU0 d   1      -4.985   4.609  14.367  0.00  0.00    -0.001 A 
ATOM      7  C1  TU0 d   1      -3.650   5.075  13.921  0.00  0.00     0.076 A 
ATOM      8  H1  TU0 d   1      -4.577   7.488  11.732  0.00  0.00     0.085 H 
ATOM      9  H2  TU0 d   1      -2.533   6.420  12.656  0.00  0.00     0.087 H 
ATOM     10  H3  TU0 d   1      -7.095   4.918  14.092  0.00  0.00     0.086 H 
ENDROOT
BRANCH   6  11
ATOM     11  C7  TU0 d   1      -5.081   3.481  15.347  0.00  0.00    -0.057 C 
ATOM     12  C8  TU0 d   1      -6.092   3.236  16.185  0.00  0.00     0.028 C 
ATOM     13  H6  TU0 d   1      -6.946   3.912  16.195  0.00  0.00     0.106 H 
ATOM     14  H5  TU0 d   1      -4.240   2.789  15.380  0.00  0.00     0.086 H 
BRANCH  12  15
ATOM     15  S9  TU0 d   1      -6.084   1.980  17.173  0.00  0.00     0.126 S 
ATOM     16  O10 TU0 d   1      -7.046   0.984  16.621  0.00  0.00    -0.592 OA
ATOM     17  O11 TU0 d   1      -6.540   2.435  18.505  0.00  0.00    -0.592 OA
ATOM     18  O12 TU0 d   1      -4.701   1.441  17.272  0.00  0.00    -0.592 OA
ENDBRANCH  12  15
ENDBRANCH   6  11
BRANCH   7  19
ATOM     19  O13 TU0 d   1      -2.533   4.517  14.418  0.00  0.00    -0.360 OA
ATOM     20  H4  TU0 d   1      -1.773   4.931  14.027  0.00  0.00     0.217 HD
ENDBRANCH   7  19
TORSDOF 3
