REMARK  0 active torsions:
REMARK  status: ('A' for Active; 'I' for Inactive)
ROOT
ATOM      1  N1  VFB d   1     -38.050  33.892   5.334  0.00  0.00    -0.060 NA
ATOM      2  CAB VFB d   1     -39.303  31.698   5.499  0.00  0.00    -0.052 A 
ATOM      3  CAC VFB d   1     -39.153  30.697   7.698  0.00  0.00    -0.081 A 
ATOM      4  CAD VFB d   1     -38.554  32.773   5.975  0.00  0.00     0.105 A 
ATOM      5  CAE VFB d   1     -38.416  31.778   8.178  0.00  0.00    -0.052 A 
ATOM      6  CAF VFB d   1     -36.164  35.664   7.614  0.00  0.00     0.100 A 
ATOM      7  CAG VFB d   1     -37.296  34.609   6.199  0.00  0.00     0.729 A 
ATOM      8  NAH VFB d   1     -36.545  35.693   6.309  0.00  0.00    -0.180 N 
ATOM      9  NAI VFB d   1     -36.598  34.655   8.334  0.00  0.00    -0.147 NA
ATOM     10  CAJ VFB d   1     -39.586  30.656   6.373  0.00  0.00    -0.081 A 
ATOM     11  CAK VFB d   1     -38.111  32.807   7.297  0.00  0.00     0.106 A 
ATOM     12  NAL VFB d   1     -37.343  33.944   7.419  0.00  0.00    -0.058 N 
ATOM     13  H1  VFB d   1     -39.655  31.676   4.474  0.00  0.00     0.087 H 
ATOM     14  H2  VFB d   1     -39.393  29.876   8.364  0.00  0.00     0.083 H 
ATOM     15  H3  VFB d   1     -38.090  31.814   9.211  0.00  0.00     0.087 H 
ATOM     16  H4  VFB d   1     -35.530  36.440   8.041  0.00  0.00     0.147 H 
ATOM     17  H5  VFB d   1     -36.308  36.387   5.585  0.00  0.00     0.185 HD
ATOM     18  H6  VFB d   1     -40.151  29.800   6.021  0.00  0.00     0.083 H 
ENDROOT
TORSDOF 0
