REMARK  5 active torsions:
REMARK  status: ('A' for Active; 'I' for Inactive)
REMARK    1  A    between atoms: N_12  and  O11_1 
REMARK    2  A    between atoms: C7_3  and  C8_2 
REMARK    3  A    between atoms: C7_3  and  C2_4 
REMARK    4  A    between atoms: C3_6  and  O10_5 
REMARK    5  A    between atoms: C5_8  and  O12_9 
ROOT
ATOM      1  C2  ODO d   1     -37.516  33.953   7.749  0.00  0.00     0.024 A 
ATOM      2  C3  ODO d   1     -37.658  34.081   6.345  0.00  0.00     0.080 A 
ATOM      3  C4  ODO d   1     -38.362  33.136   5.611  0.00  0.00    -0.018 A 
ATOM      4  C5  ODO d   1     -38.938  32.049   6.257  0.00  0.00     0.068 A 
ATOM      5  C6  ODO d   1     -38.850  31.928   7.635  0.00  0.00    -0.050 A 
ATOM      6  C1  ODO d   1     -38.155  32.874   8.367  0.00  0.00    -0.066 A 
ATOM      7  H6  ODO d   1     -38.462  33.246   4.537  0.00  0.00     0.092 H 
ATOM      8  H8  ODO d   1     -39.325  31.094   8.138  0.00  0.00     0.087 H 
ATOM      9  H9  ODO d   1     -38.105  32.776   9.445  0.00  0.00     0.085 H 
ENDROOT
BRANCH   1  10
ATOM     10  C7  ODO d   1     -36.573  34.794   8.521  0.00  0.00     0.070 C 
ATOM     11  N   ODO d   1     -36.050  34.218   9.541  0.00  0.00    -0.141 NA
BRANCH  10  12
ATOM     12  C8  ODO d   1     -36.308  36.221   8.120  0.00  0.00    -0.033 C 
ATOM     13  H2  ODO d   1     -35.584  36.669   8.816  0.00  0.00     0.035 H 
ATOM     14  H3  ODO d   1     -37.248  36.791   8.152  0.00  0.00     0.035 H 
ATOM     15  H4  ODO d   1     -35.899  36.245   7.099  0.00  0.00     0.035 H 
ENDBRANCH  10  12
BRANCH  11  16
ATOM     16  O11 ODO d   1     -35.163  35.047  10.252  0.00  0.00    -0.266 OA
ATOM     17  H1  ODO d   1     -34.809  34.569  10.992  0.00  0.00     0.247 HD
ENDBRANCH  11  16
ENDBRANCH   1  10
BRANCH   2  18
ATOM     18  O10 ODO d   1     -37.138  35.129   5.655  0.00  0.00    -0.360 OA
ATOM     19  H5  ODO d   1     -37.340  35.031   4.732  0.00  0.00     0.217 HD
ENDBRANCH   2  18
BRANCH   4  20
ATOM     20  O12 ODO d   1     -39.550  31.072   5.522  0.00  0.00    -0.361 OA
ATOM     21  H7  ODO d   1     -39.890  30.404   6.106  0.00  0.00     0.217 HD
ENDBRANCH   4  20
TORSDOF 5
