REMARK  3 active torsions:
REMARK  status: ('A' for Active; 'I' for Inactive)
REMARK    1  A    between atoms: C_1  and  C1_4 
REMARK       I    between atoms: N2_8  and  C_1 
REMARK    2  A    between atoms: C9_15  and  N2_8 
REMARK    3  A    between atoms: C9_15  and  C10_16 
ROOT
ATOM      1  N   ODH d   1     -37.033  35.130   5.815  0.00  0.00    -0.257 NA
ATOM      2  C1  ODH d   1     -39.190  32.182   5.539  0.00  0.00     0.034 A 
ATOM      3  N1  ODH d   1     -37.067  34.234   8.489  0.00  0.00    -0.257 NA
ATOM      4  C2  ODH d   1     -38.492  33.322   5.197  0.00  0.00    -0.038 A 
ATOM      5  C3  ODH d   1     -37.767  34.032   6.183  0.00  0.00     0.086 A 
ATOM      6  C4  ODH d   1     -36.347  35.725   6.778  0.00  0.00     0.020 A 
ATOM      7  C5  ODH d   1     -36.372  35.290   8.099  0.00  0.00     0.020 A 
ATOM      8  C6  ODH d   1     -37.774  33.574   7.515  0.00  0.00     0.085 A 
ATOM      9  C7  ODH d   1     -38.489  32.397   7.830  0.00  0.00    -0.052 A 
ATOM     10  C8  ODH d   1     -39.173  31.721   6.861  0.00  0.00    -0.065 A 
ATOM     11  H1  ODH d   1     -38.499  33.674   4.172  0.00  0.00     0.088 H 
ATOM     12  H3  ODH d   1     -35.740  36.587   6.527  0.00  0.00     0.117 H 
ATOM     13  H4  ODH d   1     -35.799  35.838   8.838  0.00  0.00     0.117 H 
ATOM     14  H5  ODH d   1     -38.495  32.028   8.849  0.00  0.00     0.087 H 
ATOM     15  H6  ODH d   1     -39.710  30.815   7.119  0.00  0.00     0.085 H 
ENDROOT
BRANCH   2  16
ATOM     16  C   ODH d   1     -39.999  31.459   4.505  0.00  0.00     0.252 C 
ATOM     17  O1  ODH d   1     -40.892  30.675   4.832  0.00  0.00    -0.268 OA
ATOM     18  N2  ODH d   1     -39.705  31.719   3.225  0.00  0.00    -0.351 N 
ATOM     19  H2  ODH d   1     -38.920  32.301   3.013  0.00  0.00     0.163 HD
BRANCH  18  20
ATOM     20  C9  ODH d   1     -40.497  31.178   2.140  0.00  0.00     0.040 C 
ATOM     21  H7  ODH d   1     -41.213  30.450   2.549  0.00  0.00     0.074 H 
ATOM     22  H8  ODH d   1     -39.829  30.674   1.426  0.00  0.00     0.074 H 
BRANCH  20  23
ATOM     23  C10 ODH d   1     -41.246  32.244   1.430  0.00  0.00     0.070 A 
ATOM     24  O   ODH d   1     -41.842  33.203   2.198  0.00  0.00    -0.325 OA
ATOM     25  C11 ODH d   1     -42.443  34.071   1.327  0.00  0.00     0.019 A 
ATOM     26  C12 ODH d   1     -42.247  33.684   0.077  0.00  0.00    -0.059 A 
ATOM     27  H9  ODH d   1     -43.004  34.956   1.622  0.00  0.00     0.123 H 
ATOM     28  C13 ODH d   1     -41.475  32.500   0.135  0.00  0.00    -0.051 A 
ATOM     29  H10 ODH d   1     -42.610  34.181  -0.822  0.00  0.00     0.086 H 
ATOM     30  H11 ODH d   1     -41.132  31.909  -0.713  0.00  0.00     0.087 H 
ENDBRANCH  20  23
ENDBRANCH  18  20
ENDBRANCH   2  16
TORSDOF 3
