REMARK  5 active torsions:
REMARK  status: ('A' for Active; 'I' for Inactive)
REMARK       I    between atoms: C_2  and  N3_3 
REMARK       I    between atoms: C_2  and  N_8 
REMARK    1  A    between atoms: N3_3  and  C9_4 
REMARK    2  A    between atoms: C9_4  and  C12_5 
REMARK    3  A    between atoms: C9_4  and  C11_6 
REMARK    4  A    between atoms: C9_4  and  C10_7 
REMARK    5  A    between atoms: N_8  and  C1_9 
ROOT
ATOM      1  O   Z0O d   1     -40.017  31.701   3.265  0.00  0.00    -0.247 OA
ATOM      2  C   Z0O d   1     -40.300  30.804   4.061  0.00  0.00     0.321 C 
ATOM      3  N3  Z0O d   1     -41.022  29.692   3.758  0.00  0.00    -0.335 N 
ATOM      4  N   Z0O d   1     -39.927  30.800   5.386  0.00  0.00    -0.309 N 
ATOM      5  H1  Z0O d   1     -41.179  29.048   4.507  0.00  0.00     0.165 HD
ATOM      6  H11 Z0O d   1     -40.258  30.023   5.921  0.00  0.00     0.170 HD
ENDROOT
BRANCH   3   7
ATOM      7  C9  Z0O d   1     -41.604  29.325   2.443  0.00  0.00     0.023 C 
BRANCH   7   8
ATOM      8  C12 Z0O d   1     -42.385  28.038   2.664  0.00  0.00    -0.054 C 
ATOM      9  H2  Z0O d   1     -42.841  27.718   1.715  0.00  0.00     0.030 H 
ATOM     10  H3  Z0O d   1     -43.175  28.212   3.410  0.00  0.00     0.030 H 
ATOM     11  H4  Z0O d   1     -41.704  27.254   3.026  0.00  0.00     0.030 H 
ENDBRANCH   7   8
BRANCH   7  12
ATOM     12  C11 Z0O d   1     -42.547  30.412   1.943  0.00  0.00    -0.054 C 
ATOM     13  H5  Z0O d   1     -42.964  30.116   0.969  0.00  0.00     0.030 H 
ATOM     14  H6  Z0O d   1     -41.993  31.356   1.833  0.00  0.00     0.030 H 
ATOM     15  H7  Z0O d   1     -43.365  30.549   2.666  0.00  0.00     0.030 H 
ENDBRANCH   7  12
BRANCH   7  16
ATOM     16  C10 Z0O d   1     -40.505  29.083   1.419  0.00  0.00    -0.054 C 
ATOM     17  H8  Z0O d   1     -40.957  28.813   0.453  0.00  0.00     0.030 H 
ATOM     18  H9  Z0O d   1     -39.857  28.263   1.763  0.00  0.00     0.030 H 
ATOM     19  H10 Z0O d   1     -39.906  29.998   1.300  0.00  0.00     0.030 H 
ENDBRANCH   7  16
ENDBRANCH   3   7
BRANCH   4  20
ATOM     20  C1  Z0O d   1     -39.140  31.739   6.104  0.00  0.00     0.038 A 
ATOM     21  C8  Z0O d   1     -38.939  31.476   7.462  0.00  0.00    -0.055 A 
ATOM     22  C7  Z0O d   1     -38.232  32.343   8.247  0.00  0.00    -0.051 A 
ATOM     23  H12 Z0O d   1     -39.349  30.573   7.898  0.00  0.00     0.087 H 
ATOM     24  C6  Z0O d   1     -37.678  33.520   7.696  0.00  0.00     0.085 A 
ATOM     25  H13 Z0O d   1     -38.095  32.126   9.300  0.00  0.00     0.087 H 
ATOM     26  C3  Z0O d   1     -37.856  33.783   6.321  0.00  0.00     0.087 A 
ATOM     27  N2  Z0O d   1     -36.945  34.371   8.487  0.00  0.00    -0.257 NA
ATOM     28  C2  Z0O d   1     -38.600  32.879   5.527  0.00  0.00    -0.027 A 
ATOM     29  N1  Z0O d   1     -37.286  34.881   5.730  0.00  0.00    -0.257 NA
ATOM     30  H14 Z0O d   1     -38.748  33.077   4.471  0.00  0.00     0.090 H 
ATOM     31  C4  Z0O d   1     -36.574  35.668   6.522  0.00  0.00     0.020 A 
ATOM     32  C5  Z0O d   1     -36.414  35.422   7.883  0.00  0.00     0.020 A 
ATOM     33  H16 Z0O d   1     -36.096  36.541   6.093  0.00  0.00     0.117 H 
ATOM     34  H15 Z0O d   1     -35.830  36.120   8.472  0.00  0.00     0.117 H 
ENDBRANCH   4  20
TORSDOF 5
