REMARK  1 active torsions:
REMARK  status: ('A' for Active; 'I' for Inactive)
REMARK    1  A    between atoms: C6_6  and  C11_11 
ROOT
ATOM      1  N1  CWS d   1     -37.850  34.517   5.043  0.00  0.00    -0.241 NA
ATOM      2  C2  CWS d   1     -38.602  33.471   4.720  0.00  0.00     0.089 A 
ATOM      3  N3  CWS d   1     -38.900  32.398   5.458  0.00  0.00    -0.224 NA
ATOM      4  C4  CWS d   1     -38.389  32.374   6.737  0.00  0.00     0.135 A 
ATOM      5  C5  CWS d   1     -36.954  33.538   8.528  0.00  0.00    -0.061 A 
ATOM      6  C6  CWS d   1     -36.137  34.590   8.880  0.00  0.00    -0.061 A 
ATOM      7  C7  CWS d   1     -35.920  35.603   7.944  0.00  0.00    -0.075 A 
ATOM      8  C8  CWS d   1     -36.467  35.562   6.695  0.00  0.00    -0.054 A 
ATOM      9  C4A CWS d   1     -37.555  33.448   7.239  0.00  0.00     0.039 A 
ATOM     10  C8A CWS d   1     -37.311  34.495   6.307  0.00  0.00     0.072 A 
ATOM     11  NA4 CWS d   1     -38.708  31.308   7.503  0.00  0.00    -0.383 N 
ATOM     12  H1  CWS d   1     -39.031  33.490   3.725  0.00  0.00     0.146 H 
ATOM     13  H2  CWS d   1     -37.145  32.755   9.253  0.00  0.00     0.085 H 
ATOM     14  H3  CWS d   1     -35.298  36.447   8.218  0.00  0.00     0.084 H 
ATOM     15  H4  CWS d   1     -36.252  36.357   5.991  0.00  0.00     0.087 H 
ATOM     16  H8  CWS d   1     -38.352  31.241   8.467  0.00  0.00     0.157 HD
ATOM     17  H9  CWS d   1     -39.308  30.562   7.123  0.00  0.00     0.157 HD
ENDROOT
BRANCH   6  18
ATOM     18  C11 CWS d   1     -35.428  34.614  10.214  0.00  0.00    -0.051 C 
ATOM     19  H5  CWS d   1     -35.730  33.737  10.805  0.00  0.00     0.033 H 
ATOM     20  H6  CWS d   1     -35.698  35.532  10.756  0.00  0.00     0.033 H 
ATOM     21  H7  CWS d   1     -34.340  34.590  10.052  0.00  0.00     0.033 H 
ENDBRANCH   6  18
TORSDOF 1
