REMARK  2 active torsions:
REMARK  status: ('A' for Active; 'I' for Inactive)
REMARK    1  A    between atoms: C1_1  and  C2_2 
REMARK    2  A    between atoms: C12_9  and  C4_11 
ROOT
ATOM      1  C1  H3R d   1     -36.572  34.999   7.740  0.00  0.00     0.053 A 
ATOM      2  C3  H3R d   1     -37.411  33.914   7.721  0.00  0.00    -0.030 A 
ATOM      3  C12 H3R d   1     -37.737  33.699   6.370  0.00  0.00     0.062 A 
ATOM      4  N13 H3R d   1     -37.145  34.619   5.596  0.00  0.00    -0.277 N 
ATOM      5  N3  H3R d   1     -36.437  35.400   6.466  0.00  0.00    -0.179 NA
ATOM      6  H4  H3R d   1     -37.755  33.337   8.578  0.00  0.00     0.090 H 
ATOM      7  H10 H3R d   1     -37.209  34.716   4.573  0.00  0.00     0.189 HD
ENDROOT
BRANCH   3   8
ATOM      8  C4  H3R d   1     -38.552  32.619   5.781  0.00  0.00    -0.008 A 
ATOM      9  C7  H3R d   1     -39.219  32.808   4.570  0.00  0.00    -0.071 A 
ATOM     10  C9  H3R d   1     -40.010  31.801   4.038  0.00  0.00    -0.082 A 
ATOM     11  H5  H3R d   1     -39.118  33.749   4.041  0.00  0.00     0.084 H 
ATOM     12  C11 H3R d   1     -40.154  30.601   4.709  0.00  0.00    -0.083 A 
ATOM     13  H7  H3R d   1     -40.517  31.955   3.092  0.00  0.00     0.083 H 
ATOM     14  C10 H3R d   1     -39.493  30.399   5.907  0.00  0.00    -0.082 A 
ATOM     15  H9  H3R d   1     -40.783  29.820   4.297  0.00  0.00     0.083 H 
ATOM     16  C8  H3R d   1     -38.694  31.398   6.441  0.00  0.00    -0.071 A 
ATOM     17  H8  H3R d   1     -39.600  29.456   6.430  0.00  0.00     0.083 H 
ATOM     18  H6  H3R d   1     -38.176  31.229   7.378  0.00  0.00     0.084 H 
ENDBRANCH   3   8
BRANCH   1  19
ATOM     19  C2  H3R d   1     -35.850  35.671   8.863  0.00  0.00    -0.034 C 
ATOM     20  H1  H3R d   1     -36.109  35.179   9.812  0.00  0.00     0.035 H 
ATOM     21  H2  H3R d   1     -36.145  36.730   8.907  0.00  0.00     0.035 H 
ATOM     22  H3  H3R d   1     -34.765  35.599   8.697  0.00  0.00     0.035 H 
ENDBRANCH   1  19
TORSDOF 2
