REMARK  2 active torsions:
REMARK  status: ('A' for Active; 'I' for Inactive)
REMARK    1  A    between atoms: C0_1  and  N1_3 
REMARK    2  A    between atoms: C4_6  and  C5_7 
ROOT
ATOM      1  C3  P3J d   1     -38.441  31.216   7.938  0.00  0.00     0.014 A 
ATOM      2  C4  P3J d   1     -38.354  31.979   6.781  0.00  0.00     0.012 A 
ATOM      3  N6  P3J d   1     -39.113  30.058   8.020  0.00  0.00    -0.272 NA
ATOM      4  C7  P3J d   1     -39.731  29.624   6.916  0.00  0.00     0.002 A 
ATOM      5  C8  P3J d   1     -39.706  30.306   5.713  0.00  0.00    -0.065 A 
ATOM      6  C9  P3J d   1     -39.004  31.497   5.650  0.00  0.00    -0.068 A 
ATOM      7  H5  P3J d   1     -37.936  31.577   8.827  0.00  0.00     0.116 H 
ATOM      8  H6  P3J d   1     -40.279  28.690   6.967  0.00  0.00     0.114 H 
ATOM      9  H7  P3J d   1     -40.223  29.918   4.843  0.00  0.00     0.085 H 
ATOM     10  H8  P3J d   1     -38.961  32.053   4.721  0.00  0.00     0.085 H 
ENDROOT
BRANCH   2  11
ATOM     11  C5  P3J d   1     -37.611  33.253   6.748  0.00  0.00     0.092 A 
ATOM     12  C1  P3J d   1     -37.016  33.973   7.760  0.00  0.00    -0.009 A 
ATOM     13  C0  P3J d   1     -36.403  35.095   7.175  0.00  0.00     0.117 A 
ATOM     14  H1  P3J d   1     -37.020  33.720   8.819  0.00  0.00     0.093 H 
ATOM     15  N2  P3J d   1     -36.619  35.064   5.816  0.00  0.00    -0.262 N 
ATOM     16  N   P3J d   1     -37.358  33.935   5.610  0.00  0.00    -0.172 NA
ATOM     17  H4  P3J d   1     -36.295  35.742   5.111  0.00  0.00     0.191 HD
BRANCH  13  18
ATOM     18  N1  P3J d   1     -35.733  36.043   7.818  0.00  0.00    -0.384 N 
ATOM     19  H2  P3J d   1     -35.320  36.828   7.294  0.00  0.00     0.157 HD
ATOM     20  H3  P3J d   1     -35.626  35.994   8.841  0.00  0.00     0.157 HD
ENDBRANCH  13  18
ENDBRANCH   2  11
TORSDOF 2
