REMARK  2 active torsions:
REMARK  status: ('A' for Active; 'I' for Inactive)
REMARK    1  A    between atoms: C2_6  and  C1_4 
REMARK    2  A    between atoms: C4_9  and  C8_13 
ROOT
ATOM      1  N   Z2M d   1      47.692  17.151  -9.553  0.00  0.00    -0.278 N 
ATOM      2  N1  Z2M d   1      48.356  16.097 -10.107  0.00  0.00    -0.154 NA
ATOM      3  C2  Z2M d   1      48.185  14.651  -6.804  0.00  0.00     0.015 A 
ATOM      4  N2  Z2M d   1      49.197  13.940  -9.346  0.00  0.00    -0.239 NA
ATOM      5  C3  Z2M d   1      48.035  15.572  -7.870  0.00  0.00     0.051 A 
ATOM      6  C4  Z2M d   1      47.467  16.891  -8.208  0.00  0.00     0.054 A 
ATOM      7  C5  Z2M d   1      48.588  15.121  -9.152  0.00  0.00     0.182 A 
ATOM      8  C6  Z2M d   1      49.301  13.128  -8.286  0.00  0.00     0.005 A 
ATOM      9  C7  Z2M d   1      48.826  13.432  -7.028  0.00  0.00    -0.052 A 
ATOM     10  H2  Z2M d   1      47.403  18.004 -10.053  0.00  0.00     0.189 HD
ATOM     11  H3  Z2M d   1      49.790  12.171  -8.426  0.00  0.00     0.114 H 
ATOM     12  H4  Z2M d   1      48.950  12.726  -6.215  0.00  0.00     0.087 H 
ENDROOT
BRANCH   3  13
ATOM     13  C1  Z2M d   1      47.657  14.911  -5.455  0.00  0.00     0.086 A 
ATOM     14  O   Z2M d   1      47.396  13.820  -4.663  0.00  0.00    -0.322 OA
ATOM     15  C   Z2M d   1      46.963  14.317  -3.454  0.00  0.00     0.019 A 
ATOM     16  C12 Z2M d   1      46.948  15.643  -3.471  0.00  0.00    -0.059 A 
ATOM     17  H1  Z2M d   1      46.673  13.705  -2.601  0.00  0.00     0.123 H 
ATOM     18  C11 Z2M d   1      47.396  16.046  -4.770  0.00  0.00    -0.048 A 
ATOM     19  H9  Z2M d   1      46.652  16.299  -2.654  0.00  0.00     0.086 H 
ATOM     20  H8  Z2M d   1      47.505  17.067  -5.134  0.00  0.00     0.087 H 
ENDBRANCH   3  13
BRANCH   6  21
ATOM     21  C8  Z2M d   1      46.701  17.880  -7.373  0.00  0.00     0.021 A 
ATOM     22  C9  Z2M d   1      45.361  18.397  -7.831  0.00  0.00    -0.093 A 
ATOM     23  C10 Z2M d   1      46.514  19.316  -7.790  0.00  0.00    -0.093 A 
ATOM     24  H6  Z2M d   1      44.307  18.220  -8.040  0.00  0.00     0.078 H 
ATOM     25  H7  Z2M d   1      46.929  20.311  -7.947  0.00  0.00     0.078 H 
ATOM     26  H5  Z2M d   1      46.864  17.645  -6.311  0.00  0.00     0.062 H 
ENDBRANCH   6  21
TORSDOF 2
