REMARK  5 active torsions:
REMARK  status: ('A' for Active; 'I' for Inactive)
REMARK    1  A    between atoms: C6_2  and  C4_3 
REMARK       I    between atoms: C6_2  and  N_13 
REMARK    2  A    between atoms: N_13  and  C7_14 
REMARK    3  A    between atoms: C7_14  and  C8_15 
REMARK    4  A    between atoms: C11_18  and  O_19 
REMARK    5  A    between atoms: O_19  and  C12_20 
ROOT
ATOM      1  O1  RQQ d   1      40.500 -30.536   4.788  0.00  0.00    -0.268 OA
ATOM      2  C6  RQQ d   1      39.810 -31.511   4.488  0.00  0.00     0.252 C 
ATOM      3  N   RQQ d   1      39.649 -31.912   3.220  0.00  0.00    -0.353 N 
ATOM      4  H6  RQQ d   1      38.974 -32.624   3.027  0.00  0.00     0.163 HD
ENDROOT
BRANCH   3   5
ATOM      5  C7  RQQ d   1      40.412 -31.358   2.109  0.00  0.00     0.019 C 
ATOM      6  H7  RQQ d   1      40.976 -30.487   2.474  0.00  0.00     0.071 H 
ATOM      7  H8  RQQ d   1      39.707 -31.038   1.327  0.00  0.00     0.071 H 
BRANCH   5   8
ATOM      8  C8  RQQ d   1      41.386 -32.338   1.502  0.00  0.00    -0.040 A 
ATOM      9  C14 RQQ d   1      41.455 -32.512   0.127  0.00  0.00    -0.073 A 
ATOM     10  C13 RQQ d   1      42.309 -33.444  -0.438  0.00  0.00    -0.050 A 
ATOM     11  H9  RQQ d   1      40.828 -31.906  -0.517  0.00  0.00     0.084 H 
ATOM     12  C11 RQQ d   1      43.120 -34.221   0.383  0.00  0.00     0.068 A 
ATOM     13  H10 RQQ d   1      42.346 -33.568  -1.514  0.00  0.00     0.087 H 
ATOM     14  C10 RQQ d   1      43.084 -34.037   1.757  0.00  0.00    -0.050 A 
ATOM     15  C9  RQQ d   1      42.220 -33.104   2.304  0.00  0.00    -0.073 A 
ATOM     16  H14 RQQ d   1      43.731 -34.622   2.401  0.00  0.00     0.087 H 
ATOM     17  H15 RQQ d   1      42.194 -32.969   3.379  0.00  0.00     0.084 H 
BRANCH  12  18
ATOM     18  O   RQQ d   1      43.980 -35.227   0.007  0.00  0.00    -0.356 OA
BRANCH  18  19
ATOM     19  C12 RQQ d   1      44.107 -35.531  -1.385  0.00  0.00     0.010 C 
ATOM     20  H11 RQQ d   1      44.827 -36.352  -1.517  0.00  0.00     0.066 H 
ATOM     21  H12 RQQ d   1      44.464 -34.641  -1.924  0.00  0.00     0.066 H 
ATOM     22  H13 RQQ d   1      43.128 -35.834  -1.785  0.00  0.00     0.066 H 
ENDBRANCH  18  19
ENDBRANCH  12  18
ENDBRANCH   5   8
ENDBRANCH   3   5
BRANCH   2  23
ATOM     23  C4  RQQ d   1      39.111 -32.315   5.545  0.00  0.00     0.034 A 
ATOM     24  C3  RQQ d   1      39.310 -31.981   6.889  0.00  0.00    -0.065 A 
ATOM     25  C2  RQQ d   1      38.654 -32.647   7.883  0.00  0.00    -0.052 A 
ATOM     26  H1  RQQ d   1      39.996 -31.181   7.144  0.00  0.00     0.085 H 
ATOM     27  C1  RQQ d   1      37.759 -33.693   7.576  0.00  0.00     0.085 A 
ATOM     28  H2  RQQ d   1      38.822 -32.370   8.917  0.00  0.00     0.087 H 
ATOM     29  C   RQQ d   1      37.564 -34.047   6.226  0.00  0.00     0.086 A 
ATOM     30  N1  RQQ d   1      37.072 -34.326   8.577  0.00  0.00    -0.257 NA
ATOM     31  C5  RQQ d   1      38.258 -33.347   5.213  0.00  0.00    -0.038 A 
ATOM     32  N2  RQQ d   1      36.684 -35.038   5.876  0.00  0.00    -0.257 NA
ATOM     33  H3  RQQ d   1      38.120 -33.622   4.173  0.00  0.00     0.088 H 
ATOM     34  C16 RQQ d   1      36.043 -35.630   6.870  0.00  0.00     0.020 A 
ATOM     35  C15 RQQ d   1      36.233 -35.277   8.202  0.00  0.00     0.020 A 
ATOM     36  H4  RQQ d   1      35.341 -36.422   6.637  0.00  0.00     0.117 H 
ATOM     37  H5  RQQ d   1      35.670 -35.803   8.964  0.00  0.00     0.117 H 
ENDBRANCH   2  23
TORSDOF 5
