REMARK  1 active torsions:
REMARK  status: ('A' for Active; 'I' for Inactive)
REMARK    1  A    between atoms: C9_9  and  N9_15 
ROOT
ATOM      1  C1  THA d   1     131.983 113.393  41.663  0.00  0.00    -0.069 A 
ATOM      2  C2  THA d   1     131.364 113.073  42.839  0.00  0.00    -0.082 A 
ATOM      3  C3  THA d   1     131.196 114.029  43.859  0.00  0.00    -0.081 A 
ATOM      4  C4  THA d   1     131.668 115.318  43.693  0.00  0.00    -0.054 A 
ATOM      5  C5  THA d   1     133.855 118.839  41.176  0.00  0.00    -0.054 C 
ATOM      6  C6  THA d   1     134.956 119.153  40.164  0.00  0.00    -0.081 C 
ATOM      7  C7  THA d   1     134.556 118.575  38.811  0.00  0.00    -0.082 C 
ATOM      8  C8  THA d   1     134.299 117.033  38.902  0.00  0.00    -0.069 C 
ATOM      9  C9  THA d   1     133.144 115.175  40.243  0.00  0.00     0.051 A 
ATOM     10  N10 THA d   1     132.768 117.012  42.362  0.00  0.00    -0.247 NA
ATOM     11  C11 THA d   1     133.388 117.387  41.226  0.00  0.00     0.070 A 
ATOM     12  C12 THA d   1     133.610 116.528  40.127  0.00  0.00     0.020 A 
ATOM     13  C13 THA d   1     132.482 114.734  41.448  0.00  0.00     0.020 A 
ATOM     14  C14 THA d   1     132.327 115.694  42.470  0.00  0.00     0.070 A 
ATOM     15  H1  THA d   1     132.100 112.641  40.891  0.00  0.00     0.085 H 
ATOM     16  H2  THA d   1     130.996 112.065  42.989  0.00  0.00     0.083 H 
ATOM     17  H3  THA d   1     130.694 113.753  44.779  0.00  0.00     0.083 H 
ATOM     18  H4  THA d   1     131.542 116.047  44.486  0.00  0.00     0.087 H 
ATOM     19  H5  THA d   1     133.431 119.602  41.819  0.00  0.00     0.087 H 
ATOM     20  H6  THA d   1     135.870 119.697  40.373  0.00  0.00     0.083 H 
ATOM     21  H7  THA d   1     134.462 119.157  37.902  0.00  0.00     0.083 H 
ATOM     22  H8  THA d   1     134.608 116.361  38.110  0.00  0.00     0.085 H 
ENDROOT
BRANCH   9  23
ATOM     23  N9  THA d   1     133.321 114.260  39.233  0.00  0.00    -0.398 N 
ATOM     24  H9  THA d   1     133.789 114.541  38.360  0.00  0.00     0.156 HD
ATOM     25  H10 THA d   1     132.985 113.293  39.349  0.00  0.00     0.156 HD
ENDBRANCH   9  23
TORSDOF 1
