REMARK  4 active torsions:
REMARK  status: ('A' for Active; 'I' for Inactive)
REMARK    1  A    between atoms: C10_21  and  O1_1 
REMARK    2  A    between atoms: C14_8  and  N2_7 
REMARK    3  A    between atoms: C18_19  and  C8_17 
REMARK    4  A    between atoms: C18_19  and  C10_21 
ROOT
ATOM      1 CL1  HUW d   1       0.103 -32.137 -46.830  0.00  0.00    -0.084 Cl
ATOM      2  C1  HUW d   1      -0.950 -32.767 -48.035  0.00  0.00     0.036 A 
ATOM      3  N1  HUW d   1      -0.718 -33.894 -51.449  0.00  0.00    -0.252 NA
ATOM      4  C3  HUW d   1      -1.259 -33.594 -50.258  0.00  0.00     0.071 A 
ATOM      5  C4  HUW d   1      -1.489 -34.402 -52.489  0.00  0.00     0.044 A 
ATOM      6  C14 HUW d   1      -3.385 -34.311 -51.149  0.00  0.00     0.047 A 
ATOM      7  C2  HUW d   1      -0.421 -33.093 -49.274  0.00  0.00    -0.033 A 
ATOM      8  C17 HUW d   1      -2.307 -32.942 -47.784  0.00  0.00    -0.061 A 
ATOM      9  C15 HUW d   1      -2.623 -33.783 -50.039  0.00  0.00     0.019 A 
ATOM     10  C5  HUW d   1      -0.705 -34.697 -53.759  0.00  0.00    -0.018 C 
ATOM     11  C13 HUW d   1      -2.816 -34.610 -52.359  0.00  0.00    -0.002 A 
ATOM     12  C6  HUW d   1      -1.465 -35.681 -54.658  0.00  0.00    -0.032 C 
ATOM     13  C7  HUW d   1      -1.523 -37.038 -53.973  0.00  0.00    -0.096 C 
ATOM     14  C12 HUW d   1      -2.875 -35.082 -54.845  0.00  0.00    -0.051 C 
ATOM     15  C8  HUW d   1      -2.596 -37.488 -53.326  0.00  0.00    -0.081 C 
ATOM     16  C9  HUW d   1      -3.879 -36.678 -53.208  0.00  0.00    -0.037 C 
ATOM     17  C11 HUW d   1      -3.640 -35.181 -53.509  0.00  0.00    -0.020 C 
ATOM     18  C16 HUW d   1      -3.149 -33.447 -48.779  0.00  0.00    -0.067 A 
ATOM     19  H4  HUW d   1       0.636 -32.958 -49.471  0.00  0.00     0.089 H 
ATOM     20  H5  HUW d   1      -2.713 -32.686 -46.812  0.00  0.00     0.086 H 
ATOM     21  H6  HUW d   1       0.267 -35.135 -53.488  0.00  0.00     0.043 H 
ATOM     22  H7  HUW d   1      -0.544 -33.758 -54.309  0.00  0.00     0.043 H 
ATOM     23  H8  HUW d   1      -0.964 -35.782 -55.632  0.00  0.00     0.046 H 
ATOM     24  H9  HUW d   1      -0.640 -37.675 -54.014  0.00  0.00     0.077 H 
ATOM     25  H10 HUW d   1      -3.415 -35.643 -55.622  0.00  0.00     0.035 H 
ATOM     26  H11 HUW d   1      -2.791 -34.027 -55.145  0.00  0.00     0.035 H 
ATOM     27  H12 HUW d   1      -4.271 -36.778 -52.185  0.00  0.00     0.040 H 
ATOM     28  H13 HUW d   1      -4.616 -37.072 -53.923  0.00  0.00     0.040 H 
ATOM     29  H16 HUW d   1      -4.597 -34.645 -53.587  0.00  0.00     0.048 H 
ATOM     30  H19 HUW d   1      -4.206 -33.579 -48.580  0.00  0.00     0.085 H 
ENDROOT
BRANCH  15  31
ATOM     31  C18 HUW d   1      -2.601 -38.849 -52.667  0.00  0.00    -0.025 C 
ATOM     32  H14 HUW d   1      -3.522 -39.384 -52.941  0.00  0.00     0.042 H 
ATOM     33  H15 HUW d   1      -2.559 -38.726 -51.575  0.00  0.00     0.042 H 
BRANCH  31  34
ATOM     34  C10 HUW d   1      -1.378 -39.661 -53.138  0.00  0.00     0.020 C 
ATOM     35  H17 HUW d   1      -0.468 -39.058 -53.000  0.00  0.00     0.074 H 
ATOM     36  H18 HUW d   1      -1.302 -40.581 -52.540  0.00  0.00     0.074 H 
BRANCH  34  37
ATOM     37  O1  HUW d   1      -1.509 -40.007 -54.522  0.00  0.00    -0.401 OA
ATOM     38  H1  HUW d   1      -0.749 -40.506 -54.796  0.00  0.00     0.209 HD
ENDBRANCH  34  37
ENDBRANCH  31  34
ENDBRANCH  15  31
BRANCH   6  39
ATOM     39  N2  HUW d   1      -4.722 -34.497 -50.943  0.00  0.00    -0.398 N 
ATOM     40  H2  HUW d   1      -5.139 -34.269 -50.029  0.00  0.00     0.156 HD
ATOM     41  H3  HUW d   1      -5.314 -34.865 -51.701  0.00  0.00     0.156 HD
ENDBRANCH   6  39
TORSDOF 4
