REMARK WARNING: 32 MAX_TORS EXCEEDED!!!
REMARK  56 active torsions:
REMARK  status: ('A' for Active; 'I' for Inactive)
REMARK    1  A    between atoms: CA_2  and  N_1 
REMARK    2  A    between atoms: C_3  and  CA_2 
REMARK    3  A    between atoms: CA_2  and  CB_5 
REMARK       I    between atoms: N_10  and  C_3 
REMARK    4  A    between atoms: CB_5  and  CG_6 
REMARK    5  A    between atoms: CG_6  and  CD_7 
REMARK    6  A    between atoms: CD_7  and  CE_8 
REMARK    7  A    between atoms: CE_8  and  NZ_9 
REMARK    8  A    between atoms: CA_11  and  N_10 
REMARK    9  A    between atoms: C_12  and  CA_11 
REMARK   10  A    between atoms: CA_11  and  CB_14 
REMARK       I    between atoms: N_19  and  C_12 
REMARK   11  A    between atoms: CB_14  and  CG_15 
REMARK   12  A    between atoms: CG_15  and  CD_16 
REMARK   13  A    between atoms: CD_16  and  CE_17 
REMARK   14  A    between atoms: CE_17  and  NZ_18 
REMARK   15  A    between atoms: CA_20  and  N_19 
REMARK   16  A    between atoms: C_21  and  CA_20 
REMARK   17  A    between atoms: CA_20  and  CB_23 
REMARK       I    between atoms: N_30  and  C_21 
REMARK   18  A    between atoms: CB_23  and  CG_24 
REMARK   19  A    between atoms: CG_24  and  CD_25 
REMARK   20  A    between atoms: CD_25  and  NE_26 
REMARK       I    between atoms: NE_26  and  CZ_27 
REMARK       I    between atoms: CZ_27  and  NH1_28 
REMARK       I    between atoms: CZ_27  and  NH2_29 
REMARK   21  A    between atoms: CA_31  and  N_30 
REMARK   22  A    between atoms: C_32  and  CA_31 
REMARK   23  A    between atoms: CA_31  and  CB_34 
REMARK       I    between atoms: N_42  and  C_32 
REMARK   24  A    between atoms: CB_34  and  CG_35 
REMARK   25  A    between atoms: CZ_40  and  OH_41 
REMARK   26  A    between atoms: CA_43  and  N_42 
REMARK   27  A    between atoms: C_44  and  CA_43 
REMARK   28  A    between atoms: CA_43  and  CB_46 
REMARK       I    between atoms: N_48  and  C_44 
REMARK   29  A    between atoms: CB_46  and  OG_47 
REMARK   30  A    between atoms: CA_49  and  N_48 
REMARK   31  A    between atoms: C_50  and  CA_49 
REMARK   32  A    between atoms: CA_49  and  CB_52 
REMARK       I    between atoms: N_60  and  C_50 
REMARK   33  A    between atoms: CB_52  and  CG_53 
REMARK   34  A    between atoms: CG_53  and  CD_54 
REMARK   35  A    between atoms: CD_54  and  NE_55 
REMARK       I    between atoms: NE_55  and  CZ_56 
REMARK       I    between atoms: CZ_56  and  NH1_57 
REMARK       I    between atoms: CZ_56  and  NH2_58 
REMARK   36  A    between atoms: CA_62  and  N_60 
REMARK   37  A    between atoms: CA_62  and  CB1_67 
REMARK   38  A    between atoms: CA_69  and  CB_72 
REMARK   39  A    between atoms: CB_72  and  CG_73 
REMARK   40  A    between atoms: CG_73  and  CD_74 
REMARK       I    between atoms: CD_74  and  NE2_76 
REMARK   41  A    between atoms: CA_78  and  CB_81 
REMARK   42  A    between atoms: CB_81  and  CG_82 
REMARK   43  A    between atoms: CG_82  and  CD1_83 
REMARK   44  A    between atoms: CG_82  and  CD2_84 
REMARK   45  A    between atoms: CA_86  and  CB_89 
REMARK   46  A    between atoms: CB_89  and  CG_90 
REMARK   47  A    between atoms: CG_90  and  CD1_91 
REMARK   48  A    between atoms: CG_90  and  CD2_92 
REMARK   49  A    between atoms: CA_96  and  C_93 
REMARK       I    between atoms: C_93  and  N_102 
REMARK   50  A    between atoms: CA_96  and  CB1_101 
REMARK   51  A    between atoms: N_102  and  CA_103 
REMARK   52  A    between atoms: CA_103  and  C_104 
REMARK   53  A    between atoms: CA_103  and  CB_106 
REMARK       I    between atoms: C_104  and  N_110 
REMARK   54  A    between atoms: CB_106  and  CG_107 
REMARK   55  A    between atoms: CG_107  and  CD1_108 
REMARK   56  A    between atoms: CG_107  and  CD2_109 
ROOT
ATOM      1  CA  ARG d   1     -15.156  -5.957   0.599  0.00  0.00     0.089 C 
ATOM      2  H57 ARG d   1     -15.331  -6.800  -0.086  0.00  0.00     0.087 H 
ENDROOT
BRANCH   1   3
ATOM      3  N   ARG d   1     -16.274  -5.027   0.494  0.00  0.00    -0.346 N 
ATOM      4  C   SER d   1     -17.460  -5.297   1.029  0.00  0.00     0.243 C 
ATOM      5  O   SER d   1     -17.762  -6.410   1.470  0.00  0.00    -0.271 OA
ATOM      6  H56 ARG d   1     -16.145  -4.163   0.007  0.00  0.00     0.163 HD
BRANCH   4   7
ATOM      7  CA  SER d   1     -18.460  -4.139   1.055  0.00  0.00     0.109 C 
ATOM      8  H52 SER d   1     -18.437  -3.635   0.077  0.00  0.00     0.090 H 
BRANCH   7   9
ATOM      9  N   SER d   1     -19.791  -4.646   1.281  0.00  0.00    -0.344 N 
ATOM     10  C   TYR d   1     -20.491  -5.221   0.309  0.00  0.00     0.241 C 
ATOM     11  O   TYR d   1     -20.053  -5.380  -0.831  0.00  0.00    -0.271 OA
ATOM     12  H51 SER d   1     -20.197  -4.563   2.191  0.00  0.00     0.163 HD
BRANCH  10  13
ATOM     13  CA  TYR d   1     -21.883  -5.740   0.693  0.00  0.00     0.093 C 
ATOM     14  H43 TYR d   1     -22.193  -5.288   1.647  0.00  0.00     0.088 H 
BRANCH  13  15
ATOM     15  N   TYR d   1     -22.881  -5.376  -0.340  0.00  0.00    -0.346 N 
ATOM     16  C   ARG d   1     -24.085  -4.872  -0.042  0.00  0.00     0.241 C 
ATOM     17  O   ARG d   1     -24.514  -4.814   1.117  0.00  0.00    -0.271 OA
ATOM     18  H42 TYR d   1     -22.645  -5.513  -1.302  0.00  0.00     0.163 HD
BRANCH  16  19
ATOM     19  CA  ARG d   1     -24.978  -4.417  -1.227  0.00  0.00     0.089 C 
ATOM     20  H30 ARG d   1     -24.628  -4.934  -2.133  0.00  0.00     0.087 H 
BRANCH  19  21
ATOM     21  N   ARG d   1     -26.363  -4.794  -0.982  0.00  0.00    -0.346 N 
ATOM     22  C   LYS d   1     -27.067  -5.532  -1.845  0.00  0.00     0.241 C 
ATOM     23  O   LYS d   1     -26.681  -5.834  -2.985  0.00  0.00    -0.271 OA
ATOM     24  H29 ARG d   1     -26.803  -4.489  -0.137  0.00  0.00     0.163 HD
BRANCH  22  25
ATOM     25  CA  LYS d   1     -28.410  -6.006  -1.352  0.00  0.00     0.089 C 
ATOM     26  H17 LYS d   1     -28.594  -5.603  -0.345  0.00  0.00     0.087 H 
BRANCH  25  27
ATOM     27  N   LYS d   1     -29.448  -5.533  -2.243  0.00  0.00    -0.346 N 
ATOM     28  C   LYS d   1     -30.180  -4.455  -1.957  0.00  0.00     0.248 C 
ATOM     29  O   LYS d   1     -29.987  -3.727  -0.974  0.00  0.00    -0.271 OA
ATOM     30  H16 LYS d   1     -29.621  -6.027  -3.095  0.00  0.00     0.163 HD
BRANCH  28  31
ATOM     31  CA  LYS d   1     -31.310  -4.143  -2.912  0.00  0.00     0.176 C 
ATOM     32  H4  LYS d   1     -31.487  -5.005  -3.571  0.00  0.00     0.099 H 
BRANCH  31  33
ATOM     33  N   LYS d   1     -32.547  -3.881  -2.104  0.00  0.00    -0.067 N 
ATOM     34  H1  LYS d   1     -33.314  -3.670  -2.723  0.00  0.00     0.275 HD
ATOM     35  H2  LYS d   1     -32.387  -3.099  -1.489  0.00  0.00     0.275 HD
ATOM     36  H3  LYS d   1     -32.771  -4.698  -1.558  0.00  0.00     0.275 HD
ENDBRANCH  31  33
BRANCH  31  37
ATOM     37  CB  LYS d   1     -30.918  -2.936  -3.767  0.00  0.00    -0.030 C 
ATOM     38  H5  LYS d   1     -29.957  -3.158  -4.254  0.00  0.00     0.036 H 
ATOM     39  H6  LYS d   1     -30.801  -2.068  -3.102  0.00  0.00     0.036 H 
BRANCH  37  40
ATOM     40  CG  LYS d   1     -31.922  -2.574  -4.845  0.00  0.00    -0.061 C 
ATOM     41  H7  LYS d   1     -32.805  -2.117  -4.375  0.00  0.00     0.033 H 
ATOM     42  H8  LYS d   1     -32.222  -3.488  -5.379  0.00  0.00     0.033 H 
BRANCH  40  43
ATOM     43  CD  LYS d   1     -31.323  -1.588  -5.843  0.00  0.00    -0.043 C 
ATOM     44  H9  LYS d   1     -30.447  -2.052  -6.319  0.00  0.00     0.035 H 
ATOM     45  H10 LYS d   1     -31.010  -0.682  -5.303  0.00  0.00     0.035 H 
BRANCH  43  46
ATOM     46  CE  LYS d   1     -32.323  -1.196  -6.927  0.00  0.00     0.080 C 
ATOM     47  H11 LYS d   1     -31.881  -0.405  -7.551  0.00  0.00     0.075 H 
ATOM     48  H12 LYS d   1     -33.238  -0.817  -6.448  0.00  0.00     0.075 H 
BRANCH  46  49
ATOM     49  NZ  LYS d   1     -32.677  -2.354  -7.794  0.00  0.00    -0.079 N 
ATOM     50  H13 LYS d   1     -33.337  -2.059  -8.496  0.00  0.00     0.274 HD
ATOM     51  H14 LYS d   1     -33.088  -3.082  -7.231  0.00  0.00     0.274 HD
ATOM     52  H15 LYS d   1     -31.845  -2.705  -8.242  0.00  0.00     0.274 HD
ENDBRANCH  46  49
ENDBRANCH  43  46
ENDBRANCH  40  43
ENDBRANCH  37  40
ENDBRANCH  31  37
ENDBRANCH  28  31
ENDBRANCH  25  27
BRANCH  25  53
ATOM     53  CB  LYS d   1     -28.391  -7.532  -1.283  0.00  0.00    -0.038 C 
ATOM     54  H18 LYS d   1     -27.659  -7.827  -0.517  0.00  0.00     0.036 H 
ATOM     55  H19 LYS d   1     -28.069  -7.912  -2.264  0.00  0.00     0.036 H 
BRANCH  53  56
ATOM     56  CG  LYS d   1     -29.715  -8.187  -0.941  0.00  0.00    -0.061 C 
ATOM     57  H20 LYS d   1     -29.572  -9.278  -0.925  0.00  0.00     0.033 H 
ATOM     58  H21 LYS d   1     -30.447  -7.924  -1.719  0.00  0.00     0.033 H 
BRANCH  56  59
ATOM     59  CD  LYS d   1     -30.265  -7.751   0.409  0.00  0.00    -0.043 C 
ATOM     60  H22 LYS d   1     -31.259  -8.200   0.548  0.00  0.00     0.035 H 
ATOM     61  H23 LYS d   1     -30.353  -6.655   0.418  0.00  0.00     0.035 H 
BRANCH  59  62
ATOM     62  CE  LYS d   1     -29.373  -8.178   1.553  0.00  0.00     0.080 C 
ATOM     63  H24 LYS d   1     -28.481  -7.534   1.580  0.00  0.00     0.075 H 
ATOM     64  H25 LYS d   1     -29.066  -9.224   1.405  0.00  0.00     0.075 H 
BRANCH  62  65
ATOM     65  NZ  LYS d   1     -30.109  -8.057   2.844  0.00  0.00    -0.079 N 
ATOM     66  H26 LYS d   1     -29.508  -8.343   3.601  0.00  0.00     0.274 HD
ATOM     67  H27 LYS d   1     -30.926  -8.647   2.822  0.00  0.00     0.274 HD
ATOM     68  H28 LYS d   1     -30.390  -7.099   2.982  0.00  0.00     0.274 HD
ENDBRANCH  62  65
ENDBRANCH  59  62
ENDBRANCH  56  59
ENDBRANCH  53  56
ENDBRANCH  25  53
ENDBRANCH  22  25
ENDBRANCH  19  21
BRANCH  19  69
ATOM     69  CB  ARG d   1     -24.905  -2.909  -1.482  0.00  0.00    -0.036 C 
ATOM     70  H31 ARG d   1     -25.296  -2.389  -0.595  0.00  0.00     0.036 H 
ATOM     71  H32 ARG d   1     -25.536  -2.675  -2.352  0.00  0.00     0.036 H 
BRANCH  69  72
ATOM     72  CG  ARG d   1     -23.506  -2.397  -1.756  0.00  0.00    -0.048 C 
ATOM     73  H33 ARG d   1     -23.079  -2.981  -2.584  0.00  0.00     0.035 H 
ATOM     74  H34 ARG d   1     -22.899  -2.545  -0.851  0.00  0.00     0.035 H 
BRANCH  72  75
ATOM     75  CD  ARG d   1     -23.456  -0.922  -2.132  0.00  0.00     0.009 C 
ATOM     76  H35 ARG d   1     -23.696  -0.312  -1.248  0.00  0.00     0.064 H 
ATOM     77  H36 ARG d   1     -24.192  -0.723  -2.925  0.00  0.00     0.064 H 
BRANCH  75  78
ATOM     78  NE  ARG d   1     -22.115  -0.573  -2.614  0.00  0.00    -0.227 N 
ATOM     79  CZ  ARG d   1     -21.699   0.655  -2.918  0.00  0.00     0.665 C 
ATOM     80  NH1 ARG d   1     -22.515   1.709  -2.794  0.00  0.00    -0.235 N 
ATOM     81  NH2 ARG d   1     -20.446   0.830  -3.348  0.00  0.00    -0.235 N 
ATOM     82  H38 ARG d   1     -22.178   2.652  -3.033  0.00  0.00     0.174 HD
ATOM     83  H39 ARG d   1     -23.480   1.577  -2.459  0.00  0.00     0.174 HD
ATOM     84  H40 ARG d   1     -19.817   0.020  -3.444  0.00  0.00     0.174 HD
ATOM     85  H41 ARG d   1     -20.110   1.775  -3.583  0.00  0.00     0.174 HD
ATOM     86  H37 ARG d   1     -21.439  -1.342  -2.727  0.00  0.00     0.177 HD
ENDBRANCH  75  78
ENDBRANCH  72  75
ENDBRANCH  69  72
ENDBRANCH  19  69
ENDBRANCH  16  19
ENDBRANCH  13  15
BRANCH  13  87
ATOM     87  CB  TYR d   1     -21.748  -7.253   0.876  0.00  0.00    -0.014 C 
ATOM     88  H44 TYR d   1     -21.065  -7.431   1.720  0.00  0.00     0.043 H 
ATOM     89  H45 TYR d   1     -21.309  -7.666  -0.044  0.00  0.00     0.043 H 
BRANCH  87  90
ATOM     90  CG  TYR d   1     -23.026  -7.997   1.152  0.00  0.00    -0.056 A 
ATOM     91  CD1 TYR d   1     -23.812  -8.464   0.112  0.00  0.00    -0.074 A 
ATOM     92  CE1 TYR d   1     -24.988  -9.144   0.358  0.00  0.00    -0.051 A 
ATOM     93  H46 TYR d   1     -23.499  -8.293  -0.912  0.00  0.00     0.084 H 
ATOM     94  CZ  TYR d   1     -25.369  -9.387   1.645  0.00  0.00     0.065 A 
ATOM     95  H48 TYR d   1     -25.605  -9.483  -0.467  0.00  0.00     0.087 H 
ATOM     96  CE2 TYR d   1     -24.601  -8.959   2.698  0.00  0.00    -0.051 A 
ATOM     97  CD2 TYR d   1     -23.428  -8.274   2.453  0.00  0.00    -0.074 A 
ATOM     98  H49 TYR d   1     -24.914  -9.158   3.717  0.00  0.00     0.087 H 
ATOM     99  H47 TYR d   1     -22.814  -7.949   3.285  0.00  0.00     0.084 H 
BRANCH  94 100
ATOM    100  OH  TYR d   1     -26.515 -10.076   1.884  0.00  0.00    -0.361 OA
ATOM    101  H50 TYR d   1     -26.927 -10.299   1.058  0.00  0.00     0.217 HD
ENDBRANCH  94 100
ENDBRANCH  87  90
ENDBRANCH  13  87
ENDBRANCH  10  13
ENDBRANCH   7   9
BRANCH   7 102
ATOM    102  CB  SER d   1     -18.085  -3.111   2.143  0.00  0.00     0.044 C 
ATOM    103  H53 SER d   1     -18.754  -2.242   2.053  0.00  0.00     0.077 H 
ATOM    104  H54 SER d   1     -17.045  -2.791   1.983  0.00  0.00     0.077 H 
BRANCH 102 105
ATOM    105  OG  SER d   1     -18.203  -3.647   3.466  0.00  0.00    -0.398 OA
ATOM    106  H55 SER d   1     -19.100  -3.920   3.617  0.00  0.00     0.209 HD
ENDBRANCH 102 105
ENDBRANCH   7 102
ENDBRANCH   4   7
ENDBRANCH   1   3
BRANCH   1 107
ATOM    107  C   ARG d   1     -15.026  -6.509   2.032  0.00  0.00     0.241 C 
ATOM    108  O   ARG d   1     -15.175  -7.724   2.253  0.00  0.00    -0.271 OA
ATOM    109  N   MK8 d   1     -14.935  -5.887   3.157  0.00  0.00    -0.342 N 
ATOM    110  H69 MK8 d   1     -14.939  -4.896   3.020  0.00  0.00     0.163 HD
BRANCH 109 111
ATOM    111  CA  MK8 d   1     -14.827  -6.221   4.586  0.00  0.00     0.110 C 
ATOM    112  C   MK8 d   1     -16.010  -7.111   4.956  0.00  0.00     0.246 C 
ATOM    113  O   MK8 d   1     -15.811  -8.164   5.616  0.00  0.00    -0.271 OA
ATOM    114  N   GLN d   1     -17.213  -6.807   4.643  0.00  0.00    -0.346 N 
ATOM    115  CA  GLN d   1     -18.441  -7.597   4.929  0.00  0.00     0.090 C 
ATOM    116  H80 GLN d   1     -17.342  -5.945   4.153  0.00  0.00     0.163 HD
ATOM    117  C   GLN d   1     -18.341  -8.975   4.346  0.00  0.00     0.241 C 
ATOM    118  H81 GLN d   1     -18.544  -7.687   6.020  0.00  0.00     0.087 H 
ATOM    119  O   GLN d   1     -18.701  -9.938   5.007  0.00  0.00    -0.271 OA
ATOM    120  N   LEU d   1     -17.840  -9.053   3.111  0.00  0.00    -0.346 N 
ATOM    121  CA  LEU d   1     -17.778 -10.301   2.380  0.00  0.00     0.089 C 
ATOM    122  H88 LEU d   1     -17.496  -8.221   2.676  0.00  0.00     0.163 HD
ATOM    123  C   LEU d   1     -16.696 -11.224   2.908  0.00  0.00     0.241 C 
ATOM    124  H89 LEU d   1     -18.742 -10.811   2.520  0.00  0.00     0.087 H 
ATOM    125  O   LEU d   1     -16.941 -12.419   3.010  0.00  0.00    -0.271 OA
ATOM    126  N   LEU d   1     -15.519 -10.697   3.257  0.00  0.00    -0.346 N 
ATOM    127  CA  LEU d   1     -14.488 -11.530   3.900  0.00  0.00     0.089 C 
ATOM    128  H99 LEU d   1     -15.336  -9.730   3.080  0.00  0.00     0.163 HD
ATOM    129  C   LEU d   1     -14.896 -11.964   5.312  0.00  0.00     0.241 C 
ATOM    130 0H10 LEU d   1     -14.366 -12.434   3.285  0.00  0.00     0.087 H 
ATOM    131  O   LEU d   1     -14.496 -13.060   5.737  0.00  0.00    -0.271 OA
ATOM    132  N   MK8 d   1     -15.426 -11.332   6.302  0.00  0.00    -0.342 N 
ATOM    133  CA  MK8 d   1     -15.983 -11.462   7.665  0.00  0.00     0.110 C 
ATOM    134 0H11 MK8 d   1     -15.483 -10.367   6.045  0.00  0.00     0.163 HD
ATOM    135  CB  MK8 d   1     -16.723 -10.179   8.037  0.00  0.00    -0.033 C 
ATOM    136  CG  MK8 d   1     -15.924  -9.171   8.875  0.00  0.00    -0.059 C 
ATOM    137 1H11 MK8 d   1     -17.620 -10.459   8.609  0.00  0.00     0.037 H 
ATOM    138 2H11 MK8 d   1     -17.025  -9.680   7.104  0.00  0.00     0.037 H 
ATOM    139  CD  MK8 d   1     -16.774  -7.926   9.102  0.00  0.00    -0.050 C 
ATOM    140 6H11 MK8 d   1     -15.003  -8.896   8.340  0.00  0.00     0.033 H 
ATOM    141 7H11 MK8 d   1     -15.665  -9.622   9.844  0.00  0.00     0.033 H 
ATOM    142  CE  MK8 d   1     -15.990  -6.798   9.735  0.00  0.00    -0.107 C 
ATOM    143 3H11 MK8 d   1     -17.165  -7.584   8.132  0.00  0.00     0.038 H 
ATOM    144 4H11 MK8 d   1     -17.613  -8.187   9.764  0.00  0.00     0.038 H 
ATOM    145  CE  MK8 d   1     -15.650  -5.660   9.098  0.00  0.00    -0.107 C 
ATOM    146 5H11 MK8 d   1     -15.680  -6.913  10.773  0.00  0.00     0.076 H 
ATOM    147  CD  MK8 d   1     -15.981  -5.327   7.651  0.00  0.00    -0.050 C 
ATOM    148  H74 MK8 d   1     -15.092  -4.917   9.666  0.00  0.00     0.076 H 
ATOM    149  CG  MK8 d   1     -14.680  -5.030   6.885  0.00  0.00    -0.059 C 
ATOM    150  H72 MK8 d   1     -16.636  -4.444   7.618  0.00  0.00     0.038 H 
ATOM    151  H73 MK8 d   1     -16.494  -6.182   7.186  0.00  0.00     0.038 H 
ATOM    152  CB  MK8 d   1     -14.848  -4.903   5.358  0.00  0.00    -0.033 C 
ATOM    153  H75 MK8 d   1     -14.267  -4.084   7.264  0.00  0.00     0.033 H 
ATOM    154  H76 MK8 d   1     -13.970  -5.846   7.085  0.00  0.00     0.033 H 
ATOM    155  H70 MK8 d   1     -15.812  -4.410   5.162  0.00  0.00     0.037 H 
ATOM    156  H71 MK8 d   1     -14.030  -4.274   4.978  0.00  0.00     0.037 H 
BRANCH 115 157
ATOM    157  CB  GLN d   1     -19.684  -6.899   4.384  0.00  0.00    -0.030 C 
ATOM    158  H82 GLN d   1     -20.501  -7.633   4.324  0.00  0.00     0.037 H 
ATOM    159  H83 GLN d   1     -19.460  -6.518   3.377  0.00  0.00     0.037 H 
BRANCH 157 160
ATOM    160  CG  GLN d   1     -20.135  -5.742   5.250  0.00  0.00     0.011 C 
ATOM    161  H84 GLN d   1     -19.288  -5.054   5.391  0.00  0.00     0.047 H 
ATOM    162  H85 GLN d   1     -20.455  -6.134   6.226  0.00  0.00     0.047 H 
BRANCH 160 163
ATOM    163  CD  GLN d   1     -21.285  -4.978   4.631  0.00  0.00     0.215 C 
ATOM    164  OE1 GLN d   1     -21.078  -4.077   3.804  0.00  0.00    -0.274 OA
ATOM    165  NE2 GLN d   1     -22.502  -5.329   5.016  0.00  0.00    -0.370 N 
ATOM    166  H86 GLN d   1     -23.300  -4.859   4.640  0.00  0.00     0.159 HD
ATOM    167  H87 GLN d   1     -22.623  -6.064   5.683  0.00  0.00     0.159 HD
ENDBRANCH 160 163
ENDBRANCH 157 160
ENDBRANCH 115 157
BRANCH 121 168
ATOM    168  CB  LEU d   1     -17.599 -10.053   0.888  0.00  0.00    -0.035 C 
ATOM    169  H90 LEU d   1     -17.363 -11.020   0.420  0.00  0.00     0.037 H 
ATOM    170  H91 LEU d   1     -16.745  -9.370   0.769  0.00  0.00     0.037 H 
BRANCH 168 171
ATOM    171  CG  LEU d   1     -18.779  -9.448   0.118  0.00  0.00    -0.059 C 
ATOM    172  H92 LEU d   1     -19.012  -8.468   0.560  0.00  0.00     0.038 H 
BRANCH 171 173
ATOM    173  CD1 LEU d   1     -18.389  -9.241  -1.342  0.00  0.00    -0.073 C 
ATOM    174  H93 LEU d   1     -19.238  -8.807  -1.890  0.00  0.00     0.028 H 
ATOM    175  H94 LEU d   1     -18.119 -10.209  -1.790  0.00  0.00     0.028 H 
ATOM    176  H95 LEU d   1     -17.529  -8.558  -1.398  0.00  0.00     0.028 H 
ENDBRANCH 171 173
BRANCH 171 177
ATOM    177  CD2 LEU d   1     -20.025 -10.318   0.213  0.00  0.00    -0.073 C 
ATOM    178  H96 LEU d   1     -20.294 -10.459   1.270  0.00  0.00     0.028 H 
ATOM    179  H97 LEU d   1     -19.825 -11.297  -0.248  0.00  0.00     0.028 H 
ATOM    180  H98 LEU d   1     -20.856  -9.827  -0.315  0.00  0.00     0.028 H 
ENDBRANCH 171 177
ENDBRANCH 168 171
ENDBRANCH 121 168
BRANCH 127 181
ATOM    181  CB  LEU d   1     -13.129 -10.826   3.987  0.00  0.00    -0.035 C 
ATOM    182 1H10 LEU d   1     -12.470 -11.474   4.583  0.00  0.00     0.037 H 
ATOM    183 2H10 LEU d   1     -13.292  -9.878   4.521  0.00  0.00     0.037 H 
BRANCH 181 184
ATOM    184  CG  LEU d   1     -12.381 -10.490   2.707  0.00  0.00    -0.059 C 
ATOM    185 3H10 LEU d   1     -12.998  -9.803   2.110  0.00  0.00     0.038 H 
BRANCH 184 186
ATOM    186  CD1 LEU d   1     -11.087  -9.790   3.075  0.00  0.00    -0.073 C 
ATOM    187 4H10 LEU d   1     -10.532  -9.539   2.159  0.00  0.00     0.028 H 
ATOM    188 5H10 LEU d   1     -10.476 -10.455   3.703  0.00  0.00     0.028 H 
ATOM    189 6H10 LEU d   1     -11.314  -8.868   3.630  0.00  0.00     0.028 H 
ENDBRANCH 184 186
BRANCH 184 190
ATOM    190  CD2 LEU d   1     -12.111 -11.738   1.868  0.00  0.00    -0.073 C 
ATOM    191 7H10 LEU d   1     -13.065 -12.224   1.616  0.00  0.00     0.028 H 
ATOM    192 8H10 LEU d   1     -11.484 -12.437   2.441  0.00  0.00     0.028 H 
ATOM    193 9H10 LEU d   1     -11.590 -11.452   0.942  0.00  0.00     0.028 H 
ENDBRANCH 184 190
ENDBRANCH 181 184
ENDBRANCH 127 181
BRANCH 133 194
ATOM    194  C   MK8 d   1     -16.990 -12.593   7.698  0.00  0.00     0.246 C 
ATOM    195  O   MK8 d   1     -16.831 -13.478   8.602  0.00  0.00    -0.271 OA
ATOM    196  N   LEU d   1     -17.948 -12.754   6.856  0.00  0.00    -0.346 N 
ATOM    197 1H12 LEU d   1     -17.892 -12.031   6.167  0.00  0.00     0.163 HD
BRANCH 196 198
ATOM    198  CA  LEU d   1     -19.112 -13.627   6.534  0.00  0.00     0.089 C 
ATOM    199 2H12 LEU d   1     -19.636 -13.850   7.475  0.00  0.00     0.087 H 
BRANCH 198 200
ATOM    200  C   LEU d   1     -18.701 -14.971   5.897  0.00  0.00     0.238 C 
ATOM    201  O   LEU d   1     -17.572 -15.138   5.463  0.00  0.00    -0.271 OA
ATOM    202  N   NME d   1     -19.685 -15.781   5.662  0.00  0.00    -0.368 N 
ATOM    203 2H13 NME d   1     -19.509 -16.675   5.250  0.00  0.00     0.159 HD
ATOM    204 3H13 NME d   1     -20.620 -15.512   5.893  0.00  0.00     0.159 HD
ENDBRANCH 198 200
BRANCH 198 205
ATOM    205  CB  LEU d   1     -20.073 -12.881   5.615  0.00  0.00    -0.035 C 
ATOM    206 3H12 LEU d   1     -20.207 -13.516   4.727  0.00  0.00     0.037 H 
ATOM    207 4H12 LEU d   1     -19.564 -11.949   5.326  0.00  0.00     0.037 H 
BRANCH 205 208
ATOM    208  CG  LEU d   1     -21.478 -12.480   6.074  0.00  0.00    -0.059 C 
ATOM    209 5H12 LEU d   1     -22.173 -13.247   5.702  0.00  0.00     0.038 H 
BRANCH 208 210
ATOM    210  CD1 LEU d   1     -21.680 -12.398   7.571  0.00  0.00    -0.073 C 
ATOM    211 6H12 LEU d   1     -22.718 -12.104   7.785  0.00  0.00     0.028 H 
ATOM    212 7H12 LEU d   1     -20.992 -11.650   7.993  0.00  0.00     0.028 H 
ATOM    213 8H12 LEU d   1     -21.477 -13.380   8.023  0.00  0.00     0.028 H 
ENDBRANCH 208 210
BRANCH 208 214
ATOM    214  CD2 LEU d   1     -21.837 -11.152   5.416  0.00  0.00    -0.073 C 
ATOM    215 9H12 LEU d   1     -21.685 -11.228   4.329  0.00  0.00     0.028 H 
ATOM    216 0H13 LEU d   1     -21.194 -10.357   5.821  0.00  0.00     0.028 H 
ATOM    217 1H13 LEU d   1     -22.891 -10.913   5.623  0.00  0.00     0.028 H 
ENDBRANCH 208 214
ENDBRANCH 205 208
ENDBRANCH 198 205
ENDBRANCH 196 198
ENDBRANCH 133 194
BRANCH 133 218
ATOM    218  CB1 MK8 d   1     -14.853 -11.793   8.646  0.00  0.00    -0.044 C 
ATOM    219 8H11 MK8 d   1     -15.265 -11.890   9.661  0.00  0.00     0.031 H 
ATOM    220 9H11 MK8 d   1     -14.105 -10.986   8.630  0.00  0.00     0.031 H 
ATOM    221 0H12 MK8 d   1     -14.377 -12.740   8.351  0.00  0.00     0.031 H 
ENDBRANCH 133 218
BRANCH 111 222
ATOM    222  CB1 MK8 d   1     -13.509  -6.977   4.791  0.00  0.00    -0.044 C 
ATOM    223  H77 MK8 d   1     -13.399  -7.241   5.853  0.00  0.00     0.031 H 
ATOM    224  H78 MK8 d   1     -12.668  -6.338   4.483  0.00  0.00     0.031 H 
ATOM    225  H79 MK8 d   1     -13.514  -7.894   4.184  0.00  0.00     0.031 H 
ENDBRANCH 111 222
ENDBRANCH 109 111
ENDBRANCH   1 107
BRANCH   1 226
ATOM    226  CB  ARG d   1     -13.867  -5.242   0.186  0.00  0.00    -0.036 C 
ATOM    227  H58 ARG d   1     -13.662  -4.447   0.918  0.00  0.00     0.036 H 
ATOM    228  H59 ARG d   1     -14.021  -4.795  -0.807  0.00  0.00     0.036 H 
BRANCH 226 229
ATOM    229  CG  ARG d   1     -12.664  -6.145   0.118  0.00  0.00    -0.048 C 
ATOM    230  H60 ARG d   1     -12.834  -6.895  -0.669  0.00  0.00     0.035 H 
ATOM    231  H61 ARG d   1     -12.552  -6.651   1.088  0.00  0.00     0.035 H 
BRANCH 229 232
ATOM    232  CD  ARG d   1     -11.370  -5.403  -0.193  0.00  0.00     0.009 C 
ATOM    233  H62 ARG d   1     -11.095  -4.757   0.654  0.00  0.00     0.064 H 
ATOM    234  H63 ARG d   1     -11.498  -4.788  -1.096  0.00  0.00     0.064 H 
BRANCH 232 235
ATOM    235  NE  ARG d   1     -10.330  -6.400  -0.415  0.00  0.00    -0.227 N 
ATOM    236  CZ  ARG d   1      -9.745  -7.126   0.541  0.00  0.00     0.665 C 
ATOM    237  NH1 ARG d   1     -10.054  -6.934   1.820  0.00  0.00    -0.235 N 
ATOM    238  NH2 ARG d   1      -8.819  -8.044   0.217  0.00  0.00    -0.235 N 
ATOM    239  H65 ARG d   1      -9.598  -7.499   2.550  0.00  0.00     0.174 HD
ATOM    240  H66 ARG d   1     -10.750  -6.221   2.080  0.00  0.00     0.174 HD
ATOM    241  H67 ARG d   1      -8.572  -8.200  -0.771  0.00  0.00     0.174 HD
ATOM    242  H68 ARG d   1      -8.356  -8.591   0.956  0.00  0.00     0.174 HD
ATOM    243  H64 ARG d   1     -10.022  -6.557  -1.385  0.00  0.00     0.177 HD
ENDBRANCH 232 235
ENDBRANCH 229 232
ENDBRANCH 226 229
ENDBRANCH   1 226
TORSDOF 56
