REMARK  5 active torsions:
REMARK  status: ('A' for Active; 'I' for Inactive)
REMARK    1  A    between atoms: N13_1  and  C8_2 
REMARK    2  A    between atoms: C1_7  and  C5_8 
REMARK    3  A    between atoms: C1_7  and  C2_9 
REMARK    4  A    between atoms: C14_12  and  O15_13 
REMARK    5  A    between atoms: O15_13  and  C16_14 
ROOT
ATOM      1  C8  XK0 d   1     -15.580  40.847  90.318  0.00  0.00     0.134 C 
ATOM      2  N3  XK0 d   1     -15.930  39.705  90.749  0.00  0.00    -0.358 N 
ATOM      3  S12 XK0 d   1     -15.820  42.299  91.165  0.00  0.00    -0.095 SA
ATOM      4  C9  XK0 d   1     -16.778  41.875  92.585  0.00  0.00    -0.014 C 
ATOM      5  C4  XK0 d   1     -16.458  40.449  93.022  0.00  0.00    -0.030 C 
ATOM      6  C1  XK0 d   1     -16.806  39.487  91.894  0.00  0.00     0.056 C 
ATOM      7  H3  XK0 d   1     -15.570  38.875  90.256  0.00  0.00     0.162 HD
ATOM      8  H4  XK0 d   1     -17.848  41.949  92.339  0.00  0.00     0.049 H 
ATOM      9  H5  XK0 d   1     -16.541  42.569  93.405  0.00  0.00     0.049 H 
ATOM     10  H6  XK0 d   1     -17.049  40.197  93.915  0.00  0.00     0.038 H 
ATOM     11  H7  XK0 d   1     -15.386  40.368  93.256  0.00  0.00     0.038 H 
ENDROOT
BRANCH   6  12
ATOM     12  C5  XK0 d   1     -16.652  38.042  92.358  0.00  0.00    -0.049 C 
ATOM     13  H8  XK0 d   1     -17.308  37.863  93.223  0.00  0.00     0.031 H 
ATOM     14  H9  XK0 d   1     -15.607  37.859  92.647  0.00  0.00     0.031 H 
ATOM     15  H10 XK0 d   1     -16.931  37.362  91.539  0.00  0.00     0.031 H 
ENDBRANCH   6  12
BRANCH   6  16
ATOM     16  C2  XK0 d   1     -18.242  39.702  91.510  0.00  0.00    -0.030 A 
ATOM     17  C7  XK0 d   1     -19.249  39.407  92.434  0.00  0.00    -0.072 A 
ATOM     18  C11 XK0 d   1     -20.584  39.596  92.068  0.00  0.00    -0.050 A 
ATOM     19  H11 XK0 d   1     -18.997  39.037  93.421  0.00  0.00     0.084 H 
ATOM     20  C14 XK0 d   1     -20.919  40.078  90.801  0.00  0.00     0.068 A 
ATOM     21  H12 XK0 d   1     -21.371  39.365  92.777  0.00  0.00     0.087 H 
ATOM     22  C10 XK0 d   1     -19.913  40.375  89.879  0.00  0.00    -0.050 A 
ATOM     23  C6  XK0 d   1     -18.579  40.182  90.240  0.00  0.00    -0.072 A 
ATOM     24  H16 XK0 d   1     -20.166  40.751  88.894  0.00  0.00     0.087 H 
ATOM     25  H17 XK0 d   1     -17.794  40.407  89.527  0.00  0.00     0.084 H 
BRANCH  20  26
ATOM     26  O15 XK0 d   1     -22.248  40.249  90.494  0.00  0.00    -0.356 OA
BRANCH  26  27
ATOM     27  C16 XK0 d   1     -22.704  41.058  89.376  0.00  0.00     0.010 C 
ATOM     28  H13 XK0 d   1     -23.803  41.041  89.336  0.00  0.00     0.066 H 
ATOM     29  H14 XK0 d   1     -22.296  40.651  88.439  0.00  0.00     0.066 H 
ATOM     30  H15 XK0 d   1     -22.358  42.094  89.507  0.00  0.00     0.066 H 
ENDBRANCH  26  27
ENDBRANCH  20  26
ENDBRANCH   6  16
BRANCH   1  31
ATOM     31  N13 XK0 d   1     -15.003  40.878  89.102  0.00  0.00    -0.380 N 
ATOM     32  H1  XK0 d   1     -14.853  40.002  88.581  0.00  0.00     0.158 HD
ATOM     33  H2  XK0 d   1     -14.711  41.777  88.693  0.00  0.00     0.158 HD
ENDBRANCH   1  31
TORSDOF 5
