REMARK  5 active torsions:
REMARK  status: ('A' for Active; 'I' for Inactive)
REMARK    1  A    between atoms: C12_7  and  C8_8 
REMARK       I    between atoms: C8_8  and  N11_10 
REMARK    2  A    between atoms: N11_10  and  C15_11 
REMARK    3  A    between atoms: C7_17  and  C2_18 
REMARK    4  A    between atoms: C2_18  and  C24_19 
REMARK    5  A    between atoms: C5_24  and  N17_26 
ROOT
ATOM      1  C15 8T3 d   1     -19.958  39.974  92.486  0.00  0.00     0.035 A 
ATOM      2  C22 8T3 d   1     -21.003  39.739  93.396  0.00  0.00    -0.054 A 
ATOM      3  C19 8T3 d   1     -20.707  39.202  94.647  0.00  0.00    -0.043 A 
ATOM      4  C13 8T3 d   1     -19.371  38.933  94.969  0.00  0.00     0.125 A 
ATOM      5  F23 8T3 d   1     -19.079  38.429  96.181  0.00  0.00    -0.205 F 
ATOM      6  C14 8T3 d   1     -18.634  39.719  92.839  0.00  0.00    -0.046 A 
ATOM      7  C7  8T3 d   1     -18.322  39.193  94.074  0.00  0.00     0.010 A 
ATOM      8  H5  8T3 d   1     -22.027  39.973  93.128  0.00  0.00     0.087 H 
ATOM      9  H6  8T3 d   1     -21.498  38.996  95.359  0.00  0.00     0.088 H 
ATOM     10  H7  8T3 d   1     -17.840  39.937  92.134  0.00  0.00     0.088 H 
ENDROOT
BRANCH   7  11
ATOM     11  C2  8T3 d   1     -16.884  38.874  94.460  0.00  0.00     0.058 C 
ATOM     12  C9  8T3 d   1     -16.453  39.701  95.672  0.00  0.00    -0.034 C 
ATOM     13  C4  8T3 d   1     -15.728  41.030  95.432  0.00  0.00    -0.041 A 
ATOM     14  H11 8T3 d   1     -15.783  39.070  96.274  0.00  0.00     0.037 H 
ATOM     15  H12 8T3 d   1     -17.361  39.927  96.250  0.00  0.00     0.037 H 
ATOM     16  C6  8T3 d   1     -16.354  41.917  94.349  0.00  0.00    -0.051 A 
ATOM     17  C3  8T3 d   1     -15.039  41.187  94.072  0.00  0.00     0.005 A 
ATOM     18  H13 8T3 d   1     -15.296  41.441  96.356  0.00  0.00     0.041 H 
ATOM     19  H14 8T3 d   1     -16.361  43.010  94.470  0.00  0.00     0.034 H 
ATOM     20  H15 8T3 d   1     -17.277  41.598  93.843  0.00  0.00     0.034 H 
ATOM     21  C5  8T3 d   1     -15.257  40.071  93.082  0.00  0.00     0.076 C 
ATOM     22  H16 8T3 d   1     -14.066  41.687  93.961  0.00  0.00     0.052 H 
ATOM     23  N1  8T3 d   1     -15.967  39.047  93.351  0.00  0.00    -0.367 N 
ATOM     24  H17 8T3 d   1     -15.879  38.250  92.705  0.00  0.00     0.162 HD
BRANCH  11  25
ATOM     25  C24 8T3 d   1     -16.843  37.391  94.814  0.00  0.00    -0.049 C 
ATOM     26  H8  8T3 d   1     -15.819  37.111  95.101  0.00  0.00     0.031 H 
ATOM     27  H9  8T3 d   1     -17.155  36.797  93.942  0.00  0.00     0.031 H 
ATOM     28  H10 8T3 d   1     -17.526  37.196  95.654  0.00  0.00     0.031 H 
ENDBRANCH  11  25
BRANCH  21  29
ATOM     29  N17 8T3 d   1     -14.661  40.134  91.883  0.00  0.00    -0.389 N 
ATOM     30  H18 8T3 d   1     -14.802  39.378  91.198  0.00  0.00     0.157 HD
ATOM     31  H19 8T3 d   1     -14.062  40.938  91.647  0.00  0.00     0.157 HD
ENDBRANCH  21  29
ENDBRANCH   7  11
BRANCH   1  32
ATOM     32  N11 8T3 d   1     -20.153  40.582  91.243  0.00  0.00    -0.322 N 
ATOM     33  C8  8T3 d   1     -21.261  41.173  90.776  0.00  0.00     0.274 C 
ATOM     34  O16 8T3 d   1     -22.327  41.203  91.353  0.00  0.00    -0.266 OA
ATOM     35  H4  8T3 d   1     -19.367  40.575  90.625  0.00  0.00     0.169 HD
BRANCH  33  36
ATOM     36  C12 8T3 d   1     -21.105  41.848  89.454  0.00  0.00     0.124 A 
ATOM     37  N10 8T3 d   1     -20.032  41.517  88.703  0.00  0.00    -0.254 NA
ATOM     38  C20 8T3 d   1     -19.772  42.100  87.534  0.00  0.00     0.024 A 
ATOM     39  C21 8T3 d   1     -20.613  43.103  87.098  0.00  0.00     0.051 A 
ATOM     40  H1  8T3 d   1     -18.919  41.794  86.939  0.00  0.00     0.117 H 
ATOM     41 CL   8T3 d   1     -20.236  43.835  85.523  0.00  0.00    -0.083 Cl
ATOM     42  C25 8T3 d   1     -21.735  43.509  87.843  0.00  0.00    -0.058 A 
ATOM     43  C18 8T3 d   1     -21.957  42.876  89.056  0.00  0.00    -0.048 A 
ATOM     44  H2  8T3 d   1     -22.400  44.286  87.483  0.00  0.00     0.086 H 
ATOM     45  H3  8T3 d   1     -22.785  43.178  89.688  0.00  0.00     0.087 H 
ENDBRANCH  33  36
ENDBRANCH   1  32
TORSDOF 5
