REMARK  9 active torsions:
REMARK  status: ('A' for Active; 'I' for Inactive)
REMARK    1  A    between atoms: NAO_15  and  CAN_16 
REMARK    2  A    between atoms: CAN_16  and  CAM_17 
REMARK    3  A    between atoms: CAM_17  and  CAL_18 
REMARK    4  A    between atoms: CAL_18  and  SAK_19 
REMARK    5  A    between atoms: SAK_19  and  CAJ_20 
REMARK    6  A    between atoms: CBF_23  and  CBG_24 
REMARK    7  A    between atoms: NAI_30  and  CAF_31 
REMARK    8  A    between atoms: CAC_34  and  OAB_35 
REMARK    9  A    between atoms: OAB_35  and  CAA_36 
ROOT
ATOM      1  SAK SWY d   1     -37.401  -5.335   7.901  0.00  0.00    -0.090 SA
ENDROOT
BRANCH   1   2
ATOM      2  CAL SWY d   1     -37.199  -3.791   8.885  0.00  0.00    -0.015 C 
ATOM      3  H11 SWY d   1     -36.803  -4.060   9.876  0.00  0.00     0.049 H 
ATOM      4  H12 SWY d   1     -36.479  -3.140   8.367  0.00  0.00     0.049 H 
BRANCH   2   5
ATOM      5  CAM SWY d   1     -38.499  -3.013   9.080  0.00  0.00    -0.041 C 
ATOM      6  H9  SWY d   1     -39.220  -3.640   9.624  0.00  0.00     0.036 H 
ATOM      7  H10 SWY d   1     -38.294  -2.102   9.661  0.00  0.00     0.036 H 
BRANCH   5   8
ATOM      8  CAN SWY d   1     -39.096  -2.620   7.704  0.00  0.00     0.007 C 
ATOM      9  H7  SWY d   1     -39.318  -3.542   7.146  0.00  0.00     0.065 H 
ATOM     10  H8  SWY d   1     -40.028  -2.062   7.877  0.00  0.00     0.065 H 
BRANCH   8  11
ATOM     11  NAO SWY d   1     -38.197  -1.784   6.884  0.00  0.00    -0.280 N 
ATOM     12  CAP SWY d   1     -37.431  -2.317   5.882  0.00  0.00     0.261 A 
ATOM     13  OAQ SWY d   1     -37.466  -3.510   5.633  0.00  0.00    -0.267 OA
ATOM     14  CAR SWY d   1     -36.581  -1.478   5.109  0.00  0.00     0.044 A 
ATOM     15  CBC SWY d   1     -36.524  -0.119   5.369  0.00  0.00     0.005 A 
ATOM     16  CAS SWY d   1     -35.801  -2.014   4.086  0.00  0.00    -0.067 A 
ATOM     17  CAV SWY d   1     -35.687   0.707   4.609  0.00  0.00    -0.024 A 
ATOM     18  CAZ SWY d   1     -37.289   0.417   6.370  0.00  0.00     0.044 A 
ATOM     19  CAU SWY d   1     -34.914   0.172   3.597  0.00  0.00    -0.072 A 
ATOM     20  CAW SWY d   1     -35.630   2.072   4.870  0.00  0.00    -0.072 A 
ATOM     21  CAT SWY d   1     -34.968  -1.190   3.332  0.00  0.00    -0.081 A 
ATOM     22  H3  SWY d   1     -34.267   0.814   3.011  0.00  0.00     0.084 H 
ATOM     23  H2  SWY d   1     -34.362  -1.612   2.538  0.00  0.00     0.083 H 
ATOM     24  CAX SWY d   1     -36.399   2.613   5.880  0.00  0.00    -0.081 A 
ATOM     25  H4  SWY d   1     -34.982   2.710   4.280  0.00  0.00     0.084 H 
ATOM     26  CAY SWY d   1     -37.229   1.795   6.633  0.00  0.00    -0.067 A 
ATOM     27  H5  SWY d   1     -36.355   3.676   6.085  0.00  0.00     0.083 H 
ATOM     28  H6  SWY d   1     -37.833   2.221   7.426  0.00  0.00     0.085 H 
ATOM     29  CBA SWY d   1     -38.132  -0.409   7.133  0.00  0.00     0.261 A 
ATOM     30  OBB SWY d   1     -38.809   0.085   8.031  0.00  0.00    -0.267 OA
ATOM     31  H1  SWY d   1     -35.843  -3.077   3.876  0.00  0.00     0.085 H 
ENDBRANCH   8  11
ENDBRANCH   5   8
ENDBRANCH   2   5
ENDBRANCH   1   2
BRANCH   1  32
ATOM     32  CAJ SWY d   1     -38.219  -6.427   9.062  0.00  0.00     0.196 A 
ATOM     33  NBD SWY d   1     -39.135  -6.069  10.108  0.00  0.00    -0.122 NA
ATOM     34  NBE SWY d   1     -39.483  -7.269  10.714  0.00  0.00    -0.128 NA
ATOM     35  CBF SWY d   1     -38.854  -8.167  10.101  0.00  0.00     0.169 A 
ATOM     36  NAI SWY d   1     -38.088  -7.792   9.116  0.00  0.00    -0.271 N 
BRANCH  35  37
ATOM     37  CBG SWY d   1     -39.013  -9.501  10.492  0.00  0.00     0.015 A 
ATOM     38  CBH SWY d   1     -38.265 -10.019  11.524  0.00  0.00    -0.052 A 
ATOM     39  CBI SWY d   1     -38.442 -11.349  11.907  0.00  0.00     0.003 A 
ATOM     40  H13 SWY d   1     -37.541  -9.396  12.037  0.00  0.00     0.087 H 
ATOM     41  NBJ SWY d   1     -39.349 -12.123  11.269  0.00  0.00    -0.273 NA
ATOM     42  H14 SWY d   1     -37.852 -11.762  12.717  0.00  0.00     0.114 H 
ATOM     43  CBK SWY d   1     -40.096 -11.607  10.245  0.00  0.00     0.003 A 
ATOM     44  CBL SWY d   1     -39.925 -10.282   9.857  0.00  0.00    -0.052 A 
ATOM     45  H15 SWY d   1     -40.822 -12.231   9.736  0.00  0.00     0.114 H 
ATOM     46  H16 SWY d   1     -40.520  -9.873   9.048  0.00  0.00     0.087 H 
ENDBRANCH  35  37
BRANCH  36  47
ATOM     47  CAF SWY d   1     -37.282  -8.542   8.274  0.00  0.00     0.043 A 
ATOM     48  CAE SWY d   1     -36.067  -9.058   8.740  0.00  0.00    -0.054 A 
ATOM     49  CAD SWY d   1     -35.251  -9.802   7.887  0.00  0.00    -0.049 A 
ATOM     50  H17 SWY d   1     -35.760  -8.880   9.764  0.00  0.00     0.087 H 
ATOM     51  CAC SWY d   1     -35.641 -10.028   6.562  0.00  0.00     0.068 A 
ATOM     52  H18 SWY d   1     -34.313 -10.206   8.251  0.00  0.00     0.087 H 
ATOM     53  CAH SWY d   1     -36.844  -9.512   6.097  0.00  0.00    -0.049 A 
ATOM     54  CAG SWY d   1     -37.666  -8.763   6.947  0.00  0.00    -0.054 A 
ATOM     55  H22 SWY d   1     -37.147  -9.690   5.072  0.00  0.00     0.087 H 
ATOM     56  H23 SWY d   1     -38.599  -8.354   6.577  0.00  0.00     0.087 H 
BRANCH  51  57
ATOM     57  OAB SWY d   1     -34.821 -10.777   5.713  0.00  0.00    -0.356 OA
BRANCH  57  58
ATOM     58  CAA SWY d   1     -34.288  -9.975   4.702  0.00  0.00     0.010 C 
ATOM     59  H19 SWY d   1     -33.648 -10.586   4.048  0.00  0.00     0.066 H 
ATOM     60  H20 SWY d   1     -33.690  -9.168   5.151  0.00  0.00     0.066 H 
ATOM     61  H21 SWY d   1     -35.106  -9.539   4.110  0.00  0.00     0.066 H 
ENDBRANCH  57  58
ENDBRANCH  51  57
ENDBRANCH  36  47
ENDBRANCH   1  32
TORSDOF 9
