REMARK  4 active torsions:
REMARK  status: ('A' for Active; 'I' for Inactive)
REMARK    1  A    between atoms: C1_1  and  N2_2 
REMARK    2  A    between atoms: C9_9  and  C14_14 
REMARK    3  A    between atoms: C14_14  and  C15_15 
REMARK       I    between atoms: C15_15  and  N17_17 
REMARK    4  A    between atoms: C19_19  and  C26_26 
ROOT
ATOM      1  C14 J82 d   1       1.358  76.800  78.337  0.00  0.00     0.064 C 
ATOM      2  H   J82 d   1       1.028  77.102  77.332  0.00  0.00     0.059 H 
ATOM      3  H   J82 d   1       2.433  76.570  78.316  0.00  0.00     0.059 H 
ENDROOT
BRANCH   1   4
ATOM      4  C9  J82 d   1       0.617  75.538  78.713  0.00  0.00     0.117 A 
ATOM      5  N8  J82 d   1       1.118  74.660  79.583  0.00  0.00    -0.217 NA
ATOM      6  C1  J82 d   1       0.377  73.574  79.942  0.00  0.00     0.133 A 
ATOM      7  C12 J82 d   1      -0.913  73.389  79.379  0.00  0.00     0.027 A 
ATOM      8  C11 J82 d   1      -1.464  74.309  78.436  0.00  0.00     0.250 A 
ATOM      9  H   J82 d   1      -1.499  72.520  79.675  0.00  0.00     0.098 H 
ATOM     10  N10 J82 d   1      -0.650  75.386  78.125  0.00  0.00    -0.311 N 
ATOM     11  O13 J82 d   1      -2.578  74.218  77.903  0.00  0.00    -0.268 OA
ATOM     12  H   J82 d   1      -0.971  76.069  77.469  0.00  0.00     0.170 HD
BRANCH   6  13
ATOM     13  N2  J82 d   1       0.924  72.684  80.852  0.00  0.00    -0.362 N 
ATOM     14  C3  J82 d   1       2.094  73.047  81.667  0.00  0.00     0.016 C 
ATOM     15  C4  J82 d   1       2.878  71.806  82.025  0.00  0.00     0.034 C 
ATOM     16  H   J82 d   1       1.756  73.543  82.589  0.00  0.00     0.067 H 
ATOM     17  H   J82 d   1       2.737  73.733  81.096  0.00  0.00     0.067 H 
ATOM     18  O5  J82 d   1       2.057  70.832  82.669  0.00  0.00    -0.388 OA
ATOM     19  H   J82 d   1       3.698  72.085  82.703  0.00  0.00     0.076 H 
ATOM     20  H   J82 d   1       3.295  71.370  81.105  0.00  0.00     0.076 H 
ATOM     21  C6  J82 d   1       0.985  70.442  81.811  0.00  0.00     0.034 C 
ATOM     22  C7  J82 d   1       0.109  71.618  81.452  0.00  0.00     0.016 C 
ATOM     23  H   J82 d   1       0.374  69.684  82.324  0.00  0.00     0.076 H 
ATOM     24  H   J82 d   1       1.403  70.013  80.888  0.00  0.00     0.076 H 
ATOM     25  H   J82 d   1      -0.657  71.296  80.732  0.00  0.00     0.067 H 
ATOM     26  H   J82 d   1      -0.379  72.000  82.361  0.00  0.00     0.067 H 
ENDBRANCH   6  13
ENDBRANCH   1   4
BRANCH   1  27
ATOM     27  C15 J82 d   1       1.147  77.973  79.273  0.00  0.00     0.231 C 
ATOM     28  O16 J82 d   1       0.011  78.221  79.646  0.00  0.00    -0.273 OA
ATOM     29  N17 J82 d   1       2.211  78.744  79.664  0.00  0.00    -0.312 N 
ATOM     30  C19 J82 d   1       3.614  78.538  79.085  0.00  0.00     0.020 C 
ATOM     31  C21 J82 d   1       2.276  79.712  80.703  0.00  0.00     0.044 A 
ATOM     32  C18 J82 d   1       4.519  79.169  80.134  0.00  0.00    -0.020 C 
ATOM     33  H   J82 d   1       3.833  77.468  78.956  0.00  0.00     0.073 H 
ATOM     34  C20 J82 d   1       3.605  80.078  80.911  0.00  0.00    -0.029 A 
ATOM     35  H   J82 d   1       5.327  79.743  79.658  0.00  0.00     0.043 H 
ATOM     36  H   J82 d   1       4.953  78.399  80.789  0.00  0.00     0.043 H 
ATOM     37  C25 J82 d   1       3.906  81.087  81.819  0.00  0.00    -0.075 A 
ATOM     38  C24 J82 d   1       2.887  81.700  82.532  0.00  0.00    -0.082 A 
ATOM     39  H   J82 d   1       4.935  81.394  81.969  0.00  0.00     0.084 H 
ATOM     40  C23 J82 d   1       1.568  81.315  82.340  0.00  0.00    -0.081 A 
ATOM     41  H   J82 d   1       3.122  82.484  83.243  0.00  0.00     0.083 H 
ATOM     42  C22 J82 d   1       1.247  80.319  81.422  0.00  0.00    -0.056 A 
ATOM     43  H   J82 d   1       0.780  81.794  82.910  0.00  0.00     0.083 H 
ATOM     44  H   J82 d   1       0.216  80.021  81.269  0.00  0.00     0.086 H 
BRANCH  30  45
ATOM     45  C26 J82 d   1       3.791  79.263  77.757  0.00  0.00    -0.056 C 
ATOM     46  H   J82 d   1       4.809  79.089  77.377  0.00  0.00     0.030 H 
ATOM     47  H   J82 d   1       3.634  80.342  77.904  0.00  0.00     0.030 H 
ATOM     48  H   J82 d   1       3.059  78.881  77.030  0.00  0.00     0.030 H 
ENDBRANCH  30  45
ENDBRANCH   1  27
TORSDOF 4
