REMARK  7 active torsions:
REMARK  status: ('A' for Active; 'I' for Inactive)
REMARK    1  A    between atoms: OAW_23  and  CAT_20 
REMARK    2  A    between atoms: CAT_20  and  CAX_24 
REMARK    3  A    between atoms: CAU_21  and  CBB_28 
REMARK    4  A    between atoms: NBE_31  and  CAU_21 
REMARK    5  A    between atoms: CAZ_26  and  OAW_23 
REMARK    6  A    between atoms: CBD_30  and  CBA_27 
REMARK    7  A    between atoms: CBC_29  and  NBF_32 
ROOT
ATOM      1  NAA ZVY d   1     -20.755   0.247   8.837  0.00  0.00    -0.191 NA
ATOM      2  CAD ZVY d   1     -20.105  -0.653   9.170  0.00  0.00     0.099 C 
ATOM      3  CAI ZVY d   1     -18.030  -1.635   9.168  0.00  0.00    -0.062 A 
ATOM      4  CAJ ZVY d   1     -19.829  -2.690  10.214  0.00  0.00    -0.062 A 
ATOM      5  CAL ZVY d   1     -17.166  -2.679   9.510  0.00  0.00    -0.071 A 
ATOM      6  CAM ZVY d   1     -18.959  -3.726  10.569  0.00  0.00    -0.071 A 
ATOM      7  CAY ZVY d   1     -19.352  -1.623   9.511  0.00  0.00     0.044 A 
ATOM      8  CBA ZVY d   1     -17.612  -3.756  10.231  0.00  0.00    -0.025 A 
ATOM      9  H5  ZVY d   1     -17.633  -0.798   8.605  0.00  0.00     0.085 H 
ATOM     10  H6  ZVY d   1     -20.875  -2.735  10.496  0.00  0.00     0.085 H 
ATOM     11  H8  ZVY d   1     -16.128  -2.636   9.200  0.00  0.00     0.084 H 
ATOM     12  H9  ZVY d   1     -19.360  -4.555  11.142  0.00  0.00     0.084 H 
ENDROOT
BRANCH   8  13
ATOM     13  CBD ZVY d   1     -16.756  -4.813  10.580  0.00  0.00    -0.018 A 
ATOM     14  CAN ZVY d   1     -15.409  -4.765  10.183  0.00  0.00    -0.069 A 
ATOM     15  CAK ZVY d   1     -14.531  -5.799  10.533  0.00  0.00    -0.050 A 
ATOM     16  H10 ZVY d   1     -15.047  -3.924   9.603  0.00  0.00     0.085 H 
ATOM     17  CAZ ZVY d   1     -14.977  -6.901  11.274  0.00  0.00     0.070 A 
ATOM     18  H7  ZVY d   1     -13.493  -5.746  10.226  0.00  0.00     0.087 H 
ATOM     19  CAO ZVY d   1     -16.307  -6.950  11.675  0.00  0.00    -0.042 A 
ATOM     20  CBB ZVY d   1     -17.194  -5.919  11.334  0.00  0.00    -0.019 A 
ATOM     21  H11 ZVY d   1     -16.662  -7.793  12.257  0.00  0.00     0.088 H 
BRANCH  17  22
ATOM     22  OAW ZVY d   1     -14.080  -7.901  11.584  0.00  0.00    -0.341 OA
BRANCH  22  23
ATOM     23  CAT ZVY d   1     -14.219  -8.775  12.682  0.00  0.00     0.105 C 
ATOM     24  H20 ZVY d   1     -14.746  -8.264  13.501  0.00  0.00     0.091 H 
ATOM     25  H21 ZVY d   1     -13.226  -9.097  13.030  0.00  0.00     0.091 H 
BRANCH  23  26
ATOM     26  CAX ZVY d   1     -15.014  -9.970  12.232  0.00  0.00     0.198 C 
ATOM     27  OAB ZVY d   1     -15.233 -10.158  11.009  0.00  0.00    -0.646 OA
ATOM     28  OAC ZVY d   1     -15.435 -10.709  13.143  0.00  0.00    -0.646 OA
ENDBRANCH  23  26
ENDBRANCH  22  23
ENDBRANCH  17  22
BRANCH  20  29
ATOM     29  CAU ZVY d   1     -18.637  -6.000  11.810  0.00  0.00     0.108 C 
ATOM     30  H22 ZVY d   1     -19.196  -5.178  11.339  0.00  0.00     0.083 H 
ATOM     31  H23 ZVY d   1     -18.641  -5.867  12.902  0.00  0.00     0.083 H 
BRANCH  29  32
ATOM     32  NBE ZVY d   1     -19.332  -7.248  11.506  0.00  0.00    -0.065 N 
ATOM     33  CAP ZVY d   1     -19.297  -7.467  10.051  0.00  0.00     0.095 C 
ATOM     34  CAR ZVY d   1     -19.759  -8.892   9.920  0.00  0.00     0.008 C 
ATOM     35  H12 ZVY d   1     -19.979  -6.779   9.530  0.00  0.00     0.077 H 
ATOM     36  H13 ZVY d   1     -18.278  -7.342   9.656  0.00  0.00     0.077 H 
ATOM     37  NBF ZVY d   1     -21.173  -8.842  10.331  0.00  0.00    -0.265 NA
ATOM     38  H16 ZVY d   1     -19.182  -9.554  10.582  0.00  0.00     0.059 H 
ATOM     39  H17 ZVY d   1     -19.665  -9.241   8.881  0.00  0.00     0.059 H 
ATOM     40  CAS ZVY d   1     -21.378  -8.522  11.783  0.00  0.00     0.008 C 
ATOM     41  CAQ ZVY d   1     -20.723  -7.182  12.031  0.00  0.00     0.095 C 
ATOM     42  H18 ZVY d   1     -22.453  -8.466  12.011  0.00  0.00     0.059 H 
ATOM     43  H19 ZVY d   1     -20.910  -9.294  12.411  0.00  0.00     0.059 H 
ATOM     44  H14 ZVY d   1     -20.705  -6.969  13.110  0.00  0.00     0.077 H 
ATOM     45  H15 ZVY d   1     -21.282  -6.391  11.510  0.00  0.00     0.077 H 
ATOM     46  H24 ZVY d   1     -18.855  -8.012  11.959  0.00  0.00     0.280 HD
BRANCH  37  47
ATOM     47  CBC ZVY d   1     -21.848  -9.998   9.859  0.00  0.00     0.105 A 
ATOM     48  CAH ZVY d   1     -23.079 -10.387  10.374  0.00  0.00    -0.044 A 
ATOM     49  CAF ZVY d   1     -23.713 -11.533   9.865  0.00  0.00    -0.079 A 
ATOM     50  H4  ZVY d   1     -23.547  -9.810  11.163  0.00  0.00     0.088 H 
ATOM     51  CAE ZVY d   1     -23.108 -12.246   8.824  0.00  0.00    -0.066 A 
ATOM     52  H2  ZVY d   1     -24.661 -11.861  10.275  0.00  0.00     0.083 H 
ATOM     53  CAG ZVY d   1     -21.868 -11.823   8.344  0.00  0.00     0.004 A 
ATOM     54  H1  ZVY d   1     -23.596 -13.115   8.397  0.00  0.00     0.085 H 
ATOM     55  NAV ZVY d   1     -21.288 -10.731   8.865  0.00  0.00    -0.249 NA
ATOM     56  H3  ZVY d   1     -21.375 -12.375   7.552  0.00  0.00     0.114 H 
ENDBRANCH  37  47
ENDBRANCH  29  32
ENDBRANCH  20  29
ENDBRANCH   8  13
TORSDOF 7
