REMARK  8 active torsions:
REMARK  status: ('A' for Active; 'I' for Inactive)
REMARK       I    between atoms: CAY_2  and  NAW_3 
REMARK    1  A    between atoms: CAY_2  and  CAT_5 
REMARK    2  A    between atoms: NAW_3  and  CAA_4 
REMARK    3  A    between atoms: CAT_5  and  OAX_6 
REMARK    4  A    between atoms: OAX_6  and  CBA_7 
REMARK    5  A    between atoms: CBC_11  and  CAU_21 
REMARK    6  A    between atoms: CBE_12  and  CBB_13 
REMARK    7  A    between atoms: CAU_21  and  NBF_22 
REMARK    8  A    between atoms: NBG_25  and  CBD_28 
ROOT
ATOM      1  CBB ZVZ d   1     -17.721  -3.721  10.564  0.00  0.00    -0.025 A 
ATOM      2  CAM ZVZ d   1     -19.110  -3.791  10.710  0.00  0.00    -0.071 A 
ATOM      3  CAJ ZVZ d   1     -19.950  -2.721  10.369  0.00  0.00    -0.062 A 
ATOM      4  CAZ ZVZ d   1     -19.416  -1.541   9.881  0.00  0.00     0.044 A 
ATOM      5  CAD ZVZ d   1     -20.153  -0.540   9.542  0.00  0.00     0.099 C 
ATOM      6  NAB ZVZ d   1     -20.828   0.342   9.197  0.00  0.00    -0.191 NA
ATOM      7  CAI ZVZ d   1     -18.053  -1.468   9.732  0.00  0.00    -0.062 A 
ATOM      8  CAL ZVZ d   1     -17.218  -2.534  10.063  0.00  0.00    -0.071 A 
ATOM      9  H10 ZVZ d   1     -19.552  -4.701  11.099  0.00  0.00     0.084 H 
ATOM     10  H11 ZVZ d   1     -21.023  -2.819  10.488  0.00  0.00     0.085 H 
ATOM     11  H12 ZVZ d   1     -17.614  -0.555   9.346  0.00  0.00     0.085 H 
ATOM     12  H13 ZVZ d   1     -16.148  -2.430   9.924  0.00  0.00     0.084 H 
ENDROOT
BRANCH   1  13
ATOM     13  CBE ZVZ d   1     -16.847  -4.776  10.883  0.00  0.00    -0.018 A 
ATOM     14  CAN ZVZ d   1     -15.467  -4.609  10.681  0.00  0.00    -0.069 A 
ATOM     15  CAK ZVZ d   1     -14.545  -5.614  10.987  0.00  0.00    -0.050 A 
ATOM     16  H8  ZVZ d   1     -15.106  -3.671  10.275  0.00  0.00     0.085 H 
ATOM     17  CBA ZVZ d   1     -14.999  -6.823  11.512  0.00  0.00     0.070 A 
ATOM     18  H7  ZVZ d   1     -13.486  -5.455  10.818  0.00  0.00     0.087 H 
ATOM     19  CAO ZVZ d   1     -16.371  -7.007  11.721  0.00  0.00    -0.042 A 
ATOM     20  CBC ZVZ d   1     -17.299  -5.995  11.402  0.00  0.00    -0.019 A 
ATOM     21  H9  ZVZ d   1     -16.726  -7.944  12.135  0.00  0.00     0.088 H 
BRANCH  17  22
ATOM     22  OAX ZVZ d   1     -14.063  -7.795  11.772  0.00  0.00    -0.342 OA
BRANCH  22  23
ATOM     23  CAT ZVZ d   1     -14.111  -8.736  12.836  0.00  0.00     0.099 C 
ATOM     24  H5  ZVZ d   1     -13.088  -9.008  13.136  0.00  0.00     0.089 H 
ATOM     25  H6  ZVZ d   1     -14.641  -8.298  13.694  0.00  0.00     0.089 H 
BRANCH  23  26
ATOM     26  CAY ZVZ d   1     -14.843  -9.963  12.360  0.00  0.00     0.241 C 
ATOM     27  OAC ZVZ d   1     -15.156 -10.820  13.160  0.00  0.00    -0.271 OA
ATOM     28  NAW ZVZ d   1     -15.153 -10.083  11.075  0.00  0.00    -0.364 N 
ATOM     29  H1  ZVZ d   1     -14.877  -9.336  10.471  0.00  0.00     0.161 HD
BRANCH  28  30
ATOM     30  CAA ZVZ d   1     -15.864 -11.211  10.457  0.00  0.00    -0.018 C 
ATOM     31  H2  ZVZ d   1     -15.975 -11.028   9.378  0.00  0.00     0.056 H 
ATOM     32  H3  ZVZ d   1     -16.858 -11.313  10.916  0.00  0.00     0.056 H 
ATOM     33  H4  ZVZ d   1     -15.291 -12.136  10.614  0.00  0.00     0.056 H 
ENDBRANCH  28  30
ENDBRANCH  23  26
ENDBRANCH  22  23
ENDBRANCH  17  22
BRANCH  20  34
ATOM     34  CAU ZVZ d   1     -18.791  -6.170  11.648  0.00  0.00     0.108 C 
ATOM     35  H14 ZVZ d   1     -19.318  -5.503  10.950  0.00  0.00     0.083 H 
ATOM     36  H15 ZVZ d   1     -18.991  -5.851  12.681  0.00  0.00     0.083 H 
BRANCH  34  37
ATOM     37  NBF ZVZ d   1     -19.360  -7.500  11.488  0.00  0.00    -0.065 N 
ATOM     38  CAP ZVZ d   1     -20.764  -7.417  11.946  0.00  0.00     0.095 C 
ATOM     39  CAR ZVZ d   1     -21.393  -8.803  11.825  0.00  0.00     0.008 C 
ATOM     40  H17 ZVZ d   1     -21.317  -6.702  11.320  0.00  0.00     0.077 H 
ATOM     41  H18 ZVZ d   1     -20.794  -7.086  12.995  0.00  0.00     0.077 H 
ATOM     42  NBG ZVZ d   1     -21.300  -9.179  10.392  0.00  0.00    -0.265 NA
ATOM     43  H19 ZVZ d   1     -22.445  -8.773  12.143  0.00  0.00     0.059 H 
ATOM     44  H20 ZVZ d   1     -20.843  -9.526  12.445  0.00  0.00     0.059 H 
ATOM     45  CAS ZVZ d   1     -19.892  -9.265   9.944  0.00  0.00     0.008 C 
ATOM     46  CAQ ZVZ d   1     -19.317  -7.862  10.048  0.00  0.00     0.095 C 
ATOM     47  H21 ZVZ d   1     -19.846  -9.618   8.903  0.00  0.00     0.059 H 
ATOM     48  H22 ZVZ d   1     -19.329  -9.955  10.590  0.00  0.00     0.059 H 
ATOM     49  H23 ZVZ d   1     -18.280  -7.847   9.682  0.00  0.00     0.077 H 
ATOM     50  H24 ZVZ d   1     -19.923  -7.157   9.460  0.00  0.00     0.077 H 
ATOM     51  H16 ZVZ d   1     -18.849  -8.177  12.033  0.00  0.00     0.280 HD
BRANCH  42  52
ATOM     52  CBD ZVZ d   1     -22.011 -10.349  10.026  0.00  0.00     0.105 A 
ATOM     53  NAV ZVZ d   1     -21.506 -11.157   9.058  0.00  0.00    -0.249 NA
ATOM     54  CAG ZVZ d   1     -22.155 -12.265   8.668  0.00  0.00     0.004 A 
ATOM     55  CAE ZVZ d   1     -23.398 -12.599   9.222  0.00  0.00    -0.066 A 
ATOM     56  H25 ZVZ d   1     -21.713 -12.909   7.916  0.00  0.00     0.114 H 
ATOM     57  CAF ZVZ d   1     -23.940 -11.787  10.215  0.00  0.00    -0.079 A 
ATOM     58  H26 ZVZ d   1     -23.931 -13.479   8.882  0.00  0.00     0.085 H 
ATOM     59  CAH ZVZ d   1     -23.246 -10.652  10.609  0.00  0.00    -0.044 A 
ATOM     60  H27 ZVZ d   1     -24.890 -12.038  10.673  0.00  0.00     0.083 H 
ATOM     61  H28 ZVZ d   1     -23.661 -10.000  11.369  0.00  0.00     0.088 H 
ENDBRANCH  42  52
ENDBRANCH  34  37
ENDBRANCH  20  34
ENDBRANCH   1  13
TORSDOF 8
