REMARK  5 active torsions:
REMARK  status: ('A' for Active; 'I' for Inactive)
REMARK    1  A    between atoms: N3_10  and  CAH_5 
REMARK    2  A    between atoms: CAJ_6  and  CAK_7 
REMARK    3  A    between atoms: CAJ_6  and  N3_10 
REMARK    4  A    between atoms: CAK_7  and  CAL_8 
REMARK    5  A    between atoms: CAL_8  and  CAM_9 
ROOT
ATOM      1  CAF IVL d   1      21.934  33.159  87.377  0.00  0.00     0.085 C 
ATOM      2  CAE IVL d   1      22.801  33.198  86.152  0.00  0.00    -0.041 C 
ATOM      3  CAD IVL d   1      23.819  32.087  86.290  0.00  0.00    -0.041 C 
ATOM      4  CAA IVL d   1      23.909  31.879  87.786  0.00  0.00     0.085 C 
ATOM      5  N3  IVL d   1      22.531  32.142  88.290  0.00  0.00    -0.071 N 
ATOM      6  H   IVL d   1      20.908  32.870  87.106  0.00  0.00     0.076 H 
ATOM      7  H   IVL d   1      21.921  34.145  87.864  0.00  0.00     0.076 H 
ATOM      8  H   IVL d   1      23.311  34.170  86.082  0.00  0.00     0.035 H 
ATOM      9  H   IVL d   1      22.189  33.039  85.252  0.00  0.00     0.035 H 
ATOM     10  H   IVL d   1      24.792  32.390  85.876  0.00  0.00     0.035 H 
ATOM     11  H   IVL d   1      23.474  31.172  85.785  0.00  0.00     0.035 H 
ATOM     12  H   IVL d   1      24.626  32.583  88.233  0.00  0.00     0.076 H 
ATOM     13  H   IVL d   1      24.216  30.848  88.016  0.00  0.00     0.076 H 
ENDROOT
BRANCH   5  14
ATOM     14  CAH IVL d   1      22.510  32.592  89.699  0.00  0.00     0.068 C 
ATOM     15  H   IVL d   1      21.470  32.769  90.012  0.00  0.00     0.068 H 
ATOM     16  H   IVL d   1      23.085  33.525  89.795  0.00  0.00     0.068 H 
ATOM     17  H   IVL d   1      22.958  31.817  90.338  0.00  0.00     0.068 H 
ENDBRANCH   5  14
BRANCH   5  18
ATOM     18  CAJ IVL d   1      21.573  31.074  88.026  0.00  0.00     0.085 C 
ATOM     19  H   IVL d   1      20.592  31.423  88.380  0.00  0.00     0.076 H 
ATOM     20  H   IVL d   1      21.540  30.929  86.936  0.00  0.00     0.076 H 
BRANCH  18  21
ATOM     21  CAK IVL d   1      21.811  29.750  88.635  0.00  0.00    -0.033 C 
ATOM     22  H   IVL d   1      21.350  29.692  89.632  0.00  0.00     0.036 H 
ATOM     23  H   IVL d   1      22.889  29.547  88.717  0.00  0.00     0.036 H 
BRANCH  21  24
ATOM     24  CAL IVL d   1      21.139  28.754  87.663  0.00  0.00     0.017 C 
ATOM     25  H   IVL d   1      21.470  28.918  86.627  0.00  0.00     0.049 H 
ATOM     26  H   IVL d   1      20.042  28.820  87.713  0.00  0.00     0.049 H 
BRANCH  24  27
ATOM     27  CAM IVL d   1      21.630  27.454  88.192  0.00  0.00     0.172 C 
ATOM     28  OAB IVL d   1      20.892  26.575  88.580  0.00  0.00    -0.648 OA
ATOM     29  OAC IVL d   1      22.934  27.333  88.263  0.00  0.00    -0.648 OA
ENDBRANCH  24  27
ENDBRANCH  21  24
ENDBRANCH  18  21
ENDBRANCH   5  18
TORSDOF 5
