REMARK WARNING: 32 MAX_TORS EXCEEDED!!!
REMARK  37 active torsions:
REMARK  status: ('A' for Active; 'I' for Inactive)
REMARK    1  A    between atoms: N_1  and  CA_2 
REMARK    2  A    between atoms: CA_2  and  C_3 
REMARK    3  A    between atoms: CA_2  and  CB_5 
REMARK       I    between atoms: C_3  and  N_10 
REMARK    4  A    between atoms: CB_5  and  CG_6 
REMARK    5  A    between atoms: CG_6  and  CD_7 
REMARK    6  A    between atoms: CD_7  and  CE_8 
REMARK    7  A    between atoms: CE_8  and  NZ_9 
REMARK    8  A    between atoms: N_10  and  CA_11 
REMARK    9  A    between atoms: CA_11  and  C_12 
REMARK   10  A    between atoms: CA_11  and  CB_14 
REMARK       I    between atoms: C_12  and  N_18 
REMARK   11  A    between atoms: CB_14  and  CG_15 
REMARK   12  A    between atoms: N_18  and  CA_19 
REMARK   13  A    between atoms: CA_19  and  C_20 
REMARK   14  A    between atoms: CA_19  and  CB_22 
REMARK       I    between atoms: C_20  and  N_27 
REMARK   15  A    between atoms: CB_22  and  CG_23 
REMARK   16  A    between atoms: CG_23  and  CD_24 
REMARK   17  A    between atoms: CD_24  and  CE_25 
REMARK   18  A    between atoms: CE_25  and  NZ_26 
REMARK   19  A    between atoms: N_27  and  CA_28 
REMARK   20  A    between atoms: CA_28  and  C_29 
REMARK   21  A    between atoms: CA_28  and  CB_31 
REMARK       I    between atoms: C_29  and  N_32 
REMARK   22  A    between atoms: N_32  and  CA_33 
REMARK   23  A    between atoms: CA_33  and  C_34 
REMARK   24  A    between atoms: CA_33  and  CB_36 
REMARK       I    between atoms: C_34  and  N_41 
REMARK   25  A    between atoms: CB_36  and  CG_37 
REMARK   26  A    between atoms: CG_37  and  CD_38 
REMARK   27  A    between atoms: CD_38  and  CE_39 
REMARK   28  A    between atoms: CE_39  and  NZ_40 
REMARK   29  A    between atoms: N_41  and  CA_42 
REMARK   30  A    between atoms: CA_42  and  CB_43 
REMARK   31  A    between atoms: CA_42  and  C_45 
REMARK   32  A    between atoms: CB_43  and  OG_44 
REMARK   33  A    between atoms: OG_44  and  P_47 
REMARK       I    between atoms: C_45  and  N_51 
REMARK   34  A    between atoms: N_51  and  CA_52 
REMARK   35  A    between atoms: CA_52  and  C_53 
REMARK   36  A    between atoms: CA_52  and  CB_55 
REMARK   37  A    between atoms: CB_55  and  SG_56 
ROOT
ATOM      1  C   LYS d   1     -18.459   6.942  -0.519  0.00  0.00     0.241 C 
ATOM      2  O   LYS d   1     -17.720   7.925  -0.451  0.00  0.00    -0.271 OA
ATOM      3  N   ALA d   1     -19.335   6.628   0.429  0.00  0.00    -0.346 N 
ATOM      4  H33 ALA d   1     -19.902   5.812   0.319  0.00  0.00     0.163 HD
ENDROOT
BRANCH   1   5
ATOM      5  CA  LYS d   1     -18.410   6.007  -1.721  0.00  0.00     0.089 C 
ATOM      6  H21 LYS d   1     -19.317   5.384  -1.712  0.00  0.00     0.087 H 
BRANCH   5   7
ATOM      7  N   LYS d   1     -18.381   6.753  -2.973  0.00  0.00    -0.346 N 
ATOM      8  C   ASP d   1     -19.421   7.459  -3.406  0.00  0.00     0.241 C 
ATOM      9  O   ASP d   1     -20.488   7.534  -2.797  0.00  0.00    -0.271 OA
ATOM     10  H20 LYS d   1     -17.548   6.733  -3.526  0.00  0.00     0.163 HD
BRANCH   8  11
ATOM     11  CA  ASP d   1     -19.213   8.192  -4.728  0.00  0.00     0.098 C 
ATOM     12  H17 ASP d   1     -18.665   7.517  -5.402  0.00  0.00     0.088 H 
BRANCH  11  13
ATOM     13  N   ASP d   1     -20.460   8.562  -5.393  0.00  0.00    -0.345 N 
ATOM     14  C   LYS d   1     -21.353   7.656  -5.783  0.00  0.00     0.249 C 
ATOM     15  O   LYS d   1     -21.243   6.455  -5.533  0.00  0.00    -0.271 OA
ATOM     16  H16 ASP d   1     -20.649   9.530  -5.561  0.00  0.00     0.163 HD
BRANCH  14  17
ATOM     17  CA  LYS d   1     -22.549   8.180  -6.575  0.00  0.00     0.176 C 
ATOM     18  H4  LYS d   1     -22.180   8.893  -7.327  0.00  0.00     0.099 H 
BRANCH  17  19
ATOM     19  N   LYS d   1     -23.223   7.090  -7.268  0.00  0.00    -0.067 N 
ATOM     20  H1  LYS d   1     -24.008   7.455  -7.784  0.00  0.00     0.275 HD
ATOM     21  H2  LYS d   1     -23.548   6.414  -6.595  0.00  0.00     0.275 HD
ATOM     22  H3  LYS d   1     -22.579   6.647  -7.904  0.00  0.00     0.275 HD
ENDBRANCH  17  19
BRANCH  17  23
ATOM     23  CB  LYS d   1     -23.528   8.915  -5.655  0.00  0.00    -0.030 C 
ATOM     24  H5  LYS d   1     -23.812   8.233  -4.840  0.00  0.00     0.036 H 
ATOM     25  H6  LYS d   1     -24.421   9.177  -6.242  0.00  0.00     0.036 H 
BRANCH  23  26
ATOM     26  CG  LYS d   1     -22.974  10.189  -5.038  0.00  0.00    -0.061 C 
ATOM     27  H7  LYS d   1     -22.445  10.761  -5.814  0.00  0.00     0.033 H 
ATOM     28  H8  LYS d   1     -22.271   9.921  -4.236  0.00  0.00     0.033 H 
BRANCH  26  29
ATOM     29  CD  LYS d   1     -24.083  11.053  -4.456  0.00  0.00    -0.043 C 
ATOM     30  H9  LYS d   1     -23.633  11.912  -3.936  0.00  0.00     0.035 H 
ATOM     31  H10 LYS d   1     -24.666  10.455  -3.740  0.00  0.00     0.035 H 
BRANCH  29  32
ATOM     32  CE  LYS d   1     -25.012  11.565  -5.546  0.00  0.00     0.080 C 
ATOM     33  H11 LYS d   1     -25.515  10.707  -6.015  0.00  0.00     0.075 H 
ATOM     34  H12 LYS d   1     -24.414  12.096  -6.301  0.00  0.00     0.075 H 
BRANCH  32  35
ATOM     35  NZ  LYS d   1     -26.047  12.495  -5.012  0.00  0.00    -0.079 N 
ATOM     36  H13 LYS d   1     -26.638  12.808  -5.766  0.00  0.00     0.274 HD
ATOM     37  H14 LYS d   1     -25.597  13.290  -4.585  0.00  0.00     0.274 HD
ATOM     38  H15 LYS d   1     -26.606  12.016  -4.324  0.00  0.00     0.274 HD
ENDBRANCH  32  35
ENDBRANCH  29  32
ENDBRANCH  26  29
ENDBRANCH  23  26
ENDBRANCH  17  23
ENDBRANCH  14  17
ENDBRANCH  11  13
BRANCH  11  39
ATOM     39  CB  ASP d   1     -18.355   9.437  -4.490  0.00  0.00     0.043 C 
ATOM     40  H18 ASP d   1     -17.611   9.209  -3.713  0.00  0.00     0.052 H 
ATOM     41  H19 ASP d   1     -19.007  10.253  -4.145  0.00  0.00     0.052 H 
BRANCH  39  42
ATOM     42  CG  ASP d   1     -17.628   9.892  -5.739  0.00  0.00     0.175 C 
ATOM     43  OD1 ASP d   1     -18.075   9.539  -6.850  0.00  0.00    -0.648 OA
ATOM     44  OD2 ASP d   1     -16.608  10.601  -5.609  0.00  0.00    -0.648 OA
ENDBRANCH  39  42
ENDBRANCH  11  39
ENDBRANCH   8  11
ENDBRANCH   5   7
BRANCH   5  45
ATOM     45  CB  LYS d   1     -17.189   5.089  -1.623  0.00  0.00    -0.038 C 
ATOM     46  H22 LYS d   1     -16.285   5.711  -1.699  0.00  0.00     0.036 H 
ATOM     47  H23 LYS d   1     -17.221   4.384  -2.466  0.00  0.00     0.036 H 
BRANCH  45  48
ATOM     48  CG  LYS d   1     -17.107   4.286  -0.335  0.00  0.00    -0.061 C 
ATOM     49  H24 LYS d   1     -17.182   4.973   0.521  0.00  0.00     0.033 H 
ATOM     50  H25 LYS d   1     -16.140   3.762  -0.301  0.00  0.00     0.033 H 
BRANCH  48  51
ATOM     51  CD  LYS d   1     -18.226   3.264  -0.247  0.00  0.00    -0.043 C 
ATOM     52  H26 LYS d   1     -18.202   2.628  -1.144  0.00  0.00     0.035 H 
ATOM     53  H27 LYS d   1     -19.190   3.792  -0.197  0.00  0.00     0.035 H 
BRANCH  51  54
ATOM     54  CE  LYS d   1     -18.078   2.387   0.985  0.00  0.00     0.080 C 
ATOM     55  H28 LYS d   1     -17.099   1.887   0.949  0.00  0.00     0.075 H 
ATOM     56  H29 LYS d   1     -18.877   1.631   0.980  0.00  0.00     0.075 H 
BRANCH  54  57
ATOM     57  NZ  LYS d   1     -18.169   3.173   2.246  0.00  0.00    -0.079 N 
ATOM     58  H30 LYS d   1     -18.066   2.555   3.035  0.00  0.00     0.274 HD
ATOM     59  H31 LYS d   1     -19.066   3.631   2.293  0.00  0.00     0.274 HD
ATOM     60  H32 LYS d   1     -17.437   3.865   2.264  0.00  0.00     0.274 HD
ENDBRANCH  54  57
ENDBRANCH  51  54
ENDBRANCH  48  51
ENDBRANCH  45  48
ENDBRANCH   5  45
ENDBRANCH   1   5
BRANCH   3  61
ATOM     61  CA  ALA d   1     -19.489   7.444   1.625  0.00  0.00     0.086 C 
ATOM     62  H34 ALA d   1     -19.305   8.493   1.351  0.00  0.00     0.086 H 
BRANCH  61  63
ATOM     63  C   ALA d   1     -18.479   7.049   2.698  0.00  0.00     0.240 C 
ATOM     64  O   ALA d   1     -18.032   5.904   2.757  0.00  0.00    -0.271 OA
ATOM     65  N   LYS d   1     -18.130   8.010   3.546  0.00  0.00    -0.346 N 
ATOM     66  H38 LYS d   1     -18.554   8.911   3.458  0.00  0.00     0.163 HD
BRANCH  65  67
ATOM     67  CA  LYS d   1     -17.149   7.792   4.600  0.00  0.00     0.089 C 
ATOM     68  H39 LYS d   1     -16.352   7.145   4.205  0.00  0.00     0.087 H 
BRANCH  67  69
ATOM     69  C   LYS d   1     -17.786   7.090   5.796  0.00  0.00     0.241 C 
ATOM     70  O   LYS d   1     -18.983   7.227   6.042  0.00  0.00    -0.271 OA
ATOM     71  N   SEP d   1     -16.977   6.338   6.534  0.00  0.00    -0.344 N 
ATOM     72  H51 SEP d   1     -15.993   6.357   6.354  0.00  0.00     0.163 HD
BRANCH  71  73
ATOM     73  CA  SEP d   1     -17.490   5.486   7.600  0.00  0.00     0.110 C 
ATOM     74  H52 SEP d   1     -18.379   5.967   8.033  0.00  0.00     0.090 H 
BRANCH  73  75
ATOM     75  CB  SEP d   1     -17.894   4.128   7.019  0.00  0.00     0.059 C 
ATOM     76  H53 SEP d   1     -18.907   4.200   6.597  0.00  0.00     0.079 H 
ATOM     77  H54 SEP d   1     -17.882   3.372   7.818  0.00  0.00     0.079 H 
BRANCH  75  78
ATOM     78  OG  SEP d   1     -16.987   3.744   5.997  0.00  0.00    -0.280 OA
BRANCH  78  79
ATOM     79  P   SEP d   1     -16.918   2.145   5.818  0.00  0.00     0.422 P 
ATOM     80  O1P SEP d   1     -17.255   1.422   7.217  0.00  0.00    -0.617 OA
ATOM     81  O2P SEP d   1     -15.429   1.741   5.357  0.00  0.00    -0.617 OA
ATOM     82  O3P SEP d   1     -17.970   1.676   4.693  0.00  0.00    -0.617 OA
ENDBRANCH  78  79
ENDBRANCH  75  78
ENDBRANCH  73  75
BRANCH  73  83
ATOM     83  C   SEP d   1     -16.462   5.285   8.708  0.00  0.00     0.243 C 
ATOM     84  O   SEP d   1     -15.328   5.752   8.608  0.00  0.00    -0.271 OA
ATOM     85  N   CYS d   1     -16.872   4.593   9.766  0.00  0.00    -0.344 N 
ATOM     86  H55 CYS d   1     -17.828   4.304   9.816  0.00  0.00     0.163 HD
BRANCH  85  87
ATOM     87  CA  CYS d   1     -15.968   4.242  10.856  0.00  0.00     0.104 C 
ATOM     88  H56 CYS d   1     -15.040   4.819  10.734  0.00  0.00     0.090 H 
BRANCH  87  89
ATOM     89  C   CYS d   1     -15.622   2.759  10.811  0.00  0.00     0.197 C 
ATOM     90  O   CYS d   1     -15.736   2.119   9.765  0.00  0.00    -0.646 OA
ATOM     91  OXT CYS d   1     -15.215   2.166  11.810  0.00  0.00    -0.646 OA
ENDBRANCH  87  89
BRANCH  87  92
ATOM     92  CB  CYS d   1     -16.583   4.599  12.211  0.00  0.00     0.003 C 
ATOM     93  H57 CYS d   1     -16.244   3.878  12.970  0.00  0.00     0.052 H 
ATOM     94  H58 CYS d   1     -17.680   4.564  12.137  0.00  0.00     0.052 H 
BRANCH  92  95
ATOM     95  SG  CYS d   1     -16.076   6.222  12.674  0.00  0.00    -0.180 SA
ATOM     96  H59 CYS d   1     -16.481   6.457  13.566  0.00  0.00     0.101 HD
ENDBRANCH  92  95
ENDBRANCH  87  92
ENDBRANCH  85  87
ENDBRANCH  73  83
ENDBRANCH  71  73
ENDBRANCH  67  69
BRANCH  67  97
ATOM     97  CB  LYS d   1     -16.527   9.125   5.015  0.00  0.00    -0.038 C 
ATOM     98  H40 LYS d   1     -15.502   8.943   5.369  0.00  0.00     0.036 H 
ATOM     99  H41 LYS d   1     -17.126   9.556   5.831  0.00  0.00     0.036 H 
BRANCH  97 100
ATOM    100  CG  LYS d   1     -16.478  10.118   3.866  0.00  0.00    -0.061 C 
ATOM    101  H42 LYS d   1     -17.399  10.719   3.882  0.00  0.00     0.033 H 
ATOM    102  H43 LYS d   1     -16.422   9.558   2.921  0.00  0.00     0.033 H 
BRANCH 100 103
ATOM    103  CD  LYS d   1     -15.286  11.056   3.944  0.00  0.00    -0.043 C 
ATOM    104  H44 LYS d   1     -15.155  11.547   2.968  0.00  0.00     0.035 H 
ATOM    105  H45 LYS d   1     -14.387  10.469   4.183  0.00  0.00     0.035 H 
BRANCH 103 106
ATOM    106  CE  LYS d   1     -15.473  12.121   5.007  0.00  0.00     0.080 C 
ATOM    107  H46 LYS d   1     -15.159  11.717   5.981  0.00  0.00     0.075 H 
ATOM    108  H47 LYS d   1     -16.535  12.403   5.052  0.00  0.00     0.075 H 
BRANCH 106 109
ATOM    109  NZ  LYS d   1     -14.660  13.330   4.694  0.00  0.00    -0.079 N 
ATOM    110  H48 LYS d   1     -14.799  14.024   5.412  0.00  0.00     0.274 HD
ATOM    111  H49 LYS d   1     -14.946  13.706   3.804  0.00  0.00     0.274 HD
ATOM    112  H50 LYS d   1     -13.685  13.078   4.655  0.00  0.00     0.274 HD
ENDBRANCH 106 109
ENDBRANCH 103 106
ENDBRANCH 100 103
ENDBRANCH  97 100
ENDBRANCH  67  97
ENDBRANCH  65  67
ENDBRANCH  61  63
BRANCH  61 113
ATOM    113  CB  ALA d   1     -20.904   7.331   2.163  0.00  0.00    -0.049 C 
ATOM    114  H35 ALA d   1     -21.004   7.952   3.065  0.00  0.00     0.030 H 
ATOM    115  H36 ALA d   1     -21.118   6.282   2.415  0.00  0.00     0.030 H 
ATOM    116  H37 ALA d   1     -21.616   7.677   1.399  0.00  0.00     0.030 H 
ENDBRANCH  61 113
ENDBRANCH   3  61
TORSDOF 37
