REMARK  9 active torsions:
REMARK  status: ('A' for Active; 'I' for Inactive)
REMARK    1  A    between atoms: C01_1  and  O02_2 
REMARK    2  A    between atoms: O02_2  and  C03_3 
REMARK    3  A    between atoms: C04_4  and  O05_5 
REMARK    4  A    between atoms: O05_5  and  C06_6 
REMARK    5  A    between atoms: C07_7  and  O29_29 
REMARK    6  A    between atoms: C09_9  and  C11_11 
REMARK    7  A    between atoms: C13_13  and  C17_17 
REMARK    8  A    between atoms: C20_20  and  N23_23 
REMARK    9  A    between atoms: O29_29  and  C30_30 
ROOT
ATOM      1  C11 844 d   1      43.784 -43.964  53.511  0.00  0.00    -0.007 A 
ATOM      2  C12 844 d   1      42.569 -44.687  53.597  0.00  0.00    -0.059 A 
ATOM      3  C13 844 d   1      41.559 -44.209  54.403  0.00  0.00    -0.007 A 
ATOM      4  C14 844 d   1      41.764 -43.043  55.148  0.00  0.00     0.013 A 
ATOM      5  N15 844 d   1      42.963 -42.393  55.036  0.00  0.00    -0.271 NA
ATOM      6  C16 844 d   1      43.955 -42.804  54.266  0.00  0.00     0.013 A 
ATOM      7  H   844 d   1      42.435 -45.605  53.036  0.00  0.00     0.086 H 
ATOM      8  H   844 d   1      40.988 -42.662  55.802  0.00  0.00     0.116 H 
ATOM      9  H   844 d   1      44.885 -42.249  54.222  0.00  0.00     0.116 H 
ENDROOT
BRANCH   3  10
ATOM     10  C17 844 d   1      40.310 -44.968  54.502  0.00  0.00    -0.024 A 
ATOM     11  C18 844 d   1      39.583 -44.961  55.678  0.00  0.00    -0.070 A 
ATOM     12  C19 844 d   1      38.346 -45.729  55.747  0.00  0.00    -0.057 A 
ATOM     13  H   844 d   1      39.927 -44.394  56.535  0.00  0.00     0.084 H 
ATOM     14  C20 844 d   1      37.907 -46.523  54.641  0.00  0.00     0.030 A 
ATOM     15  H   844 d   1      37.749 -45.698  56.651  0.00  0.00     0.086 H 
ATOM     16  C21 844 d   1      38.653 -46.544  53.526  0.00  0.00    -0.057 A 
ATOM     17  C22 844 d   1      39.874 -45.751  53.438  0.00  0.00    -0.070 A 
ATOM     18  H   844 d   1      38.346 -47.155  52.685  0.00  0.00     0.086 H 
ATOM     19  H   844 d   1      40.455 -45.772  52.523  0.00  0.00     0.084 H 
BRANCH  14  20
ATOM     20  N23 844 d   1      36.733 -47.289  54.711  0.00  0.00    -0.378 N 
ATOM     21  C24 844 d   1      36.141 -48.089  53.659  0.00  0.00     0.018 C 
ATOM     22  C25 844 d   1      35.474 -49.408  54.091  0.00  0.00     0.096 C 
ATOM     23  H   844 d   1      36.936 -48.336  52.940  0.00  0.00     0.066 H 
ATOM     24  H   844 d   1      35.376 -47.474  53.163  0.00  0.00     0.066 H 
ATOM     25  N26 844 d   1      34.669 -49.297  55.266  0.00  0.00    -0.072 N 
ATOM     26  H   844 d   1      36.265 -50.148  54.283  0.00  0.00     0.078 H 
ATOM     27  H   844 d   1      34.836 -49.758  53.267  0.00  0.00     0.078 H 
ATOM     28  C27 844 d   1      34.749 -48.014  55.904  0.00  0.00     0.096 C 
ATOM     29  H   844 d   1      34.969 -49.999  55.925  0.00  0.00     0.277 HD
ATOM     30  H   844 d   1      33.709 -49.465  55.010  0.00  0.00     0.277 HD
ATOM     31  C28 844 d   1      36.204 -47.570  55.999  0.00  0.00     0.018 C 
ATOM     32  H   844 d   1      34.322 -48.083  56.916  0.00  0.00     0.078 H 
ATOM     33  H   844 d   1      34.181 -47.278  55.316  0.00  0.00     0.078 H 
ATOM     34  H   844 d   1      36.264 -46.663  56.619  0.00  0.00     0.066 H 
ATOM     35  H   844 d   1      36.796 -48.372  56.464  0.00  0.00     0.066 H 
ENDBRANCH  14  20
ENDBRANCH   3  10
BRANCH   1  36
ATOM     36  C09 844 d   1      44.885 -44.511  52.580  0.00  0.00    -0.019 A 
ATOM     37  C08 844 d   1      44.552 -44.978  51.291  0.00  0.00    -0.037 A 
ATOM     38  C07 844 d   1      45.591 -45.480  50.413  0.00  0.00     0.105 A 
ATOM     39  H   844 d   1      43.521 -44.962  50.957  0.00  0.00     0.089 H 
ATOM     40  C04 844 d   1      46.896 -45.574  50.879  0.00  0.00     0.135 A 
ATOM     41  C03 844 d   1      47.216 -45.110  52.180  0.00  0.00     0.105 A 
ATOM     42  C10 844 d   1      46.249 -44.572  53.029  0.00  0.00    -0.037 A 
ATOM     43  H   844 d   1      46.522 -44.206  54.012  0.00  0.00     0.089 H 
BRANCH  38  44
ATOM     44  O29 844 d   1      45.348 -45.977  49.120  0.00  0.00    -0.353 OA
BRANCH  44  45
ATOM     45  C30 844 d   1      44.205 -45.662  48.459  0.00  0.00     0.010 C 
ATOM     46  H   844 d   1      44.207 -46.147  47.471  0.00  0.00     0.066 H 
ATOM     47  H   844 d   1      44.144 -44.571  48.332  0.00  0.00     0.066 H 
ATOM     48  H   844 d   1      43.338 -46.013  49.038  0.00  0.00     0.066 H 
ENDBRANCH  44  45
ENDBRANCH  38  44
BRANCH  40  49
ATOM     49  O05 844 d   1      47.932 -46.077  50.084  0.00  0.00    -0.351 OA
BRANCH  49  50
ATOM     50  C06 844 d   1      48.896 -45.125  49.716  0.00  0.00     0.011 C 
ATOM     51  H   844 d   1      49.668 -45.605  49.096  0.00  0.00     0.067 H 
ATOM     52  H   844 d   1      49.361 -44.705  50.620  0.00  0.00     0.067 H 
ATOM     53  H   844 d   1      48.415 -44.319  49.143  0.00  0.00     0.067 H 
ENDBRANCH  49  50
ENDBRANCH  40  49
BRANCH  41  54
ATOM     54  O02 844 d   1      48.548 -45.186  52.550  0.00  0.00    -0.353 OA
BRANCH  54  55
ATOM     55  C01 844 d   1      48.764 -44.910  53.872  0.00  0.00     0.010 C 
ATOM     56  H   844 d   1      49.839 -44.989  54.092  0.00  0.00     0.066 H 
ATOM     57  H   844 d   1      48.209 -45.629  54.492  0.00  0.00     0.066 H 
ATOM     58  H   844 d   1      48.418 -43.890  54.095  0.00  0.00     0.066 H 
ENDBRANCH  54  55
ENDBRANCH  41  54
ENDBRANCH   1  36
TORSDOF 9
