REMARK  9 active torsions:
REMARK  status: ('A' for Active; 'I' for Inactive)
REMARK    1  A    between atoms: O15_1  and  C14_2 
REMARK    2  A    between atoms: C14_2  and  C13_3 
REMARK    3  A    between atoms: C13_3  and  C15_4 
REMARK    4  A    between atoms: C13_3  and  N9_5 
REMARK    5  A    between atoms: N9_5  and  C9_6 
REMARK    6  A    between atoms: C11_12  and  N1_13 
REMARK    7  A    between atoms: N1_13  and  C2_14 
REMARK    8  A    between atoms: C5_19  and  S1_20 
REMARK    9  A    between atoms: S1_20  and  N4_23 
ROOT
ATOM      1  C9  3I6 d   1      12.921  -8.790  12.897  0.00  0.00     0.162 A 
ATOM      2  N10 3I6 d   1      11.784  -9.307  12.347  0.00  0.00    -0.044 NA
ATOM      3  C8  3I6 d   1      13.358  -9.175  14.173  0.00  0.00     0.075 A 
ATOM      4 BR1  3I6 d   1      15.000  -8.366  14.761  0.00  0.00    -0.045 Br
ATOM      5  C7  3I6 d   1      12.593 -10.083  14.889  0.00  0.00     0.042 A 
ATOM      6  N12 3I6 d   1      11.479 -10.534  14.261  0.00  0.00    -0.073 NA
ATOM      7  C11 3I6 d   1      11.083 -10.158  13.040  0.00  0.00     0.728 A 
ATOM      8  H9  3I6 d   1      12.867 -10.411  15.885  0.00  0.00     0.118 H 
ENDROOT
BRANCH   7   9
ATOM      9  N1  3I6 d   1      10.022 -10.720  12.509  0.00  0.00    -0.188 N 
ATOM     10  H10 3I6 d   1       9.587 -11.428  13.117  0.00  0.00     0.184 HD
BRANCH   9  11
ATOM     11  C2  3I6 d   1       9.411 -10.568  11.380  0.00  0.00     0.049 A 
ATOM     12  C3  3I6 d   1       8.263 -11.391  11.166  0.00  0.00    -0.055 A 
ATOM     13  C4  3I6 d   1       7.502 -11.202  10.015  0.00  0.00    -0.058 A 
ATOM     14  H11 3I6 d   1       7.988 -12.151  11.889  0.00  0.00     0.087 H 
ATOM     15  C5  3I6 d   1       7.823 -10.237   9.110  0.00  0.00     0.079 A 
ATOM     16  H12 3I6 d   1       6.639 -11.834   9.837  0.00  0.00     0.086 H 
ATOM     17  C6  3I6 d   1       8.970  -9.441   9.330  0.00  0.00    -0.058 A 
ATOM     18  C1  3I6 d   1       9.737  -9.597  10.456  0.00  0.00    -0.055 A 
ATOM     19  H14 3I6 d   1       9.248  -8.694   8.596  0.00  0.00     0.086 H 
ATOM     20  H13 3I6 d   1      10.598  -8.959  10.620  0.00  0.00     0.087 H 
BRANCH  15  21
ATOM     21  S1  3I6 d   1       6.785  -9.935   7.729  0.00  0.00     0.256 S 
ATOM     22  O2  3I6 d   1       5.642  -9.180   8.306  0.00  0.00    -0.201 OA
ATOM     23  O3  3I6 d   1       6.135 -11.210   7.201  0.00  0.00    -0.201 OA
BRANCH  21  24
ATOM     24  N4  3I6 d   1       7.498  -9.066   6.613  0.00  0.00    -0.324 N 
ATOM     25  H15 3I6 d   1       7.007  -8.827   5.775  0.00  0.00     0.169 HD
ATOM     26  H16 3I6 d   1       8.440  -8.756   6.746  0.00  0.00     0.169 HD
ENDBRANCH  21  24
ENDBRANCH  15  21
ENDBRANCH   9  11
ENDBRANCH   7   9
BRANCH   1  27
ATOM     27  N9  3I6 d   1      13.607  -7.866  12.160  0.00  0.00    -0.367 N 
ATOM     28  H8  3I6 d   1      14.544  -7.564  12.462  0.00  0.00     0.161 HD
BRANCH  27  29
ATOM     29  C13 3I6 d   1      13.011  -7.294  10.927  0.00  0.00     0.028 C 
ATOM     30  H4  3I6 d   1      11.917  -7.401  10.968  0.00  0.00     0.075 H 
BRANCH  29  31
ATOM     31  C14 3I6 d   1      13.348  -5.803  10.800  0.00  0.00     0.035 C 
ATOM     32  H2  3I6 d   1      12.792  -5.342   9.970  0.00  0.00     0.077 H 
ATOM     33  H3  3I6 d   1      13.124  -5.267  11.734  0.00  0.00     0.077 H 
BRANCH  31  34
ATOM     34  O15 3I6 d   1      14.724  -5.807  10.541  0.00  0.00    -0.399 OA
ATOM     35  H1  3I6 d   1      15.180  -6.223  11.263  0.00  0.00     0.209 HD
ENDBRANCH  31  34
ENDBRANCH  29  31
BRANCH  29  36
ATOM     36  C15 3I6 d   1      13.545  -8.095   9.754  0.00  0.00    -0.055 C 
ATOM     37  H5  3I6 d   1      13.282  -9.155   9.884  0.00  0.00     0.030 H 
ATOM     38  H6  3I6 d   1      14.639  -7.991   9.707  0.00  0.00     0.030 H 
ATOM     39  H7  3I6 d   1      13.101  -7.719   8.821  0.00  0.00     0.030 H 
ENDBRANCH  29  36
ENDBRANCH  27  29
ENDBRANCH   1  27
TORSDOF 9
