REMARK  8 active torsions:
REMARK  status: ('A' for Active; 'I' for Inactive)
REMARK    1  A    between atoms: CAF_1  and  CAE_2 
REMARK    2  A    between atoms: N3_9  and  CAF_1 
REMARK    3  A    between atoms: N3_9  and  CAA_3 
REMARK    4  A    between atoms: N3_9  and  CAH_4 
REMARK    5  A    between atoms: CAJ_5  and  CAK_6 
REMARK    6  A    between atoms: CAJ_5  and  N3_9 
REMARK    7  A    between atoms: CAK_6  and  CAL_7 
REMARK    8  A    between atoms: CAL_7  and  CAM_8 
ROOT
ATOM      1  N3  DLT d   1      22.504  31.855  87.496  0.00  0.00    -0.072 N 
ENDROOT
BRANCH   1   2
ATOM      2  CAF DLT d   1      23.182  32.644  88.547  0.00  0.00     0.108 C 
ATOM      3  H   DLT d   1      24.052  32.070  88.899  0.00  0.00     0.080 H 
ATOM      4  H   DLT d   1      23.523  33.589  88.099  0.00  0.00     0.080 H 
BRANCH   2   5
ATOM      5  CAE DLT d   1      22.314  32.977  89.753  0.00  0.00     0.081 C 
ATOM      6  F26 DLT d   1      22.314  31.935  90.640  0.00  0.00    -0.254 F 
ATOM      7  H   DLT d   1      21.284  33.168  89.417  0.00  0.00     0.084 H 
ATOM      8  H   DLT d   1      22.710  33.875  90.249  0.00  0.00     0.084 H 
ENDBRANCH   2   5
ENDBRANCH   1   2
BRANCH   1   9
ATOM      9  CAA DLT d   1      21.422  32.637  86.873  0.00  0.00     0.068 C 
ATOM     10  H   DLT d   1      20.933  32.032  86.096  0.00  0.00     0.068 H 
ATOM     11  H   DLT d   1      21.842  33.547  86.419  0.00  0.00     0.068 H 
ATOM     12  H   DLT d   1      20.684  32.917  87.639  0.00  0.00     0.068 H 
ENDBRANCH   1   9
BRANCH   1  13
ATOM     13  CAH DLT d   1      23.544  31.602  86.481  0.00  0.00     0.068 C 
ATOM     14  H   DLT d   1      24.361  31.018  86.930  0.00  0.00     0.068 H 
ATOM     15  H   DLT d   1      23.938  32.561  86.113  0.00  0.00     0.068 H 
ATOM     16  H   DLT d   1      23.109  31.038  85.643  0.00  0.00     0.068 H 
ENDBRANCH   1  13
BRANCH   1  17
ATOM     17  CAJ DLT d   1      22.039  30.575  88.079  0.00  0.00     0.085 C 
ATOM     18  H   DLT d   1      22.863  30.136  88.660  0.00  0.00     0.076 H 
ATOM     19  H   DLT d   1      21.189  30.783  88.746  0.00  0.00     0.076 H 
BRANCH  17  20
ATOM     20  CAK DLT d   1      21.592  29.559  87.023  0.00  0.00    -0.033 C 
ATOM     21  H   DLT d   1      22.485  29.118  86.557  0.00  0.00     0.036 H 
ATOM     22  H   DLT d   1      21.000  30.082  86.258  0.00  0.00     0.036 H 
BRANCH  20  23
ATOM     23  CAL DLT d   1      20.746  28.439  87.615  0.00  0.00     0.017 C 
ATOM     24  H   DLT d   1      20.053  28.077  86.841  0.00  0.00     0.049 H 
ATOM     25  H   DLT d   1      20.172  28.844  88.461  0.00  0.00     0.049 H 
BRANCH  23  26
ATOM     26  CAM DLT d   1      21.562  27.281  88.103  0.00  0.00     0.172 C 
ATOM     27  OAC DLT d   1      22.813  27.270  88.118  0.00  0.00    -0.648 OA
ATOM     28  OAB DLT d   1      20.892  26.321  88.507  0.00  0.00    -0.648 OA
ENDBRANCH  23  26
ENDBRANCH  20  23
ENDBRANCH  17  20
ENDBRANCH   1  17
TORSDOF 8
