REMARK  17 active torsions:
REMARK  status: ('A' for Active; 'I' for Inactive)
REMARK    1  A    between atoms: C2_2  and  C1_1 
REMARK    2  A    between atoms: O6_32  and  C2_2 
REMARK    3  A    between atoms: C4_4  and  O4_15 
REMARK    4  A    between atoms: C5_5  and  N5_12 
REMARK    5  A    between atoms: C6_6  and  C7_7 
REMARK    6  A    between atoms: C7_7  and  C8_8 
REMARK    7  A    between atoms: C7_7  and  O7_17 
REMARK    8  A    between atoms: C8_8  and  C9_9 
REMARK    9  A    between atoms: C8_8  and  O8_18 
REMARK   10  A    between atoms: C9_9  and  O9_19 
REMARK   11  A    between atoms: C10_10  and  C11_11 
REMARK       I    between atoms: N5_12  and  C10_10 
REMARK   12  A    between atoms: C1_21  and  O1_27 
REMARK   13  A    between atoms: C2_22  and  O2_28 
REMARK   14  A    between atoms: C3_23  and  O3_29 
REMARK   15  A    between atoms: C4_24  and  O4_30 
REMARK   16  A    between atoms: C6_26  and  C5_25 
REMARK   17  A    between atoms: C6_26  and  O6_32 
ROOT
ATOM      1  C2  SIA d   1      36.530  -5.442  23.084  0.00  0.00     0.258 C 
ATOM      2  C3  SIA d   1      35.205  -5.287  23.836  0.00  0.00     0.024 C 
ATOM      3  C4  SIA d   1      34.358  -6.530  23.662  0.00  0.00     0.063 C 
ATOM      4  C5  SIA d   1      35.164  -7.715  24.157  0.00  0.00     0.064 C 
ATOM      5  C6  SIA d   1      36.439  -7.852  23.321  0.00  0.00     0.091 C 
ATOM      6  O6  SIA d   1      37.195  -6.661  23.430  0.00  0.00    -0.336 OA
ATOM      7  H1  SIA d   1      34.661  -4.418  23.438  0.00  0.00     0.045 H 
ATOM      8  H2  SIA d   1      35.410  -5.133  24.906  0.00  0.00     0.045 H 
ATOM      9  H3  SIA d   1      34.140  -6.665  22.592  0.00  0.00     0.086 H 
ATOM     10  H4  SIA d   1      35.408  -7.637  25.227  0.00  0.00     0.080 H 
ATOM     11  H5  SIA d   1      36.132  -8.003  22.276  0.00  0.00     0.090 H 
ENDROOT
BRANCH   1  12
ATOM     12  C1  SIA d   1      36.272  -5.309  21.589  0.00  0.00     0.239 C 
ATOM     13  O1A SIA d   1      35.621  -4.330  21.157  0.00  0.00    -0.644 OA
ATOM     14  O1B SIA d   1      36.724  -6.179  20.817  0.00  0.00    -0.644 OA
ENDBRANCH   1  12
BRANCH   1  15
ATOM     15  O6  GAL d   1      37.398  -4.413  23.548  0.00  0.00    -0.344 OA
BRANCH  15  16
ATOM     16  C6  GAL d   1      38.680  -4.313  22.935  0.00  0.00     0.050 C 
ATOM     17  H23 SIA d   1      39.479  -4.456  23.677  0.00  0.00     0.078 H 
ATOM     18  H24 SIA d   1      38.787  -5.058  22.132  0.00  0.00     0.078 H 
BRANCH  16  19
ATOM     19  C5  GAL d   1      38.716  -2.908  22.372  0.00  0.00     0.089 C 
ATOM     20  C4  GAL d   1      39.996  -2.646  21.601  0.00  0.00     0.090 C 
ATOM     21  C3  GAL d   1      39.937  -1.223  21.027  0.00  0.00     0.092 C 
ATOM     22  H21 SIA d   1      40.075  -3.359  20.767  0.00  0.00     0.091 H 
ATOM     23  C2  GAL d   1      39.537  -0.160  22.074  0.00  0.00     0.110 C 
ATOM     24  H20 SIA d   1      39.170  -1.215  20.238  0.00  0.00     0.091 H 
ATOM     25  C1  GAL d   1      38.399  -0.613  23.012  0.00  0.00     0.156 C 
ATOM     26  H19 SIA d   1      40.419   0.066  22.691  0.00  0.00     0.094 H 
ATOM     27  O5  GAL d   1      38.620  -1.964  23.451  0.00  0.00    -0.349 OA
ATOM     28  H18 SIA d   1      37.454  -0.575  22.451  0.00  0.00     0.133 H 
ATOM     29  H22 SIA d   1      37.859  -2.776  21.695  0.00  0.00     0.090 H 
BRANCH  20  30
ATOM     30  O4  GAL d   1      41.110  -2.848  22.484  0.00  0.00    -0.390 OA
ATOM     31  H28 SIA d   1      41.044  -2.248  23.217  0.00  0.00     0.210 HD
ENDBRANCH  20  30
BRANCH  21  32
ATOM     32  O3  GAL d   1      41.195  -0.883  20.429  0.00  0.00    -0.390 OA
ATOM     33  H27 SIA d   1      41.387  -1.495  19.729  0.00  0.00     0.210 HD
ENDBRANCH  21  32
BRANCH  23  34
ATOM     34  O2  GAL d   1      39.131   1.029  21.378  0.00  0.00    -0.388 OA
ATOM     35  H26 SIA d   1      38.881   1.694  22.009  0.00  0.00     0.210 HD
ENDBRANCH  23  34
BRANCH  25  36
ATOM     36  O1  GAL d   1      38.283   0.250  24.157  0.00  0.00    -0.369 OA
ATOM     37  H25 SIA d   1      37.551  -0.033  24.693  0.00  0.00     0.212 HD
ENDBRANCH  25  36
ENDBRANCH  16  19
ENDBRANCH  15  16
ENDBRANCH   1  15
BRANCH   3  38
ATOM     38  O4  SIA d   1      33.113  -6.433  24.365  0.00  0.00    -0.393 OA
ATOM     39  H14 SIA d   1      32.625  -5.686  24.040  0.00  0.00     0.210 HD
ENDBRANCH   3  38
BRANCH   5  40
ATOM     40  C7  SIA d   1      37.403  -8.974  23.699  0.00  0.00     0.089 C 
ATOM     41  H6  SIA d   1      36.955  -9.934  23.401  0.00  0.00     0.091 H 
BRANCH  40  42
ATOM     42  C8  SIA d   1      38.762  -8.846  22.985  0.00  0.00     0.083 C 
ATOM     43  H7  SIA d   1      39.338  -8.048  23.476  0.00  0.00     0.090 H 
BRANCH  42  44
ATOM     44  C9  SIA d   1      39.574 -10.141  23.016  0.00  0.00     0.043 C 
ATOM     45  H8  SIA d   1      39.018 -10.926  22.482  0.00  0.00     0.078 H 
ATOM     46  H9  SIA d   1      39.724 -10.445  24.062  0.00  0.00     0.078 H 
BRANCH  44  47
ATOM     47  O9  SIA d   1      40.862  -9.966  22.388  0.00  0.00    -0.398 OA
ATOM     48  H17 SIA d   1      40.739  -9.707  21.482  0.00  0.00     0.209 HD
ENDBRANCH  44  47
ENDBRANCH  42  44
BRANCH  42  49
ATOM     49  O8  SIA d   1      38.566  -8.517  21.600  0.00  0.00    -0.391 OA
ATOM     50  H16 SIA d   1      39.410  -8.398  21.181  0.00  0.00     0.210 HD
ENDBRANCH  42  49
ENDBRANCH  40  42
BRANCH  40  51
ATOM     51  O7  SIA d   1      37.558  -8.962  25.110  0.00  0.00    -0.390 OA
ATOM     52  H15 SIA d   1      36.706  -9.042  25.522  0.00  0.00     0.210 HD
ENDBRANCH  40  51
ENDBRANCH   5  40
BRANCH   4  53
ATOM     53  N5  SIA d   1      34.262  -8.818  23.879  0.00  0.00    -0.352 N 
ATOM     54  C10 SIA d   1      34.347  -9.961  24.533  0.00  0.00     0.214 C 
ATOM     55  O10 SIA d   1      35.198 -10.152  25.386  0.00  0.00    -0.274 OA
ATOM     56  H13 SIA d   1      33.560  -8.709  23.175  0.00  0.00     0.163 HD
BRANCH  54  57
ATOM     57  C11 SIA d   1      33.342 -11.003  24.135  0.00  0.00    -0.003 C 
ATOM     58  H10 SIA d   1      33.498 -11.911  24.736  0.00  0.00     0.040 H 
ATOM     59  H11 SIA d   1      33.465 -11.243  23.069  0.00  0.00     0.040 H 
ATOM     60  H12 SIA d   1      32.326 -10.618  24.309  0.00  0.00     0.040 H 
ENDBRANCH  54  57
ENDBRANCH   4  53
TORSDOF 17
