REMARK  24 active torsions:
REMARK  status: ('A' for Active; 'I' for Inactive)
REMARK    1  A    between atoms: C2_2  and  C1_1 
REMARK    2  A    between atoms: O3_28  and  C2_2 
REMARK    3  A    between atoms: C4_4  and  O4_15 
REMARK    4  A    between atoms: C5_5  and  N5_12 
REMARK    5  A    between atoms: C6_6  and  C7_7 
REMARK    6  A    between atoms: C7_7  and  C8_8 
REMARK    7  A    between atoms: C7_7  and  O7_17 
REMARK    8  A    between atoms: C8_8  and  C9_9 
REMARK    9  A    between atoms: C8_8  and  O8_18 
REMARK   10  A    between atoms: C9_9  and  O9_19 
REMARK   11  A    between atoms: C10_10  and  C11_11 
REMARK       I    between atoms: N5_12  and  C10_10 
REMARK   12  A    between atoms: O4_43  and  C1_21 
REMARK   13  A    between atoms: C2_22  and  O2_27 
REMARK   14  A    between atoms: C3_23  and  O3_28 
REMARK   15  A    between atoms: C4_24  and  O4_29 
REMARK   16  A    between atoms: C5_25  and  C6_26 
REMARK   17  A    between atoms: C6_26  and  O6_31 
REMARK   18  A    between atoms: C1_32  and  O1_41 
REMARK   19  A    between atoms: N2_40  and  C2_33 
REMARK   20  A    between atoms: C3_34  and  O3_42 
REMARK   21  A    between atoms: C4_35  and  O4_43 
REMARK   22  A    between atoms: C5_36  and  C6_37 
REMARK   23  A    between atoms: C6_37  and  O6_45 
REMARK   24  A    between atoms: C7_38  and  C8_39 
REMARK       I    between atoms: C7_38  and  N2_40 
ROOT
ATOM      1  H18 SIA d   1     -22.003  25.637 101.072  0.00  0.00     0.133 H 
ATOM      2  H19 SIA d   1     -21.701  25.589  98.028  0.00  0.00     0.094 H 
ATOM      3  H20 SIA d   1     -22.952  27.823  99.684  0.00  0.00     0.091 H 
ATOM      4  H21 SIA d   1     -25.111  27.111  98.820  0.00  0.00     0.091 H 
ATOM      5  H22 SIA d   1     -24.328  26.033 100.915  0.00  0.00     0.090 H 
ATOM      6  C1  GAL d   1     -22.052  25.137 100.093  0.00  0.00     0.159 C 
ATOM      7  C2  GAL d   1     -21.805  26.135  98.977  0.00  0.00     0.110 C 
ATOM      8  C3  GAL d   1     -22.957  27.113  98.844  0.00  0.00     0.099 C 
ATOM      9  C4  GAL d   1     -24.283  26.387  98.800  0.00  0.00     0.090 C 
ATOM     10  C5  GAL d   1     -24.402  25.445  99.988  0.00  0.00     0.089 C 
ATOM     11  O5  GAL d   1     -23.324  24.513  99.935  0.00  0.00    -0.348 OA
ENDROOT
BRANCH   8  12
ATOM     12  O3  GAL d   1     -22.758  27.790  97.618  0.00  0.00    -0.336 OA
BRANCH  12  13
ATOM     13  C2  SIA d   1     -23.197  29.136  97.653  0.00  0.00     0.259 C 
ATOM     14  C3  SIA d   1     -22.301  29.982  98.551  0.00  0.00     0.024 C 
ATOM     15  C4  SIA d   1     -22.817  31.416  98.506  0.00  0.00     0.063 C 
ATOM     16  H1  SIA d   1     -21.264  29.946  98.186  0.00  0.00     0.045 H 
ATOM     17  H2  SIA d   1     -22.340  29.603  99.583  0.00  0.00     0.045 H 
ATOM     18  C5  SIA d   1     -24.255  31.424  98.976  0.00  0.00     0.064 C 
ATOM     19  H3  SIA d   1     -22.775  31.777  97.468  0.00  0.00     0.086 H 
ATOM     20  C6  SIA d   1     -25.091  30.518  98.086  0.00  0.00     0.091 C 
ATOM     21  H4  SIA d   1     -24.341  31.132 100.033  0.00  0.00     0.080 H 
ATOM     22  O6  SIA d   1     -24.553  29.197  98.107  0.00  0.00    -0.336 OA
ATOM     23  H5  SIA d   1     -25.025  30.904  97.058  0.00  0.00     0.090 H 
BRANCH  13  24
ATOM     24  C1  SIA d   1     -23.057  29.673  96.254  0.00  0.00     0.239 C 
ATOM     25  O1A SIA d   1     -21.903  29.839  95.793  0.00  0.00    -0.644 OA
ATOM     26  O1B SIA d   1     -24.097  29.932  95.614  0.00  0.00    -0.644 OA
ENDBRANCH  13  24
BRANCH  15  27
ATOM     27  O4  SIA d   1     -22.029  32.282  99.320  0.00  0.00    -0.393 OA
ATOM     28  H14 SIA d   1     -21.129  32.269  99.016  0.00  0.00     0.210 HD
ENDBRANCH  15  27
BRANCH  18  29
ATOM     29  N5  SIA d   1     -24.696  32.786  98.744  0.00  0.00    -0.352 N 
ATOM     30  C10 SIA d   1     -25.758  33.290  99.357  0.00  0.00     0.214 C 
ATOM     31  O10 SIA d   1     -26.418  32.633 100.137  0.00  0.00    -0.274 OA
ATOM     32  H13 SIA d   1     -24.185  33.361  98.104  0.00  0.00     0.163 HD
BRANCH  30  33
ATOM     33  C11 SIA d   1     -26.101  34.713  99.029  0.00  0.00    -0.003 C 
ATOM     34  H10 SIA d   1     -26.994  35.015  99.596  0.00  0.00     0.040 H 
ATOM     35  H11 SIA d   1     -26.303  34.803  97.951  0.00  0.00     0.040 H 
ATOM     36  H12 SIA d   1     -25.258  35.365  99.300  0.00  0.00     0.040 H 
ENDBRANCH  30  33
ENDBRANCH  18  29
BRANCH  20  37
ATOM     37  C7  SIA d   1     -26.554  30.486  98.472  0.00  0.00     0.089 C 
ATOM     38  H6  SIA d   1     -27.041  31.390  98.077  0.00  0.00     0.091 H 
BRANCH  37  39
ATOM     39  C8  SIA d   1     -27.259  29.271  97.896  0.00  0.00     0.083 C 
ATOM     40  H7  SIA d   1     -27.008  28.387  98.500  0.00  0.00     0.090 H 
BRANCH  39  41
ATOM     41  C9  SIA d   1     -28.770  29.470  97.912  0.00  0.00     0.043 C 
ATOM     42  H8  SIA d   1     -29.023  30.393  97.370  0.00  0.00     0.078 H 
ATOM     43  H9  SIA d   1     -29.117  29.549  98.953  0.00  0.00     0.078 H 
BRANCH  41  44
ATOM     44  O9  SIA d   1     -29.408  28.362  97.283  0.00  0.00    -0.398 OA
ATOM     45  H17 SIA d   1     -29.109  28.294  96.384  0.00  0.00     0.209 HD
ENDBRANCH  41  44
ENDBRANCH  39  41
BRANCH  39  46
ATOM     46  O8  SIA d   1     -26.812  29.069  96.551  0.00  0.00    -0.391 OA
ATOM     47  H16 SIA d   1     -27.235  28.299  96.190  0.00  0.00     0.210 HD
ENDBRANCH  39  46
ENDBRANCH  37  39
BRANCH  37  48
ATOM     48  O7  SIA d   1     -26.661  30.487  99.887  0.00  0.00    -0.390 OA
ATOM     49  H15 SIA d   1     -26.217  31.251 100.237  0.00  0.00     0.210 HD
ENDBRANCH  37  48
ENDBRANCH  20  37
ENDBRANCH  12  13
ENDBRANCH   8  12
BRANCH   7  50
ATOM     50  O2  GAL d   1     -20.586  26.826  99.252  0.00  0.00    -0.388 OA
ATOM     51  H25 SIA d   1     -19.878  26.198  99.332  0.00  0.00     0.210 HD
ENDBRANCH   7  50
BRANCH   9  52
ATOM     52  O4  GAL d   1     -24.315  25.640  97.589  0.00  0.00    -0.390 OA
ATOM     53  H26 SIA d   1     -24.240  26.233  96.850  0.00  0.00     0.210 HD
ENDBRANCH   9  52
BRANCH   6  54
ATOM     54  O4  NAG d   1     -21.031  24.160  99.979  0.00  0.00    -0.348 OA
BRANCH  54  55
ATOM     55  C4  NAG d   1     -21.027  23.233 101.055  0.00  0.00     0.095 C 
ATOM     56  C3  NAG d   1     -21.613  21.925 100.550  0.00  0.00     0.087 C 
ATOM     57  C2  NAG d   1     -21.331  20.817 101.549  0.00  0.00     0.086 C 
ATOM     58  H30 SIA d   1     -21.150  21.666  99.587  0.00  0.00     0.090 H 
ATOM     59  C1  NAG d   1     -19.844  20.760 101.861  0.00  0.00     0.151 C 
ATOM     60  H29 SIA d   1     -21.925  20.963 102.463  0.00  0.00     0.084 H 
ATOM     61  O5  NAG d   1     -19.477  21.996 102.469  0.00  0.00    -0.349 OA
ATOM     62  H28 SIA d   1     -19.275  20.629 100.929  0.00  0.00     0.132 H 
ATOM     63  C5  NAG d   1     -19.586  23.084 101.549  0.00  0.00     0.089 C 
ATOM     64  H32 SIA d   1     -18.946  22.873 100.680  0.00  0.00     0.090 H 
ATOM     65  H31 SIA d   1     -21.651  23.611 101.879  0.00  0.00     0.091 H 
BRANCH  56  66
ATOM     66  O3  NAG d   1     -23.023  22.084 100.366  0.00  0.00    -0.391 OA
ATOM     67  H40 SIA d   1     -23.183  22.773  99.731  0.00  0.00     0.210 HD
ENDBRANCH  56  66
BRANCH  57  68
ATOM     68  N2  NAG d   1     -21.622  19.540 100.920  0.00  0.00    -0.349 N 
ATOM     69  C7  NAG d   1     -21.798  18.463 101.683  0.00  0.00     0.214 C 
ATOM     70  O7  NAG d   1     -21.730  18.522 102.900  0.00  0.00    -0.274 OA
ATOM     71  H38 SIA d   1     -21.689  19.471  99.925  0.00  0.00     0.163 HD
BRANCH  69  72
ATOM     72  C8  NAG d   1     -22.082  17.174 100.973  0.00  0.00    -0.003 C 
ATOM     73  H35 SIA d   1     -22.206  16.368 101.712  0.00  0.00     0.040 H 
ATOM     74  H36 SIA d   1     -21.244  16.932 100.303  0.00  0.00     0.040 H 
ATOM     75  H37 SIA d   1     -23.005  17.276 100.383  0.00  0.00     0.040 H 
ENDBRANCH  69  72
ENDBRANCH  57  68
BRANCH  59  76
ATOM     76  O1  NAG d   1     -19.573  19.657 102.730  0.00  0.00    -0.369 OA
ATOM     77  H39 SIA d   1     -19.826  18.848 102.301  0.00  0.00     0.212 HD
ENDBRANCH  59  76
BRANCH  63  78
ATOM     78  C6  NAG d   1     -19.088  24.365 102.214  0.00  0.00     0.043 C 
ATOM     79  H33 SIA d   1     -18.756  25.073 101.441  0.00  0.00     0.078 H 
ATOM     80  H34 SIA d   1     -18.245  24.127 102.879  0.00  0.00     0.078 H 
BRANCH  78  81
ATOM     81  O6  NAG d   1     -20.144  24.955 102.977  0.00  0.00    -0.398 OA
ATOM     82  H41 SIA d   1     -19.829  25.751 103.388  0.00  0.00     0.209 HD
ENDBRANCH  78  81
ENDBRANCH  63  78
ENDBRANCH  54  55
ENDBRANCH   6  54
BRANCH  10  83
ATOM     83  C6  GAL d   1     -25.730  24.690  99.996  0.00  0.00     0.043 C 
ATOM     84  H23 SIA d   1     -26.169  24.712  98.988  0.00  0.00     0.078 H 
ATOM     85  H24 SIA d   1     -26.419  25.170 100.706  0.00  0.00     0.078 H 
BRANCH  83  86
ATOM     86  O6  GAL d   1     -25.512  23.331 100.390  0.00  0.00    -0.398 OA
ATOM     87  H27 SIA d   1     -24.918  22.916  99.776  0.00  0.00     0.209 HD
ENDBRANCH  83  86
ENDBRANCH  10  83
TORSDOF 24
