REMARK  24 active torsions:
REMARK  status: ('A' for Active; 'I' for Inactive)
REMARK    1  A    between atoms: C2_2  and  C1_1 
REMARK    2  A    between atoms: O6_31  and  C2_2 
REMARK    3  A    between atoms: C4_4  and  O4_15 
REMARK    4  A    between atoms: C5_5  and  N5_12 
REMARK    5  A    between atoms: C6_6  and  C7_7 
REMARK    6  A    between atoms: C7_7  and  C8_8 
REMARK    7  A    between atoms: C7_7  and  O7_17 
REMARK    8  A    between atoms: C8_8  and  C9_9 
REMARK    9  A    between atoms: C8_8  and  O8_18 
REMARK   10  A    between atoms: C9_9  and  O9_19 
REMARK   11  A    between atoms: C10_10  and  C11_11 
REMARK       I    between atoms: N5_12  and  C10_10 
REMARK   12  A    between atoms: O4_43  and  C1_21 
REMARK   13  A    between atoms: C2_22  and  O2_27 
REMARK   14  A    between atoms: C3_23  and  O3_28 
REMARK   15  A    between atoms: C4_24  and  O4_29 
REMARK   16  A    between atoms: C5_25  and  C6_26 
REMARK   17  A    between atoms: C6_26  and  O6_31 
REMARK   18  A    between atoms: C1_32  and  O1_41 
REMARK   19  A    between atoms: N2_40  and  C2_33 
REMARK   20  A    between atoms: C3_34  and  O3_42 
REMARK   21  A    between atoms: C4_35  and  O4_43 
REMARK   22  A    between atoms: C5_36  and  C6_37 
REMARK   23  A    between atoms: C6_37  and  O6_45 
REMARK   24  A    between atoms: C7_38  and  C8_39 
REMARK       I    between atoms: C7_38  and  N2_40 
ROOT
ATOM      1  H18 SIA d   1     -21.411  31.622 -45.929  0.00  0.00     0.133 H 
ATOM      2  H19 SIA d   1     -24.044  33.144 -45.629  0.00  0.00     0.094 H 
ATOM      3  H20 SIA d   1     -21.506  33.591 -44.014  0.00  0.00     0.091 H 
ATOM      4  H21 SIA d   1     -22.432  32.445 -42.144  0.00  0.00     0.091 H 
ATOM      5  H22 SIA d   1     -21.327  30.998 -43.779  0.00  0.00     0.090 H 
ATOM      6  C1  GAL d   1     -22.510  31.668 -45.908  0.00  0.00     0.159 C 
ATOM      7  C2  GAL d   1     -22.952  33.071 -45.518  0.00  0.00     0.110 C 
ATOM      8  C3  GAL d   1     -22.588  33.403 -44.068  0.00  0.00     0.092 C 
ATOM      9  C4  GAL d   1     -22.926  32.259 -43.109  0.00  0.00     0.090 C 
ATOM     10  C5  GAL d   1     -22.420  30.932 -43.674  0.00  0.00     0.089 C 
ATOM     11  O5  GAL d   1     -23.008  30.730 -44.958  0.00  0.00    -0.348 OA
ENDROOT
BRANCH  10  12
ATOM     12  C6  GAL d   1     -22.745  29.723 -42.807  0.00  0.00     0.050 C 
ATOM     13  H23 SIA d   1     -23.830  29.662 -42.636  0.00  0.00     0.078 H 
ATOM     14  H24 SIA d   1     -22.226  29.801 -41.840  0.00  0.00     0.078 H 
BRANCH  12  15
ATOM     15  O6  GAL d   1     -22.293  28.563 -43.515  0.00  0.00    -0.344 OA
BRANCH  15  16
ATOM     16  C2  SIA d   1     -22.964  27.333 -43.245  0.00  0.00     0.258 C 
ATOM     17  C3  SIA d   1     -22.198  26.238 -43.994  0.00  0.00     0.024 C 
ATOM     18  C4  SIA d   1     -22.946  24.911 -43.959  0.00  0.00     0.063 C 
ATOM     19  H1  SIA d   1     -21.212  26.105 -43.524  0.00  0.00     0.045 H 
ATOM     20  H2  SIA d   1     -22.066  26.547 -45.041  0.00  0.00     0.045 H 
ATOM     21  C5  SIA d   1     -24.378  25.088 -44.454  0.00  0.00     0.064 C 
ATOM     22  H3  SIA d   1     -22.976  24.552 -42.919  0.00  0.00     0.086 H 
ATOM     23  C6  SIA d   1     -25.079  26.184 -43.658  0.00  0.00     0.091 C 
ATOM     24  H4  SIA d   1     -24.401  25.313 -45.530  0.00  0.00     0.080 H 
ATOM     25  O6  SIA d   1     -24.313  27.400 -43.740  0.00  0.00    -0.336 OA
ATOM     26  H5  SIA d   1     -25.108  25.865 -42.606  0.00  0.00     0.090 H 
BRANCH  16  27
ATOM     27  C1  SIA d   1     -22.927  27.094 -41.747  0.00  0.00     0.239 C 
ATOM     28  O1A SIA d   1     -21.834  26.763 -41.253  0.00  0.00    -0.644 OA
ATOM     29  O1B SIA d   1     -23.966  27.260 -41.053  0.00  0.00    -0.644 OA
ENDBRANCH  16  27
BRANCH  18  30
ATOM     30  O4  SIA d   1     -22.266  23.940 -44.760  0.00  0.00    -0.393 OA
ATOM     31  H14 SIA d   1     -21.376  23.837 -44.444  0.00  0.00     0.210 HD
ENDBRANCH  18  30
BRANCH  21  32
ATOM     32  N5  SIA d   1     -25.051  23.830 -44.152  0.00  0.00    -0.352 N 
ATOM     33  C10 SIA d   1     -25.967  23.282 -44.950  0.00  0.00     0.214 C 
ATOM     34  O10 SIA d   1     -26.328  23.794 -45.996  0.00  0.00    -0.274 OA
ATOM     35  H13 SIA d   1     -24.814  23.355 -43.304  0.00  0.00     0.163 HD
BRANCH  33  36
ATOM     36  C11 SIA d   1     -26.552  21.986 -44.470  0.00  0.00    -0.003 C 
ATOM     37  H10 SIA d   1     -27.292  21.625 -45.200  0.00  0.00     0.040 H 
ATOM     38  H11 SIA d   1     -27.042  22.143 -43.498  0.00  0.00     0.040 H 
ATOM     39  H12 SIA d   1     -25.751  21.240 -44.361  0.00  0.00     0.040 H 
ENDBRANCH  33  36
ENDBRANCH  21  32
BRANCH  23  40
ATOM     40  C7  SIA d   1     -26.529  26.436 -44.103  0.00  0.00     0.089 C 
ATOM     41  H6  SIA d   1     -27.121  25.551 -43.828  0.00  0.00     0.091 H 
BRANCH  40  42
ATOM     42  C8  SIA d   1     -27.160  27.654 -43.419  0.00  0.00     0.083 C 
ATOM     43  H7  SIA d   1     -26.738  28.568 -43.863  0.00  0.00     0.090 H 
BRANCH  42  44
ATOM     44  C9  SIA d   1     -28.673  27.650 -43.623  0.00  0.00     0.043 C 
ATOM     45  H8  SIA d   1     -29.095  26.750 -43.151  0.00  0.00     0.078 H 
ATOM     46  H9  SIA d   1     -28.888  27.633 -44.702  0.00  0.00     0.078 H 
BRANCH  44  47
ATOM     47  O9  SIA d   1     -29.287  28.811 -43.044  0.00  0.00    -0.398 OA
ATOM     48  H17 SIA d   1     -29.110  28.830 -42.111  0.00  0.00     0.209 HD
ENDBRANCH  44  47
ENDBRANCH  42  44
BRANCH  42  49
ATOM     49  O8  SIA d   1     -26.882  27.646 -42.009  0.00  0.00    -0.391 OA
ATOM     50  H16 SIA d   1     -25.942  27.648 -41.873  0.00  0.00     0.210 HD
ENDBRANCH  42  49
ENDBRANCH  40  42
BRANCH  40  51
ATOM     51  O7  SIA d   1     -26.596  26.599 -45.523  0.00  0.00    -0.390 OA
ATOM     52  H15 SIA d   1     -26.205  25.844 -45.946  0.00  0.00     0.210 HD
ENDBRANCH  40  51
ENDBRANCH  23  40
ENDBRANCH  15  16
ENDBRANCH  12  15
ENDBRANCH  10  12
BRANCH   9  53
ATOM     53  O4  GAL d   1     -24.343  32.201 -42.900  0.00  0.00    -0.390 OA
ATOM     54  H27 SIA d   1     -24.645  33.031 -42.549  0.00  0.00     0.210 HD
ENDBRANCH   9  53
BRANCH   8  55
ATOM     55  O3  GAL d   1     -23.289  34.591 -43.677  0.00  0.00    -0.390 OA
ATOM     56  H26 SIA d   1     -24.225  34.428 -43.701  0.00  0.00     0.210 HD
ENDBRANCH   8  55
BRANCH   6  57
ATOM     57  O4  NAG d   1     -23.026  31.350 -47.201  0.00  0.00    -0.348 OA
BRANCH  57  58
ATOM     58  C4  NAG d   1     -22.166  30.514 -47.979  0.00  0.00     0.095 C 
ATOM     59  C3  NAG d   1     -22.565  29.050 -47.783  0.00  0.00     0.087 C 
ATOM     60  C2  NAG d   1     -21.881  28.212 -48.856  0.00  0.00     0.086 C 
ATOM     61  H30 SIA d   1     -23.655  28.956 -47.893  0.00  0.00     0.090 H 
ATOM     62  C1  NAG d   1     -22.362  28.723 -50.210  0.00  0.00     0.151 C 
ATOM     63  H29 SIA d   1     -20.788  28.307 -48.774  0.00  0.00     0.084 H 
ATOM     64  O5  NAG d   1     -21.799  30.024 -50.388  0.00  0.00    -0.349 OA
ATOM     65  H28 SIA d   1     -23.460  28.789 -50.212  0.00  0.00     0.132 H 
ATOM     66  C5  NAG d   1     -22.244  31.000 -49.433  0.00  0.00     0.089 C 
ATOM     67  H32 SIA d   1     -23.293  31.246 -49.654  0.00  0.00     0.090 H 
ATOM     68  H31 SIA d   1     -21.130  30.633 -47.630  0.00  0.00     0.091 H 
BRANCH  59  69
ATOM     69  O3  NAG d   1     -22.193  28.593 -46.476  0.00  0.00    -0.391 OA
ATOM     70  H40 SIA d   1     -22.632  29.122 -45.820  0.00  0.00     0.210 HD
ENDBRANCH  59  69
BRANCH  60  71
ATOM     71  N2  NAG d   1     -22.272  26.809 -48.719  0.00  0.00    -0.349 N 
ATOM     72  C7  NAG d   1     -21.480  25.903 -48.139  0.00  0.00     0.214 C 
ATOM     73  O7  NAG d   1     -20.386  26.182 -47.670  0.00  0.00    -0.274 OA
ATOM     74  H38 SIA d   1     -23.162  26.518 -49.071  0.00  0.00     0.163 HD
BRANCH  72  75
ATOM     75  C8  NAG d   1     -22.023  24.504 -48.092  0.00  0.00    -0.003 C 
ATOM     76  H35 SIA d   1     -21.295  23.845 -47.597  0.00  0.00     0.040 H 
ATOM     77  H36 SIA d   1     -22.204  24.146 -49.116  0.00  0.00     0.040 H 
ATOM     78  H37 SIA d   1     -22.968  24.496 -47.528  0.00  0.00     0.040 H 
ENDBRANCH  72  75
ENDBRANCH  60  71
BRANCH  62  79
ATOM     79  O1  NAG d   1     -21.947  27.854 -51.260  0.00  0.00    -0.369 OA
ATOM     80  H39 SIA d   1     -22.237  28.206 -52.094  0.00  0.00     0.212 HD
ENDBRANCH  62  79
BRANCH  66  81
ATOM     81  C6  NAG d   1     -21.390  32.256 -49.598  0.00  0.00     0.043 C 
ATOM     82  H33 SIA d   1     -20.401  31.976 -49.988  0.00  0.00     0.078 H 
ATOM     83  H34 SIA d   1     -21.273  32.748 -48.621  0.00  0.00     0.078 H 
BRANCH  81  84
ATOM     84  O6  NAG d   1     -22.022  33.159 -50.512  0.00  0.00    -0.398 OA
ATOM     85  H41 SIA d   1     -21.485  33.937 -50.609  0.00  0.00     0.209 HD
ENDBRANCH  81  84
ENDBRANCH  66  81
ENDBRANCH  57  58
ENDBRANCH   6  57
BRANCH   7  86
ATOM     86  O2  GAL d   1     -22.325  34.000 -46.408  0.00  0.00    -0.388 OA
ATOM     87  H25 SIA d   1     -22.557  33.785 -47.304  0.00  0.00     0.210 HD
ENDBRANCH   7  86
TORSDOF 24
