REMARK  24 active torsions:
REMARK  status: ('A' for Active; 'I' for Inactive)
REMARK    1  A    between atoms: C2_2  and  C1_1 
REMARK    2  A    between atoms: O3_28  and  C2_2 
REMARK    3  A    between atoms: C4_4  and  O4_15 
REMARK    4  A    between atoms: C5_5  and  N5_12 
REMARK    5  A    between atoms: C6_6  and  C7_7 
REMARK    6  A    between atoms: C7_7  and  C8_8 
REMARK    7  A    between atoms: C7_7  and  O7_17 
REMARK    8  A    between atoms: C8_8  and  C9_9 
REMARK    9  A    between atoms: C8_8  and  O8_18 
REMARK   10  A    between atoms: C9_9  and  O9_19 
REMARK   11  A    between atoms: C10_10  and  C11_11 
REMARK       I    between atoms: N5_12  and  C10_10 
REMARK   12  A    between atoms: O4_43  and  C1_21 
REMARK   13  A    between atoms: C2_22  and  O2_27 
REMARK   14  A    between atoms: C3_23  and  O3_28 
REMARK   15  A    between atoms: C4_24  and  O4_29 
REMARK   16  A    between atoms: C5_25  and  C6_26 
REMARK   17  A    between atoms: C6_26  and  O6_31 
REMARK   18  A    between atoms: C1_32  and  O1_41 
REMARK   19  A    between atoms: N2_40  and  C2_33 
REMARK   20  A    between atoms: C3_34  and  O3_42 
REMARK   21  A    between atoms: C4_35  and  O4_43 
REMARK   22  A    between atoms: C5_36  and  C6_37 
REMARK   23  A    between atoms: C6_37  and  O6_45 
REMARK   24  A    between atoms: C7_38  and  C8_39 
REMARK       I    between atoms: C7_38  and  N2_40 
ROOT
ATOM      1  H18 SIA d   1      27.105  -2.507 -11.945  0.00  0.00     0.133 H 
ATOM      2  H19 SIA d   1      29.140  -1.193 -10.075  0.00  0.00     0.094 H 
ATOM      3  H20 SIA d   1      27.643  -0.021 -12.467  0.00  0.00     0.091 H 
ATOM      4  H21 SIA d   1      29.706  -0.083 -13.696  0.00  0.00     0.091 H 
ATOM      5  H22 SIA d   1      28.447  -2.148 -13.841  0.00  0.00     0.090 H 
ATOM      6  C1  GAL d   1      27.995  -2.535 -11.300  0.00  0.00     0.159 C 
ATOM      7  C2  GAL d   1      28.266  -1.145 -10.742  0.00  0.00     0.110 C 
ATOM      8  C3  GAL d   1      28.559  -0.180 -11.880  0.00  0.00     0.099 C 
ATOM      9  C4  GAL d   1      29.654  -0.716 -12.798  0.00  0.00     0.090 C 
ATOM     10  C5  GAL d   1      29.355  -2.149 -13.220  0.00  0.00     0.089 C 
ATOM     11  O5  GAL d   1      29.126  -2.956 -12.065  0.00  0.00    -0.348 OA
ENDROOT
BRANCH   8  12
ATOM     12  O3  GAL d   1      28.989   1.053 -11.313  0.00  0.00    -0.336 OA
BRANCH  12  13
ATOM     13  C2  SIA d   1      28.245   2.225 -11.642  0.00  0.00     0.259 C 
ATOM     14  C3  SIA d   1      28.955   3.340 -10.872  0.00  0.00     0.024 C 
ATOM     15  C4  SIA d   1      28.178   4.643 -10.899  0.00  0.00     0.063 C 
ATOM     16  H1  SIA d   1      29.944   3.508 -11.324  0.00  0.00     0.045 H 
ATOM     17  H2  SIA d   1      29.079   3.024  -9.826  0.00  0.00     0.045 H 
ATOM     18  C5  SIA d   1      26.753   4.410 -10.416  0.00  0.00     0.064 C 
ATOM     19  H3  SIA d   1      28.142   5.017 -11.933  0.00  0.00     0.086 H 
ATOM     20  C6  SIA d   1      26.092   3.311 -11.255  0.00  0.00     0.091 C 
ATOM     21  H4  SIA d   1      26.737   4.148  -9.348  0.00  0.00     0.080 H 
ATOM     22  O6  SIA d   1      26.886   2.112 -11.183  0.00  0.00    -0.336 OA
ATOM     23  H5  SIA d   1      26.077   3.653 -12.300  0.00  0.00     0.090 H 
BRANCH  13  24
ATOM     24  C1  SIA d   1      28.308   2.460 -13.145  0.00  0.00     0.239 C 
ATOM     25  O1A SIA d   1      29.413   2.747 -13.648  0.00  0.00    -0.644 OA
ATOM     26  O1B SIA d   1      27.268   2.353 -13.842  0.00  0.00    -0.644 OA
ENDBRANCH  13  24
BRANCH  15  27
ATOM     27  O4  SIA d   1      28.849   5.607 -10.084  0.00  0.00    -0.393 OA
ATOM     28  H14 SIA d   1      29.733   5.732 -10.407  0.00  0.00     0.210 HD
ENDBRANCH  15  27
BRANCH  18  29
ATOM     29  N5  SIA d   1      26.030   5.650 -10.673  0.00  0.00    -0.352 N 
ATOM     30  C10 SIA d   1      25.104   6.146  -9.852  0.00  0.00     0.214 C 
ATOM     31  O10 SIA d   1      24.769   5.606  -8.812  0.00  0.00    -0.274 OA
ATOM     32  H13 SIA d   1      26.240   6.155 -11.510  0.00  0.00     0.163 HD
BRANCH  30  33
ATOM     33  C11 SIA d   1      24.460   7.421 -10.302  0.00  0.00    -0.003 C 
ATOM     34  H10 SIA d   1      23.717   7.740  -9.556  0.00  0.00     0.040 H 
ATOM     35  H11 SIA d   1      23.962   7.259 -11.269  0.00  0.00     0.040 H 
ATOM     36  H12 SIA d   1      25.228   8.201 -10.411  0.00  0.00     0.040 H 
ENDBRANCH  30  33
ENDBRANCH  18  29
BRANCH  20  37
ATOM     37  C7  SIA d   1      24.643   3.017 -10.845  0.00  0.00     0.089 C 
ATOM     38  H6  SIA d   1      24.040   3.907 -11.079  0.00  0.00     0.091 H 
BRANCH  37  39
ATOM     39  C8  SIA d   1      24.010   1.816 -11.569  0.00  0.00     0.083 C 
ATOM     40  H7  SIA d   1      24.375   0.894 -11.093  0.00  0.00     0.090 H 
BRANCH  39  41
ATOM     41  C9  SIA d   1      22.488   1.870 -11.454  0.00  0.00     0.043 C 
ATOM     42  H8  SIA d   1      22.121   2.771 -11.967  0.00  0.00     0.078 H 
ATOM     43  H9  SIA d   1      22.210   1.915 -10.391  0.00  0.00     0.078 H 
BRANCH  41  44
ATOM     44  O9  SIA d   1      21.880   0.714 -12.048  0.00  0.00    -0.398 OA
ATOM     45  H17 SIA d   1      22.113   0.672 -12.968  0.00  0.00     0.209 HD
ENDBRANCH  41  44
ENDBRANCH  39  41
BRANCH  39  46
ATOM     46  O8  SIA d   1      24.351   1.781 -12.964  0.00  0.00    -0.391 OA
ATOM     47  H16 SIA d   1      25.296   1.747 -13.057  0.00  0.00     0.210 HD
ENDBRANCH  39  46
ENDBRANCH  37  39
BRANCH  37  48
ATOM     48  O7  SIA d   1      24.600   2.786  -9.434  0.00  0.00    -0.390 OA
ATOM     49  H15 SIA d   1      24.990   3.525  -8.981  0.00  0.00     0.210 HD
ENDBRANCH  37  48
ENDBRANCH  20  37
ENDBRANCH  12  13
ENDBRANCH   8  12
BRANCH   7  50
ATOM     50  O2  GAL d   1      27.139  -0.671 -10.000  0.00  0.00    -0.388 OA
ATOM     51  H25 SIA d   1      27.333   0.189  -9.647  0.00  0.00     0.210 HD
ENDBRANCH   7  50
BRANCH   9  52
ATOM     52  O4  GAL d   1      30.916  -0.679 -12.122  0.00  0.00    -0.390 OA
ATOM     53  H26 SIA d   1      31.106   0.213 -11.857  0.00  0.00     0.210 HD
ENDBRANCH   9  52
BRANCH   6  54
ATOM     54  O4  NAG d   1      27.772  -3.443 -10.223  0.00  0.00    -0.348 OA
BRANCH  54  55
ATOM     55  C4  NAG d   1      27.362  -4.754 -10.631  0.00  0.00     0.095 C 
ATOM     56  C3  NAG d   1      28.596  -5.653 -10.782  0.00  0.00     0.087 C 
ATOM     57  C2  NAG d   1      28.293  -7.145 -10.672  0.00  0.00     0.086 C 
ATOM     58  H30 SIA d   1      29.313  -5.384  -9.993  0.00  0.00     0.090 H 
ATOM     59  C1  NAG d   1      27.287  -7.456  -9.572  0.00  0.00     0.151 C 
ATOM     60  H29 SIA d   1      27.936  -7.536 -11.636  0.00  0.00     0.084 H 
ATOM     61  O5  NAG d   1      26.118  -6.664  -9.773  0.00  0.00    -0.349 OA
ATOM     62  H28 SIA d   1      27.728  -7.223  -8.591  0.00  0.00     0.132 H 
ATOM     63  C5  NAG d   1      26.358  -5.267  -9.598  0.00  0.00     0.089 C 
ATOM     64  H32 SIA d   1      26.776  -5.102  -8.594  0.00  0.00     0.090 H 
ATOM     65  H31 SIA d   1      26.860  -4.692 -11.608  0.00  0.00     0.091 H 
BRANCH  56  66
ATOM     66  O3  NAG d   1      29.194  -5.427 -12.066  0.00  0.00    -0.391 OA
ATOM     67  H40 SIA d   1      29.453  -4.516 -12.137  0.00  0.00     0.210 HD
ENDBRANCH  56  66
BRANCH  57  68
ATOM     68  N2  NAG d   1      29.549  -7.774 -10.266  0.00  0.00    -0.349 N 
ATOM     69  C7  NAG d   1      30.055  -8.926 -10.725  0.00  0.00     0.214 C 
ATOM     70  O7  NAG d   1      31.124  -9.338 -10.300  0.00  0.00    -0.274 OA
ATOM     71  H38 SIA d   1      30.087  -7.294  -9.573  0.00  0.00     0.163 HD
BRANCH  69  72
ATOM     72  C8  NAG d   1      29.294  -9.699 -11.769  0.00  0.00    -0.003 C 
ATOM     73  H35 SIA d   1      29.851 -10.611 -12.028  0.00  0.00     0.040 H 
ATOM     74  H36 SIA d   1      29.170  -9.077 -12.668  0.00  0.00     0.040 H 
ATOM     75  H37 SIA d   1      28.305  -9.973 -11.374  0.00  0.00     0.040 H 
ENDBRANCH  69  72
ENDBRANCH  57  68
BRANCH  59  76
ATOM     76  O1  NAG d   1      26.935  -8.841  -9.622  0.00  0.00    -0.369 OA
ATOM     77  H39 SIA d   1      27.713  -9.369  -9.488  0.00  0.00     0.212 HD
ENDBRANCH  59  76
BRANCH  63  78
ATOM     78  C6  NAG d   1      25.032  -4.517  -9.709  0.00  0.00     0.043 C 
ATOM     79  H33 SIA d   1      24.512  -4.829 -10.627  0.00  0.00     0.078 H 
ATOM     80  H34 SIA d   1      25.227  -3.435  -9.748  0.00  0.00     0.078 H 
BRANCH  78  81
ATOM     81  O6  NAG d   1      24.211  -4.812  -8.573  0.00  0.00    -0.398 OA
ATOM     82  H41 SIA d   1      24.042  -5.746  -8.540  0.00  0.00     0.209 HD
ENDBRANCH  78  81
ENDBRANCH  63  78
ENDBRANCH  54  55
ENDBRANCH   6  54
BRANCH  10  83
ATOM     83  C6  GAL d   1      30.497  -2.746 -14.031  0.00  0.00     0.043 C 
ATOM     84  H23 SIA d   1      31.327  -3.013 -13.360  0.00  0.00     0.078 H 
ATOM     85  H24 SIA d   1      30.847  -2.013 -14.773  0.00  0.00     0.078 H 
BRANCH  83  86
ATOM     86  O6  GAL d   1      30.022  -3.919 -14.700  0.00  0.00    -0.398 OA
ATOM     87  H27 SIA d   1      29.720  -4.549 -14.056  0.00  0.00     0.209 HD
ENDBRANCH  83  86
ENDBRANCH  10  83
TORSDOF 24
