REMARK  8 active torsions:
REMARK  status: ('A' for Active; 'I' for Inactive)
REMARK    1  A    between atoms: N1_1  and  C8_2 
REMARK    2  A    between atoms: C2_7  and  N1_1 
REMARK    3  A    between atoms: N1_1  and  C9_8 
REMARK    4  A    between atoms: N1_1  and  C10_9 
REMARK    5  A    between atoms: C6_6  and  C5_4 
REMARK    6  A    between atoms: C3_10  and  C6_6 
REMARK    7  A    between atoms: C2_7  and  C3_10 
REMARK    8  A    between atoms: C2_7  and  C21_11 
ROOT
ATOM      1  C2  MZT d   1      21.752  30.711  88.055  0.00  0.00     0.102 C 
ATOM      2  H   MZT d   1      20.725  31.055  88.249  0.00  0.00     0.084 H 
ENDROOT
BRANCH   1   3
ATOM      3  N1  MZT d   1      22.550  31.945  87.714  0.00  0.00    -0.075 N 
BRANCH   3   4
ATOM      4  C8  MZT d   1      22.561  32.860  88.868  0.00  0.00     0.068 C 
ATOM      5  H   MZT d   1      23.143  33.759  88.618  0.00  0.00     0.068 H 
ATOM      6  H   MZT d   1      23.019  32.355  89.732  0.00  0.00     0.068 H 
ATOM      7  H   MZT d   1      21.529  33.149  89.117  0.00  0.00     0.068 H 
ENDBRANCH   3   4
BRANCH   3   8
ATOM      8  C9  MZT d   1      21.911  32.667  86.609  0.00  0.00     0.068 C 
ATOM      9  H   MZT d   1      22.500  33.564  86.368  0.00  0.00     0.068 H 
ATOM     10  H   MZT d   1      20.894  32.964  86.905  0.00  0.00     0.068 H 
ATOM     11  H   MZT d   1      21.860  32.014  85.725  0.00  0.00     0.068 H 
ENDBRANCH   3   8
BRANCH   3  12
ATOM     12  C10 MZT d   1      23.940  31.664  87.301  0.00  0.00     0.068 C 
ATOM     13  H   MZT d   1      24.459  31.121  88.105  0.00  0.00     0.068 H 
ATOM     14  H   MZT d   1      24.462  32.612  87.103  0.00  0.00     0.068 H 
ATOM     15  H   MZT d   1      23.934  31.050  86.388  0.00  0.00     0.068 H 
ENDBRANCH   3  12
ENDBRANCH   1   3
BRANCH   1  16
ATOM     16  C3  MZT d   1      21.687  29.704  86.909  0.00  0.00    -0.029 C 
ATOM     17  H   MZT d   1      21.270  30.200  86.020  0.00  0.00     0.036 H 
ATOM     18  H   MZT d   1      22.704  29.349  86.687  0.00  0.00     0.036 H 
BRANCH  16  19
ATOM     19  C6  MZT d   1      20.810  28.506  87.266  0.00  0.00     0.018 C 
ATOM     20  H   MZT d   1      20.023  28.851  87.953  0.00  0.00     0.049 H 
ATOM     21  H   MZT d   1      20.350  28.131  86.340  0.00  0.00     0.049 H 
BRANCH  19  22
ATOM     22  C5  MZT d   1      21.549  27.347  87.933  0.00  0.00     0.172 C 
ATOM     23  O4  MZT d   1      22.779  27.163  87.882  0.00  0.00    -0.648 OA
ATOM     24  O7  MZT d   1      20.848  26.540  88.531  0.00  0.00    -0.648 OA
ENDBRANCH  19  22
ENDBRANCH  16  19
ENDBRANCH   1  16
BRANCH   1  25
ATOM     25  C21 MZT d   1      22.222  29.982  89.301  0.00  0.00    -0.049 C 
ATOM     26  H   MZT d   1      21.586  29.101  89.472  0.00  0.00     0.030 H 
ATOM     27  H   MZT d   1      22.155  30.656  90.168  0.00  0.00     0.030 H 
ATOM     28  H   MZT d   1      23.265  29.661  89.166  0.00  0.00     0.030 H 
ENDBRANCH   1  25
TORSDOF 8
