REMARK  8 active torsions:
REMARK  status: ('A' for Active; 'I' for Inactive)
REMARK    1  A    between atoms: C5_2  and  C6_4 
REMARK    2  A    between atoms: C6_4  and  C3_5 
REMARK    3  A    between atoms: C3_5  and  N2_6 
REMARK    4  A    between atoms: N2_6  and  C21_7 
REMARK    5  A    between atoms: N2_6  and  N1_8 
REMARK    6  A    between atoms: N1_8  and  C8_9 
REMARK    7  A    between atoms: N1_8  and  C9_10 
REMARK    8  A    between atoms: N1_8  and  C10_11 
ROOT
ATOM      1  N2  RUJ d   1      21.995  30.677  88.110  0.00  0.00     0.080 N 
ATOM      2  H   RUJ d   1      22.697  30.213  87.555  0.00  0.00     0.315 HD
ENDROOT
BRANCH   1   3
ATOM      3  C3  RUJ d   1      20.932  29.888  87.482  0.00  0.00     0.120 C 
ATOM      4  H   RUJ d   1      20.188  29.628  88.249  0.00  0.00     0.080 H 
ATOM      5  H   RUJ d   1      20.455  30.500  86.702  0.00  0.00     0.080 H 
BRANCH   3   6
ATOM      6  C6  RUJ d   1      21.439  28.616  86.853  0.00  0.00     0.040 C 
ATOM      7  H   RUJ d   1      20.672  28.275  86.142  0.00  0.00     0.051 H 
ATOM      8  H   RUJ d   1      22.360  28.867  86.307  0.00  0.00     0.051 H 
BRANCH   6   9
ATOM      9  C5  RUJ d   1      21.762  27.439  87.769  0.00  0.00     0.174 C 
ATOM     10  O4  RUJ d   1      20.858  26.847  88.387  0.00  0.00    -0.648 OA
ATOM     11  O7  RUJ d   1      22.962  27.054  87.818  0.00  0.00    -0.648 OA
ENDBRANCH   6   9
ENDBRANCH   3   6
ENDBRANCH   1   3
BRANCH   1  12
ATOM     12  C21 RUJ d   1      22.481  30.059  89.334  0.00  0.00     0.093 C 
ATOM     13  H   RUJ d   1      21.963  29.101  89.492  0.00  0.00     0.071 H 
ATOM     14  H   RUJ d   1      22.284  30.727  90.185  0.00  0.00     0.071 H 
ATOM     15  H   RUJ d   1      23.563  29.881  89.250  0.00  0.00     0.071 H 
ENDBRANCH   1  12
BRANCH   1  16
ATOM     16  N1  RUJ d   1      22.476  31.899  87.663  0.00  0.00     0.074 N 
BRANCH  16  17
ATOM     17  C8  RUJ d   1      23.862  31.780  87.151  0.00  0.00     0.094 C 
ATOM     18  H   RUJ d   1      24.211  32.764  86.806  0.00  0.00     0.071 H 
ATOM     19  H   RUJ d   1      23.883  31.069  86.312  0.00  0.00     0.071 H 
ATOM     20  H   RUJ d   1      24.520  31.419  87.955  0.00  0.00     0.071 H 
ENDBRANCH  16  17
BRANCH  16  21
ATOM     21  C9  RUJ d   1      21.643  32.501  86.598  0.00  0.00     0.094 C 
ATOM     22  H   RUJ d   1      22.079  33.463  86.291  0.00  0.00     0.071 H 
ATOM     23  H   RUJ d   1      20.624  32.665  86.978  0.00  0.00     0.071 H 
ATOM     24  H   RUJ d   1      21.607  31.822  85.733  0.00  0.00     0.071 H 
ENDBRANCH  16  21
BRANCH  16  25
ATOM     25  C10 RUJ d   1      22.501  32.877  88.759  0.00  0.00     0.094 C 
ATOM     26  H   RUJ d   1      22.885  33.837  88.385  0.00  0.00     0.071 H 
ATOM     27  H   RUJ d   1      23.155  32.510  89.564  0.00  0.00     0.071 H 
ATOM     28  H   RUJ d   1      21.482  33.016  89.149  0.00  0.00     0.071 H 
ENDBRANCH  16  25
ENDBRANCH   1  16
TORSDOF 8
