REMARK  0 active torsions:
REMARK  status: ('A' for Active; 'I' for Inactive)
ROOT
ATOM      1  CAO Z0B d   1       0.894 -42.218  17.337  0.00  0.00     0.006 A 
ATOM      2  CAN Z0B d   1       1.066 -42.560  18.716  0.00  0.00    -0.005 A 
ATOM      3  CAH Z0B d   1       1.966 -41.803  19.497  0.00  0.00    -0.054 A 
ATOM      4  CAD Z0B d   1       2.648 -40.778  18.915  0.00  0.00     0.003 A 
ATOM      5  CAL Z0B d   1       1.673 -41.128  16.882  0.00  0.00     0.013 A 
ATOM      6  CAC Z0B d   1      -1.418 -43.790  14.851  0.00  0.00    -0.042 A 
ATOM      7  CAG Z0B d   1      -0.484 -42.862  15.149  0.00  0.00    -0.063 A 
ATOM      8  CAM Z0B d   1      -0.034 -42.979  16.539  0.00  0.00     0.013 A 
ATOM      9  CAJ Z0B d   1      -0.693 -44.046  17.256  0.00  0.00     0.108 A 
ATOM     10  NAC Z0B d   1      -0.535 -44.372  18.546  0.00  0.00    -0.252 NA
ATOM     11  SAK Z0B d   1      -1.805 -44.829  16.171  0.00  0.00    -0.081 SA
ATOM     12  CAK Z0B d   1       0.316 -43.645  19.239  0.00  0.00     0.014 A 
ATOM     13  N   Z0B d   1       2.526 -40.430  17.628  0.00  0.00    -0.272 NA
ATOM     14  H1  Z0B d   1       2.112 -42.035  20.546  0.00  0.00     0.087 H 
ATOM     15  H2  Z0B d   1       3.333 -40.208  19.533  0.00  0.00     0.114 H 
ATOM     16  H3  Z0B d   1       1.567 -40.838  15.843  0.00  0.00     0.116 H 
ATOM     17  H4  Z0B d   1      -1.883 -43.874  13.870  0.00  0.00     0.095 H 
ATOM     18  H5  Z0B d   1      -0.112 -42.120  14.445  0.00  0.00     0.085 H 
ATOM     19  H6  Z0B d   1       0.454 -43.893  20.285  0.00  0.00     0.116 H 
ENDROOT
TORSDOF 0
