REMARK  0 active torsions:
REMARK  status: ('A' for Active; 'I' for Inactive)
ROOT
ATOM      1  C2  Z0W d   1       1.575  45.309  16.469  0.00  0.00     0.087 A 
ATOM      2  N3  Z0W d   1       1.496  44.763  15.254  0.00  0.00    -0.252 NA
ATOM      3  C4  Z0W d   1       0.704  43.686  15.138  0.00  0.00     0.032 A 
ATOM      4  C5  Z0W d   1      -0.004  43.191  16.240  0.00  0.00     0.080 A 
ATOM      5  N1  Z0W d   1       0.968  44.914  17.598  0.00  0.00    -0.239 NA
ATOM      6  C6  Z0W d   1       0.153  43.844  17.533  0.00  0.00     0.098 A 
ATOM      7  C7  Z0W d   1      -0.701  43.048  18.420  0.00  0.00     0.022 A 
ATOM      8  C8  Z0W d   1      -0.928  43.082  19.796  0.00  0.00    -0.069 A 
ATOM      9  C12 Z0W d   1      -1.318  42.036  17.650  0.00  0.00     0.045 A 
ATOM     10  C11 Z0W d   1      -2.164  41.093  18.235  0.00  0.00    -0.056 A 
ATOM     11  C10 Z0W d   1      -2.374  41.155  19.606  0.00  0.00    -0.081 A 
ATOM     12  C9  Z0W d   1      -1.760  42.137  20.378  0.00  0.00    -0.082 A 
ATOM     13  N2  Z0W d   1      -0.890  42.133  16.339  0.00  0.00    -0.352 N 
ATOM     14  H1  Z0W d   1       2.211  46.183  16.555  0.00  0.00     0.146 H 
ATOM     15  H2  Z0W d   1       0.611  43.192  14.178  0.00  0.00     0.118 H 
ATOM     16  H3  Z0W d   1      -0.457  43.843  20.407  0.00  0.00     0.085 H 
ATOM     17  H4  Z0W d   1      -2.646  40.331  17.634  0.00  0.00     0.086 H 
ATOM     18  H5  Z0W d   1      -3.024  40.429  20.081  0.00  0.00     0.083 H 
ATOM     19  H6  Z0W d   1      -1.934  42.164  21.448  0.00  0.00     0.083 H 
ATOM     20  H7  Z0W d   1      -1.182  41.520  15.565  0.00  0.00     0.166 HD
ENDROOT
TORSDOF 0
