REMARK  0 active torsions:
REMARK  status: ('A' for Active; 'I' for Inactive)
ROOT
ATOM      1  C9  ZO6 d   1       1.544  45.147  16.881  0.00  0.00    -0.048 A 
ATOM      2  C8  ZO6 d   1       1.645  44.719  15.605  0.00  0.00    -0.042 A 
ATOM      3  S   ZO6 d   1       0.684  43.328  15.258  0.00  0.00    -0.099 SA
ATOM      4  C7  ZO6 d   1       0.081  43.284  16.882  0.00  0.00     0.046 A 
ATOM      5  C   ZO6 d   1      -0.827  42.398  17.543  0.00  0.00     0.013 A 
ATOM      6  C6  ZO6 d   1       0.644  44.326  17.678  0.00  0.00     0.075 A 
ATOM      7  N1  ZO6 d   1       0.412  44.503  19.004  0.00  0.00    -0.259 NA
ATOM      8  C5  ZO6 d   1      -0.406  43.657  19.590  0.00  0.00     0.014 A 
ATOM      9  C4  ZO6 d   1      -1.071  42.594  18.937  0.00  0.00    -0.004 A 
ATOM     10  C3  ZO6 d   1      -1.991  41.748  19.595  0.00  0.00    -0.054 A 
ATOM     11  C2  ZO6 d   1      -2.625  40.778  18.883  0.00  0.00     0.003 A 
ATOM     12  N   ZO6 d   1      -2.426  40.556  17.579  0.00  0.00    -0.272 NA
ATOM     13  C1  ZO6 d   1      -1.553  41.340  16.948  0.00  0.00     0.014 A 
ATOM     14  H1  ZO6 d   1       2.078  46.012  17.272  0.00  0.00     0.087 H 
ATOM     15  H2  ZO6 d   1       2.275  45.207  14.863  0.00  0.00     0.095 H 
ATOM     16  H3  ZO6 d   1      -0.584  43.784  20.652  0.00  0.00     0.116 H 
ATOM     17  H4  ZO6 d   1      -2.189  41.870  20.654  0.00  0.00     0.087 H 
ATOM     18  H5  ZO6 d   1      -3.335  40.146  19.404  0.00  0.00     0.114 H 
ATOM     19  H6  ZO6 d   1      -1.386  41.152  15.894  0.00  0.00     0.116 H 
ENDROOT
TORSDOF 0
