REMARK  0 active torsions:
REMARK  status: ('A' for Active; 'I' for Inactive)
ROOT
ATOM      1  CAO ZO8 d   1      -0.721  42.143  17.031  0.00  0.00    -0.009 A 
ATOM      2  CAN ZO8 d   1      -0.836  42.549  18.394  0.00  0.00     0.010 A 
ATOM      3  CAH ZO8 d   1      -1.730  41.823  19.207  0.00  0.00     0.014 A 
ATOM      4  CAF ZO8 d   1      -2.346  40.446  17.497  0.00  0.00     0.003 A 
ATOM      5  CAL ZO8 d   1      -1.519  41.051  16.604  0.00  0.00    -0.054 A 
ATOM      6  CAC ZO8 d   1       1.361  43.701  14.332  0.00  0.00    -0.042 A 
ATOM      7  CAG ZO8 d   1       0.516  42.729  14.732  0.00  0.00    -0.063 A 
ATOM      8  CAM ZO8 d   1       0.147  42.885  16.148  0.00  0.00     0.011 A 
ATOM      9  CAJ ZO8 d   1       0.787  44.014  16.764  0.00  0.00     0.108 A 
ATOM     10  NAC ZO8 d   1       0.694  44.397  18.043  0.00  0.00    -0.252 NA
ATOM     11  SAK ZO8 d   1       1.758  44.822  15.579  0.00  0.00    -0.081 SA
ATOM     12  CAK ZO8 d   1      -0.087  43.673  18.821  0.00  0.00     0.016 A 
ATOM     13  N   ZO8 d   1      -2.468  40.800  18.784  0.00  0.00    -0.272 NA
ATOM     14  H1  ZO8 d   1      -1.822  42.118  20.246  0.00  0.00     0.116 H 
ATOM     15  H2  ZO8 d   1      -2.950  39.618  17.143  0.00  0.00     0.114 H 
ATOM     16  H3  ZO8 d   1      -1.470  40.703  15.578  0.00  0.00     0.087 H 
ATOM     17  H4  ZO8 d   1       1.754  43.771  13.319  0.00  0.00     0.095 H 
ATOM     18  H5  ZO8 d   1       0.152  41.929  14.088  0.00  0.00     0.085 H 
ATOM     19  H6  ZO8 d   1      -0.161  43.959  19.864  0.00  0.00     0.116 H 
ENDROOT
TORSDOF 0
