REMARK  2 active torsions:
REMARK  status: ('A' for Active; 'I' for Inactive)
REMARK    1  A    between atoms: CAK_11  and  OAC_3 
REMARK    2  A    between atoms: CAL_12  and  CAJ_10 
ROOT
ATOM      1  CAD 8XQ d   1     -25.670  20.187  -4.612  0.00  0.00    -0.065 A 
ATOM      2  CAE 8XQ d   1     -26.016  21.530  -4.703  0.00  0.00     0.003 A 
ATOM      3  CAF 8XQ d   1     -25.769  21.342  -9.491  0.00  0.00    -0.048 A 
ATOM      4  CAG 8XQ d   1     -25.422  19.998  -9.416  0.00  0.00    -0.063 A 
ATOM      5  CAH 8XQ d   1     -25.434  19.463  -5.774  0.00  0.00    -0.068 A 
ATOM      6  NAI 8XQ d   1     -26.123  22.140  -5.959  0.00  0.00    -0.257 NA
ATOM      7  CAK 8XQ d   1     -26.001  22.048  -8.319  0.00  0.00     0.095 A 
ATOM      8  CAL 8XQ d   1     -25.311  19.375  -8.177  0.00  0.00     0.053 A 
ATOM      9  CAM 8XQ d   1     -25.546  20.092  -7.008  0.00  0.00     0.012 A 
ATOM     10  CAN 8XQ d   1     -25.893  21.436  -7.077  0.00  0.00     0.100 A 
ATOM     11  H2  8XQ d   1     -25.585  19.709  -3.643  0.00  0.00     0.085 H 
ATOM     12  H3  8XQ d   1     -26.203  22.105  -3.803  0.00  0.00     0.114 H 
ATOM     13  H4  8XQ d   1     -25.857  21.833 -10.454  0.00  0.00     0.087 H 
ATOM     14  H5  8XQ d   1     -25.238  19.435 -10.324  0.00  0.00     0.085 H 
ATOM     15  H6  8XQ d   1     -25.164  18.415  -5.718  0.00  0.00     0.085 H 
ENDROOT
BRANCH   8  16
ATOM     16  CAJ 8XQ d   1     -24.964  18.031  -8.106  0.00  0.00     0.210 C 
ATOM     17  OAA 8XQ d   1     -24.294  17.509  -9.024  0.00  0.00    -0.644 OA
ATOM     18  OAB 8XQ d   1     -25.322  17.343  -7.125  0.00  0.00    -0.644 OA
ENDBRANCH   8  16
BRANCH   7  19
ATOM     19  OAC 8XQ d   1     -26.344  23.365  -8.321  0.00  0.00    -0.358 OA
ATOM     20  H1  8XQ d   1     -27.157  23.479  -8.800  0.00  0.00     0.217 HD
ENDBRANCH   7  19
TORSDOF 2
