REMARK  2 active torsions:
REMARK  status: ('A' for Active; 'I' for Inactive)
REMARK    1  A    between atoms: CAK_10  and  OAC_3 
REMARK    2  A    between atoms: CAH_8  and  CA0_12 
ROOT
ATOM      1  CAD 8HQ d   1      26.598 -23.148  -4.589  0.00  0.00    -0.049 A 
ATOM      2  CAE 8HQ d   1      27.816 -23.007  -5.242  0.00  0.00     0.004 A 
ATOM      3  CAF 8HQ d   1      26.204 -19.124  -7.558  0.00  0.00    -0.049 A 
ATOM      4  CAG 8HQ d   1      24.980 -19.252  -6.912  0.00  0.00    -0.079 A 
ATOM      5  CAH 8HQ d   1      25.579 -22.240  -4.845  0.00  0.00     0.054 A 
ATOM      6  NAI 8HQ d   1      28.005 -21.956  -6.148  0.00  0.00    -0.257 NA
ATOM      7  CAK 8HQ d   1      27.212 -20.042  -7.290  0.00  0.00     0.095 A 
ATOM      8  CAL 8HQ d   1      24.775 -20.291  -6.009  0.00  0.00    -0.070 A 
ATOM      9  CAM 8HQ d   1      25.790 -21.205  -5.748  0.00  0.00     0.013 A 
ATOM     10  CAN 8HQ d   1      27.017 -21.082  -6.391  0.00  0.00     0.100 A 
ATOM     11  H   8HQ d   1      26.445 -23.959  -3.886  0.00  0.00     0.087 H 
ATOM     12  H   8HQ d   1      28.619 -23.709  -5.051  0.00  0.00     0.114 H 
ATOM     13  H   8HQ d   1      26.370 -18.317  -8.263  0.00  0.00     0.087 H 
ATOM     14  H   8HQ d   1      24.185 -18.543  -7.112  0.00  0.00     0.083 H 
ATOM     15  H   8HQ d   1      23.819 -20.388  -5.507  0.00  0.00     0.084 H 
ENDROOT
BRANCH   5  16
ATOM     16  CA0 8HQ d   1      24.353 -22.365  -4.200  0.00  0.00     0.210 C 
ATOM     17  OAB 8HQ d   1      24.304 -22.803  -3.031  0.00  0.00    -0.644 OA
ATOM     18  OAA 8HQ d   1      23.301 -22.040  -4.791  0.00  0.00    -0.644 OA
ENDBRANCH   5  16
BRANCH   7  19
ATOM     19  OAC 8HQ d   1      28.432 -19.974  -7.887  0.00  0.00    -0.358 OA
ATOM     20  H   8HQ d   1      28.977 -20.686  -7.573  0.00  0.00     0.217 HD
ENDBRANCH   7  19
TORSDOF 2
