REMARK  8 active torsions:
REMARK  status: ('A' for Active; 'I' for Inactive)
REMARK    1  A    between atoms: N11_11  and  C04_4 
REMARK       I    between atoms: C12_12  and  N11_11 
REMARK    2  A    between atoms: C14_14  and  C12_12 
REMARK    3  A    between atoms: N15_15  and  C14_14 
REMARK       I    between atoms: C21_21  and  N18_18 
REMARK    4  A    between atoms: C22_22  and  C21_21 
REMARK    5  A    between atoms: C23_23  and  O28_28 
REMARK    6  A    between atoms: C24_24  and  O29_29 
REMARK    7  A    between atoms: N30_30  and  C25_25 
REMARK    8  A    between atoms: C38_38  and  N39_39 
ROOT
ATOM      1  N15 UHB d   1     -42.743 -12.951   9.132  0.00  0.00    -0.060 N 
ATOM      2  C16 UHB d   1     -41.603 -12.569   8.290  0.00  0.00     0.099 C 
ATOM      3  C17 UHB d   1     -41.842 -11.447   7.286  0.00  0.00     0.020 C 
ATOM      4  N18 UHB d   1     -42.731 -10.405   7.766  0.00  0.00    -0.347 N 
ATOM      5  C19 UHB d   1     -43.960 -10.970   8.192  0.00  0.00     0.020 C 
ATOM      6  C20 UHB d   1     -43.753 -11.946   9.324  0.00  0.00     0.099 C 
ATOM      7  C21 UHB d   1     -42.396  -8.975   7.840  0.00  0.00     0.251 C 
ATOM      8  O27 UHB d   1     -43.205  -8.157   8.288  0.00  0.00    -0.270 OA
ATOM      9  H10 UHB d   1     -43.265 -13.560   8.522  0.00  0.00     0.280 HD
ATOM     10  H11 UHB d   1     -41.291 -13.460   7.726  0.00  0.00     0.078 H 
ATOM     11  H12 UHB d   1     -40.787 -12.252   8.956  0.00  0.00     0.078 H 
ATOM     12  H13 UHB d   1     -42.281 -11.884   6.377  0.00  0.00     0.066 H 
ATOM     13  H14 UHB d   1     -40.872 -10.989   7.042  0.00  0.00     0.066 H 
ATOM     14  H15 UHB d   1     -44.425 -11.497   7.345  0.00  0.00     0.066 H 
ATOM     15  H16 UHB d   1     -44.626 -10.163   8.532  0.00  0.00     0.066 H 
ATOM     16  H17 UHB d   1     -43.481 -11.366  10.219  0.00  0.00     0.078 H 
ATOM     17  H18 UHB d   1     -44.709 -12.462   9.498  0.00  0.00     0.078 H 
ENDROOT
BRANCH   7  18
ATOM     18  C22 UHB d   1     -41.070  -8.454   7.373  0.00  0.00     0.145 C 
ATOM     19  C23 UHB d   1     -40.011  -8.532   8.456  0.00  0.00     0.098 C 
ATOM     20  C24 UHB d   1     -39.714  -7.150   8.759  0.00  0.00     0.105 C 
ATOM     21  H20 UHB d   1     -40.412  -9.032   9.350  0.00  0.00     0.091 H 
ATOM     22  C25 UHB d   1     -39.986  -6.494   7.476  0.00  0.00     0.140 C 
ATOM     23  H21 UHB d   1     -40.411  -6.771   9.521  0.00  0.00     0.093 H 
ATOM     24  O26 UHB d   1     -41.210  -7.078   6.996  0.00  0.00    -0.346 OA
ATOM     25  H22 UHB d   1     -39.168  -6.739   6.783  0.00  0.00     0.123 H 
ATOM     26  H19 UHB d   1     -40.742  -9.045   6.505  0.00  0.00     0.102 H 
BRANCH  19  27
ATOM     27  O28 UHB d   1     -38.914  -9.245   8.007  0.00  0.00    -0.390 OA
ATOM     28  H23 UHB d   1     -38.238  -9.238   8.675  0.00  0.00     0.210 HD
ENDBRANCH  19  27
BRANCH  20  29
ATOM     29  O29 UHB d   1     -38.364  -6.970   9.272  0.00  0.00    -0.388 OA
ATOM     30  H24 UHB d   1     -37.740  -7.323   8.649  0.00  0.00     0.210 HD
ENDBRANCH  20  29
BRANCH  22  31
ATOM     31  N30 UHB d   1     -40.095  -5.086   7.518  0.00  0.00    -0.294 N 
ATOM     32  C32 UHB d   1     -39.559  -4.250   6.547  0.00  0.00     0.167 A 
ATOM     33  C31 UHB d   1     -39.822  -2.968   6.892  0.00  0.00     0.149 A 
ATOM     34  N37 UHB d   1     -38.819  -4.540   5.313  0.00  0.00    -0.222 NA
ATOM     35  N34 UHB d   1     -40.531  -3.001   8.084  0.00  0.00    -0.236 NA
ATOM     36  C38 UHB d   1     -39.328  -1.829   5.978  0.00  0.00     0.155 A 
ATOM     37  C33 UHB d   1     -40.699  -4.312   8.452  0.00  0.00     0.071 A 
ATOM     38  H25 UHB d   1     -41.224  -4.667   9.337  0.00  0.00     0.144 H 
ATOM     39  N35 UHB d   1     -38.622  -2.114   4.797  0.00  0.00    -0.222 NA
ATOM     40  C36 UHB d   1     -38.347  -3.459   4.444  0.00  0.00     0.091 A 
ATOM     41  H26 UHB d   1     -37.793  -3.686   3.540  0.00  0.00     0.146 H 
BRANCH  36  42
ATOM     42  N39 UHB d   1     -39.576  -0.493   6.313  0.00  0.00    -0.382 N 
ATOM     43  H27 UHB d   1     -39.243   0.263   5.697  0.00  0.00     0.157 HD
ATOM     44  H28 UHB d   1     -40.092  -0.265   7.175  0.00  0.00     0.157 HD
ENDBRANCH  36  42
ENDBRANCH  22  31
ENDBRANCH   7  18
BRANCH   1  45
ATOM     45  C14 UHB d   1     -42.240 -13.936  10.094  0.00  0.00     0.156 C 
ATOM     46  H8  UHB d   1     -43.081 -14.542  10.463  0.00  0.00     0.090 H 
ATOM     47  H9  UHB d   1     -41.509 -14.588   9.594  0.00  0.00     0.090 H 
BRANCH  45  48
ATOM     48  C12 UHB d   1     -41.547 -13.223  11.309  0.00  0.00     0.248 C 
ATOM     49  N11 UHB d   1     -41.094 -14.120  12.363  0.00  0.00    -0.325 N 
ATOM     50  H7  UHB d   1     -41.272 -15.095  12.226  0.00  0.00     0.169 HD
ATOM     51  O13 UHB d   1     -41.389 -12.005  11.376  0.00  0.00    -0.271 OA
BRANCH  49  52
ATOM     52  C04 UHB d   1     -40.420 -13.756  13.577  0.00  0.00     0.043 A 
ATOM     53  C03 UHB d   1     -40.796 -14.507  14.825  0.00  0.00    -0.057 A 
ATOM     54  C02 UHB d   1     -40.150 -14.174  16.099  0.00  0.00    -0.080 A 
ATOM     55  H3  UHB d   1     -41.542 -15.292  14.783  0.00  0.00     0.086 H 
ATOM     56  C01 UHB d   1     -39.107 -13.126  16.137  0.00  0.00    -0.067 A 
ATOM     57  H2  UHB d   1     -40.435 -14.693  17.007  0.00  0.00     0.083 H 
ATOM     58  C06 UHB d   1     -38.697 -12.409  14.878  0.00  0.00     0.042 A 
ATOM     59  H1  UHB d   1     -38.634 -12.872  17.079  0.00  0.00     0.085 H 
ATOM     60  C05 UHB d   1     -39.327 -12.712  13.623  0.00  0.00     0.002 A 
ATOM     61  C07 UHB d   1     -37.691 -11.382  14.642  0.00  0.00     0.252 A 
ATOM     62  C08 UHB d   1     -38.723 -11.843  12.598  0.00  0.00     0.022 A 
ATOM     63  N09 UHB d   1     -37.719 -11.044  13.243  0.00  0.00    -0.352 N 
ATOM     64  H4  UHB d   1     -39.493 -11.193  12.156  0.00  0.00     0.071 H 
ATOM     65  H5  UHB d   1     -38.264 -12.457  11.809  0.00  0.00     0.071 H 
ATOM     66  H6  UHB d   1     -37.136 -10.366  12.795  0.00  0.00     0.163 HD
ATOM     67  O10 UHB d   1     -36.966 -10.897  15.466  0.00  0.00    -0.268 OA
ENDBRANCH  49  52
ENDBRANCH  45  48
ENDBRANCH   1  45
TORSDOF 8
