REMARK  5 active torsions:
REMARK  status: ('A' for Active; 'I' for Inactive)
REMARK    1  A    between atoms: CAA_1  and  N_2 
REMARK    2  A    between atoms: N_2  and  CAB_3 
REMARK    3  A    between atoms: N_2  and  CA_4 
REMARK    4  A    between atoms: CA_4  and  C_5 
REMARK       I    between atoms: C_5  and  NAM_7 
REMARK    5  A    between atoms: NAM_7  and  CAP_8 
ROOT
ATOM      1  CAP P34 d   1      11.485   5.526  19.441  0.00  0.00     0.035 A 
ATOM      2  CAK P34 d   1      11.716   5.811  18.083  0.00  0.00    -0.044 A 
ATOM      3  CAU P34 d   1      11.955   4.781  17.146  0.00  0.00     0.004 A 
ATOM      4  CAT P34 d   1      12.203   5.024  15.775  0.00  0.00    -0.008 A 
ATOM      5  CAI P34 d   1      12.231   6.327  15.254  0.00  0.00    -0.071 A 
ATOM      6  CAF P34 d   1      12.473   6.560  13.906  0.00  0.00    -0.082 A 
ATOM      7  CAE P34 d   1      12.686   5.493  13.046  0.00  0.00    -0.082 A 
ATOM      8  CAH P34 d   1      12.661   4.189  13.536  0.00  0.00    -0.067 A 
ATOM      9  CAS P34 d   1      12.422   3.944  14.891  0.00  0.00     0.043 A 
ATOM     10  CAQ P34 d   1      12.400   2.626  15.363  0.00  0.00     0.257 A 
ATOM     11  OAD P34 d   1      12.585   1.662  14.626  0.00  0.00    -0.267 OA
ATOM     12  NAN P34 d   1      12.156   2.385  16.713  0.00  0.00    -0.322 N 
ATOM     13  CAR P34 d   1      11.932   3.453  17.597  0.00  0.00     0.046 A 
ATOM     14  CAJ P34 d   1      11.690   3.165  18.939  0.00  0.00    -0.054 A 
ATOM     15  CAG P34 d   1      11.463   4.192  19.849  0.00  0.00    -0.055 A 
ATOM     16  H11 P34 d   1      11.710   6.842  17.749  0.00  0.00     0.088 H 
ATOM     17  H12 P34 d   1      12.060   7.168  15.916  0.00  0.00     0.084 H 
ATOM     18  H13 P34 d   1      12.495   7.575  13.527  0.00  0.00     0.083 H 
ATOM     19  H14 P34 d   1      12.872   5.673  11.993  0.00  0.00     0.083 H 
ATOM     20  H15 P34 d   1      12.828   3.358  12.861  0.00  0.00     0.085 H 
ATOM     21  H16 P34 d   1      12.140   1.445  17.055  0.00  0.00     0.169 HD
ATOM     22  H17 P34 d   1      11.679   2.135  19.276  0.00  0.00     0.087 H 
ATOM     23  H18 P34 d   1      11.267   3.953  20.888  0.00  0.00     0.087 H 
ENDROOT
BRANCH   1  24
ATOM     24  NAM P34 d   1      11.216   6.441  20.401  0.00  0.00    -0.326 N 
ATOM     25  C   P34 d   1      11.738   7.688  20.456  0.00  0.00     0.248 C 
ATOM     26  O   P34 d   1      12.547   8.179  19.669  0.00  0.00    -0.271 OA
ATOM     27  H10 P34 d   1      10.582   6.175  21.127  0.00  0.00     0.169 HD
BRANCH  25  28
ATOM     28  CA  P34 d   1      11.217   8.502  21.664  0.00  0.00     0.155 C 
ATOM     29  H8  P34 d   1      10.117   8.474  21.664  0.00  0.00     0.090 H 
ATOM     30  H9  P34 d   1      11.595   8.045  22.590  0.00  0.00     0.090 H 
BRANCH  28  31
ATOM     31  N   P34 d   1      11.663   9.924  21.611  0.00  0.00    -0.070 N 
ATOM     32  H4  P34 d   1      11.710  10.310  20.681  0.00  0.00     0.279 HD
BRANCH  31  33
ATOM     33  CAA P34 d   1      10.598  10.546  22.396  0.00  0.00     0.066 C 
ATOM     34  H1  P34 d   1      10.775  11.630  22.460  0.00  0.00     0.068 H 
ATOM     35  H2  P34 d   1      10.589  10.115  23.408  0.00  0.00     0.068 H 
ATOM     36  H3  P34 d   1       9.629  10.361  21.910  0.00  0.00     0.068 H 
ENDBRANCH  31  33
BRANCH  31  37
ATOM     37  CAB P34 d   1      12.994   9.884  22.225  0.00  0.00     0.066 C 
ATOM     38  H5  P34 d   1      13.700   9.395  21.538  0.00  0.00     0.068 H 
ATOM     39  H6  P34 d   1      12.947   9.318  23.167  0.00  0.00     0.068 H 
ATOM     40  H7  P34 d   1      13.334  10.910  22.431  0.00  0.00     0.068 H 
ENDBRANCH  31  37
ENDBRANCH  28  31
ENDBRANCH  25  28
ENDBRANCH   1  24
TORSDOF 5
