REMARK  4 active torsions:
REMARK  status: ('A' for Active; 'I' for Inactive)
REMARK    1  A    between atoms: C11_15  and  C12_16 
REMARK    2  A    between atoms: C16_21  and  C18_22 
REMARK    3  A    between atoms: C18_22  and  N3_23 
REMARK    4  A    between atoms: N3_23  and  C19_24 
ROOT
ATOM      1  O1  RPB d   1      12.544   2.096  14.988  0.00  0.00    -0.268 OA
ATOM      2  C7  RPB d   1      12.045   3.006  15.659  0.00  0.00     0.252 C 
ATOM      3  N1  RPB d   1      11.550   2.625  16.905  0.00  0.00    -0.357 N 
ATOM      4  C8  RPB d   1      10.910   3.517  17.890  0.00  0.00    -0.001 C 
ATOM      5  C9  RPB d   1      11.818   4.693  18.264  0.00  0.00    -0.023 C 
ATOM      6  C10 RPB d   1      11.885   5.659  17.237  0.00  0.00    -0.015 A 
ATOM      7  C5  RPB d   1      11.990   5.467  15.909  0.00  0.00     0.015 A 
ATOM      8  C4  RPB d   1      12.056   4.329  15.186  0.00  0.00     0.048 A 
ATOM      9  C3  RPB d   1      12.152   4.413  13.790  0.00  0.00    -0.029 A 
ATOM     10  C2  RPB d   1      12.175   5.670  13.185  0.00  0.00     0.119 A 
ATOM     11  F1  RPB d   1      12.272   5.809  11.820  0.00  0.00    -0.206 F 
ATOM     12  C1  RPB d   1      12.110   6.801  13.989  0.00  0.00    -0.019 A 
ATOM     13  C6  RPB d   1      12.017   6.673  15.313  0.00  0.00     0.047 A 
ATOM     14  N2  RPB d   1      11.939   7.602  16.253  0.00  0.00    -0.354 N 
ATOM     15  C11 RPB d   1      11.861   6.999  17.438  0.00  0.00     0.050 A 
ATOM     16  H1  RPB d   1      11.636   1.660  17.154  0.00  0.00     0.162 HD
ATOM     17  H2  RPB d   1      10.682   2.940  18.798  0.00  0.00     0.064 H 
ATOM     18  H3  RPB d   1       9.976   3.910  17.461  0.00  0.00     0.064 H 
ATOM     19  H4  RPB d   1      12.831   4.311  18.459  0.00  0.00     0.042 H 
ATOM     20  H5  RPB d   1      11.425   5.170  19.174  0.00  0.00     0.042 H 
ATOM     21  H6  RPB d   1      12.208   3.513  13.188  0.00  0.00     0.089 H 
ATOM     22  H7  RPB d   1      12.135   7.787  13.540  0.00  0.00     0.091 H 
ATOM     23  H8  RPB d   1      11.939   8.620  16.095  0.00  0.00     0.166 HD
ENDROOT
BRANCH  15  24
ATOM     24  C12 RPB d   1      11.757   7.721  18.581  0.00  0.00    -0.009 A 
ATOM     25  C14 RPB d   1      12.389   7.382  19.784  0.00  0.00    -0.070 A 
ATOM     26  C15 RPB d   1      12.242   8.174  20.928  0.00  0.00    -0.074 A 
ATOM     27  H9  RPB d   1      13.003   6.490  19.830  0.00  0.00     0.084 H 
ATOM     28  C16 RPB d   1      11.459   9.328  20.898  0.00  0.00    -0.033 A 
ATOM     29  H10 RPB d   1      12.742   7.888  21.847  0.00  0.00     0.084 H 
ATOM     30  C17 RPB d   1      10.847   9.688  19.698  0.00  0.00    -0.074 A 
ATOM     31  C13 RPB d   1      10.991   8.891  18.564  0.00  0.00    -0.070 A 
ATOM     32  H12 RPB d   1      10.255  10.595  19.647  0.00  0.00     0.084 H 
ATOM     33  H11 RPB d   1      10.497   9.185  17.645  0.00  0.00     0.084 H 
BRANCH  28  34
ATOM     34  C18 RPB d   1      11.337  10.121  22.021  0.00  0.00     0.105 C 
ATOM     35  H13 RPB d   1      11.238  11.169  21.702  0.00  0.00     0.083 H 
ATOM     36  H14 RPB d   1      12.245  10.008  22.631  0.00  0.00     0.083 H 
BRANCH  34  37
ATOM     37  N3  RPB d   1      10.171   9.769  22.846  0.00  0.00    -0.075 N 
ATOM     38  H15 RPB d   1      10.142  10.380  23.648  0.00  0.00     0.277 HD
ATOM     39  H16 RPB d   1      10.265   8.814  23.154  0.00  0.00     0.277 HD
BRANCH  37  40
ATOM     40  C19 RPB d   1       8.908   9.906  22.095  0.00  0.00     0.065 C 
ATOM     41  H17 RPB d   1       8.063   9.634  22.745  0.00  0.00     0.067 H 
ATOM     42  H18 RPB d   1       8.927   9.239  21.221  0.00  0.00     0.067 H 
ATOM     43  H19 RPB d   1       8.792  10.947  21.759  0.00  0.00     0.067 H 
ENDBRANCH  37  40
ENDBRANCH  34  37
ENDBRANCH  28  34
ENDBRANCH  15  24
TORSDOF 4
