REMARK  6 active torsions:
REMARK  status: ('A' for Active; 'I' for Inactive)
REMARK    1  A    between atoms: C1_1  and  C2_2 
REMARK    2  A    between atoms: C4_4  and  N1_5 
REMARK    3  A    between atoms: N1_5  and  C5_6 
REMARK    4  A    between atoms: C13_15  and  C19_23 
REMARK       I    between atoms: N2_19  and  C17_20 
REMARK    5  A    between atoms: C17_20  and  C18_21 
REMARK    6  A    between atoms: C22_26  and  C25_29 
ROOT
ATOM      1  C2  73B d   1      14.009   5.152   9.257  0.00  0.00     0.018 C 
ATOM      2  C3  73B d   1      14.653   4.270   8.186  0.00  0.00    -0.023 C 
ATOM      3  C4  73B d   1      14.000   2.907   8.141  0.00  0.00     0.039 C 
ATOM      4  C11 73B d   1      13.978   2.301   9.521  0.00  0.00    -0.008 A 
ATOM      5  C12 73B d   1      14.505   1.059   9.842  0.00  0.00    -0.062 A 
ATOM      6  C13 73B d   1      14.441   0.582  11.144  0.00  0.00    -0.025 A 
ATOM      7  C14 73B d   1      13.966   1.425  12.130  0.00  0.00    -0.070 A 
ATOM      8  C15 73B d   1      13.505   2.682  11.843  0.00  0.00    -0.056 A 
ATOM      9  C16 73B d   1      13.519   3.127  10.544  0.00  0.00     0.046 A 
ATOM     10  N2  73B d   1      13.106   4.441  10.193  0.00  0.00    -0.313 N 
ATOM     11  C17 73B d   1      11.996   5.049  10.643  0.00  0.00     0.220 C 
ATOM     12  O1  73B d   1      11.747   6.162  10.329  0.00  0.00    -0.273 OA
ATOM     13  H   73B d   1      13.365   5.852   8.705  0.00  0.00     0.073 H 
ATOM     14  H   73B d   1      15.722   4.149   8.415  0.00  0.00     0.039 H 
ATOM     15  H   73B d   1      14.540   4.755   7.205  0.00  0.00     0.039 H 
ATOM     16  H   73B d   1      12.952   3.069   7.848  0.00  0.00     0.080 H 
ATOM     17  H   73B d   1      14.970   0.456   9.070  0.00  0.00     0.085 H 
ATOM     18  H   73B d   1      13.958   1.082  13.158  0.00  0.00     0.084 H 
ATOM     19  H   73B d   1      13.132   3.321  12.635  0.00  0.00     0.087 H 
ENDROOT
BRANCH   3  20
ATOM     20  N1  73B d   1      14.563   2.019   7.142  0.00  0.00    -0.381 N 
ATOM     21  H   73B d   1      15.559   2.128   6.904  0.00  0.00     0.160 HD
BRANCH  20  22
ATOM     22  C5  73B d   1      13.841   1.032   6.488  0.00  0.00     0.028 A 
ATOM     23  C6  73B d   1      14.255   0.576   5.257  0.00  0.00    -0.056 A 
ATOM     24  C7  73B d   1      13.571  -0.426   4.615  0.00  0.00    -0.060 A 
ATOM     25  H   73B d   1      15.130   1.013   4.790  0.00  0.00     0.087 H 
ATOM     26  C8  73B d   1      12.505  -0.994   5.230  0.00  0.00     0.034 A 
ATOM     27  H   73B d   1      13.879  -0.758   3.630  0.00  0.00     0.086 H 
ATOM     28 CL1  73B d   1      11.663  -2.302   4.428  0.00  0.00    -0.084 Cl
ATOM     29  C9  73B d   1      12.091  -0.576   6.444  0.00  0.00    -0.060 A 
ATOM     30  C10 73B d   1      12.770   0.432   7.084  0.00  0.00    -0.056 A 
ATOM     31  H   73B d   1      11.227  -1.033   6.912  0.00  0.00     0.086 H 
ATOM     32  H   73B d   1      12.453   0.753   8.070  0.00  0.00     0.087 H 
ENDBRANCH  20  22
ENDBRANCH   3  20
BRANCH   1  33
ATOM     33  C1  73B d   1      15.032   6.024  10.004  0.00  0.00    -0.057 C 
ATOM     34  H   73B d   1      15.681   6.533   9.276  0.00  0.00     0.030 H 
ATOM     35  H   73B d   1      15.645   5.389  10.661  0.00  0.00     0.030 H 
ATOM     36  H   73B d   1      14.502   6.774  10.610  0.00  0.00     0.030 H 
ENDBRANCH   1  33
BRANCH   6  37
ATOM     37  C19 73B d   1      14.937  -0.758  11.512  0.00  0.00    -0.026 A 
ATOM     38  C20 73B d   1      14.428  -1.402  12.613  0.00  0.00    -0.071 A 
ATOM     39  C21 73B d   1      14.888  -2.639  13.001  0.00  0.00    -0.066 A 
ATOM     40  H   73B d   1      13.645  -0.924  13.190  0.00  0.00     0.084 H 
ATOM     41  C22 73B d   1      15.878  -3.279  12.289  0.00  0.00     0.040 A 
ATOM     42  H   73B d   1      14.466  -3.116  13.878  0.00  0.00     0.085 H 
ATOM     43  C23 73B d   1      16.407  -2.636  11.185  0.00  0.00    -0.066 A 
ATOM     44  C24 73B d   1      15.943  -1.387  10.808  0.00  0.00    -0.071 A 
ATOM     45  H   73B d   1      17.192  -3.114  10.610  0.00  0.00     0.085 H 
ATOM     46  H   73B d   1      16.378  -0.895   9.945  0.00  0.00     0.084 H 
BRANCH  41  47
ATOM     47  C25 73B d   1      16.382  -4.618  12.712  0.00  0.00     0.209 C 
ATOM     48  O2  73B d   1      17.386  -5.035  12.230  0.00  0.00    -0.644 OA
ATOM     49  O3  73B d   1      15.723  -5.252  13.601  0.00  0.00    -0.644 OA
ENDBRANCH  41  47
ENDBRANCH   6  37
BRANCH  11  50
ATOM     50  C18 73B d   1      11.118   4.282  11.583  0.00  0.00    -0.002 C 
ATOM     51  H   73B d   1      10.254   4.901  11.865  0.00  0.00     0.040 H 
ATOM     52  H   73B d   1      11.689   4.017  12.485  0.00  0.00     0.040 H 
ATOM     53  H   73B d   1      10.766   3.364  11.089  0.00  0.00     0.040 H 
ENDBRANCH  11  50
TORSDOF 6
