REMARK  9 active torsions:
REMARK  status: ('A' for Active; 'I' for Inactive)
REMARK    1  A    between atoms: C5_3  and  C7_7 
REMARK    2  A    between atoms: C9_11  and  N13_13 
REMARK    3  A    between atoms: N13_13  and  C14_14 
REMARK    4  A    between atoms: C19_15  and  C20_37 
REMARK    5  A    between atoms: C16_18  and  N21_20 
REMARK       I    between atoms: N21_20  and  C22_21 
REMARK    6  A    between atoms: C22_21  and  C23_22 
REMARK    7  A    between atoms: C27_25  and  C46_28 
REMARK    8  A    between atoms: C46_28  and  N48_29 
REMARK    9  A    between atoms: N51_32  and  C54_33 
ROOT
ATOM      1  N21 STI d   1     -16.966  22.637  36.470  0.00  0.00    -0.323 N 
ATOM      2  C22 STI d   1     -16.067  23.728  36.754  0.00  0.00     0.256 C 
ATOM      3  O29 STI d   1     -16.312  24.901  36.594  0.00  0.00    -0.267 OA
ATOM      4  H   STI d   1     -16.603  21.708  36.542  0.00  0.00     0.169 HD
ENDROOT
BRANCH   1   5
ATOM      5  C16 STI d   1     -18.344  22.784  36.092  0.00  0.00     0.037 A 
ATOM      6  C17 STI d   1     -19.086  21.606  35.937  0.00  0.00    -0.057 A 
ATOM      7  C18 STI d   1     -20.455  21.661  35.641  0.00  0.00    -0.073 A 
ATOM      8  H   STI d   1     -18.598  20.644  36.047  0.00  0.00     0.086 H 
ATOM      9  C19 STI d   1     -21.048  22.893  35.486  0.00  0.00    -0.035 A 
ATOM     10  H   STI d   1     -21.035  20.751  35.536  0.00  0.00     0.084 H 
ATOM     11  C14 STI d   1     -20.313  24.088  35.675  0.00  0.00     0.057 A 
ATOM     12  C15 STI d   1     -18.938  24.039  36.002  0.00  0.00    -0.030 A 
ATOM     13  H   STI d   1     -18.369  24.945  36.176  0.00  0.00     0.090 H 
BRANCH   9  14
ATOM     14  C20 STI d   1     -22.539  22.974  35.152  0.00  0.00    -0.049 C 
ATOM     15  H   STI d   1     -22.839  24.029  35.066  0.00  0.00     0.033 H 
ATOM     16  H   STI d   1     -23.121  22.492  35.952  0.00  0.00     0.033 H 
ATOM     17  H   STI d   1     -22.730  22.459  34.199  0.00  0.00     0.033 H 
ENDBRANCH   9  14
BRANCH  11  18
ATOM     18  N13 STI d   1     -20.932  25.382  35.587  0.00  0.00    -0.188 N 
ATOM     19  H   STI d   1     -21.250  25.841  36.453  0.00  0.00     0.184 HD
BRANCH  18  20
ATOM     20  C9  STI d   1     -21.120  26.047  34.353  0.00  0.00     0.727 A 
ATOM     21  N10 STI d   1     -20.703  25.455  33.237  0.00  0.00    -0.075 NA
ATOM     22  C11 STI d   1     -20.862  26.134  32.066  0.00  0.00     0.023 A 
ATOM     23  C12 STI d   1     -21.473  27.394  32.054  0.00  0.00    -0.036 A 
ATOM     24  H   STI d   1     -20.513  25.696  31.138  0.00  0.00     0.115 H 
ATOM     25  C7  STI d   1     -21.892  27.976  33.289  0.00  0.00     0.089 A 
ATOM     26  H   STI d   1     -21.626  27.921  31.119  0.00  0.00     0.089 H 
ATOM     27  N8  STI d   1     -21.692  27.242  34.398  0.00  0.00    -0.062 NA
BRANCH  25  28
ATOM     28  C5  STI d   1     -22.477  29.262  33.425  0.00  0.00     0.011 A 
ATOM     29  C6  STI d   1     -22.477  30.187  32.375  0.00  0.00    -0.068 A 
ATOM     30  C1  STI d   1     -23.043  31.455  32.602  0.00  0.00    -0.065 A 
ATOM     31  H   STI d   1     -22.052  29.933  31.411  0.00  0.00     0.085 H 
ATOM     32  C2  STI d   1     -23.537  31.777  33.856  0.00  0.00     0.002 A 
ATOM     33  H   STI d   1     -23.093  32.179  31.797  0.00  0.00     0.085 H 
ATOM     34  N3  STI d   1     -23.516  30.885  34.834  0.00  0.00    -0.272 NA
ATOM     35  H   STI d   1     -23.943  32.766  34.037  0.00  0.00     0.114 H 
ATOM     36  C4  STI d   1     -22.995  29.676  34.661  0.00  0.00     0.014 A 
ATOM     37  H   STI d   1     -22.969  28.989  35.499  0.00  0.00     0.116 H 
ENDBRANCH  25  28
ENDBRANCH  18  20
ENDBRANCH  11  18
ENDBRANCH   1   5
BRANCH   2  38
ATOM     38  C23 STI d   1     -14.685  23.305  37.228  0.00  0.00     0.032 A 
ATOM     39  C25 STI d   1     -14.140  22.043  36.929  0.00  0.00    -0.067 A 
ATOM     40  C26 STI d   1     -12.871  21.700  37.416  0.00  0.00    -0.074 A 
ATOM     41  H   STI d   1     -14.699  21.338  36.324  0.00  0.00     0.085 H 
ATOM     42  C27 STI d   1     -12.196  22.633  38.212  0.00  0.00    -0.033 A 
ATOM     43  H   STI d   1     -12.425  20.740  37.183  0.00  0.00     0.084 H 
ATOM     44  C28 STI d   1     -12.735  23.859  38.541  0.00  0.00    -0.074 A 
ATOM     45  C29 STI d   1     -14.005  24.222  38.063  0.00  0.00    -0.067 A 
ATOM     46  H   STI d   1     -12.178  24.544  39.170  0.00  0.00     0.084 H 
ATOM     47  H   STI d   1     -14.450  25.175  38.326  0.00  0.00     0.085 H 
BRANCH  42  48
ATOM     48  C46 STI d   1     -10.829  22.263  38.749  0.00  0.00     0.107 C 
ATOM     49  H   STI d   1     -10.952  21.561  39.587  0.00  0.00     0.083 H 
ATOM     50  H   STI d   1     -10.326  23.174  39.105  0.00  0.00     0.083 H 
BRANCH  48  51
ATOM     51  N48 STI d   1     -10.005  21.638  37.725  0.00  0.00    -0.064 N 
ATOM     52  C53 STI d   1      -8.685  21.117  38.123  0.00  0.00     0.106 C 
ATOM     53  C52 STI d   1      -7.979  20.343  37.070  0.00  0.00     0.105 C 
ATOM     54  H   STI d   1      -8.824  20.461  38.995  0.00  0.00     0.078 H 
ATOM     55  H   STI d   1      -8.050  21.970  38.404  0.00  0.00     0.078 H 
ATOM     56  N51 STI d   1      -7.788  21.127  35.836  0.00  0.00    -0.072 N 
ATOM     57  H   STI d   1      -8.571  19.447  36.832  0.00  0.00     0.078 H 
ATOM     58  H   STI d   1      -6.993  20.040  37.453  0.00  0.00     0.078 H 
ATOM     59  C50 STI d   1      -9.078  21.722  35.389  0.00  0.00     0.105 C 
ATOM     60  H   STI d   1      -7.205  21.906  36.097  0.00  0.00     0.279 HD
ATOM     61  C49 STI d   1      -9.890  22.452  36.489  0.00  0.00     0.106 C 
ATOM     62  H   STI d   1      -9.704  20.912  34.986  0.00  0.00     0.078 H 
ATOM     63  H   STI d   1      -8.859  22.447  34.591  0.00  0.00     0.078 H 
ATOM     64  H   STI d   1      -9.387  23.399  36.733  0.00  0.00     0.078 H 
ATOM     65  H   STI d   1     -10.900  22.661  36.106  0.00  0.00     0.078 H 
ATOM     66  H   STI d   1     -10.529  20.819  37.458  0.00  0.00     0.280 HD
BRANCH  56  67
ATOM     67  C54 STI d   1      -7.032  20.425  34.767  0.00  0.00     0.066 C 
ATOM     68  H   STI d   1      -6.940  21.083  33.891  0.00  0.00     0.068 H 
ATOM     69  H   STI d   1      -7.567  19.507  34.482  0.00  0.00     0.068 H 
ATOM     70  H   STI d   1      -6.029  20.165  35.137  0.00  0.00     0.068 H 
ENDBRANCH  56  67
ENDBRANCH  48  51
ENDBRANCH  42  48
ENDBRANCH   2  38
TORSDOF 9
