REMARK  7 active torsions:
REMARK  status: ('A' for Active; 'I' for Inactive)
REMARK       I    between atoms: C20_2  and  N21_3 
REMARK       I    between atoms: C20_2  and  N8_17 
REMARK    1  A    between atoms: N21_3  and  C24_4 
REMARK    2  A    between atoms: C24_4  and  C25_5 
REMARK    3  A    between atoms: C24_4  and  C23_11 
REMARK    4  A    between atoms: C23_11  and  N31_12 
REMARK    5  A    between atoms: C3_25  and  N9_27 
REMARK       I    between atoms: N9_27  and  C10_28 
REMARK    6  A    between atoms: C10_28  and  C11_30 
REMARK    7  A    between atoms: N16_31  and  C32_32 
ROOT
ATOM      1  O22 82B d   1      15.547   9.650   8.821  0.00  0.00    -0.247 OA
ATOM      2  C20 82B d   1      15.057   9.876   7.720  0.00  0.00     0.320 C 
ATOM      3  N21 82B d   1      14.139  10.832   7.576  0.00  0.00    -0.333 N 
ATOM      4  N8  82B d   1      15.360   9.187   6.612  0.00  0.00    -0.315 N 
ATOM      5  C4  82B d   1      16.077   7.893   6.613  0.00  0.00     0.082 A 
ATOM      6  C19 82B d   1      17.500   8.058   7.176  0.00  0.00    -0.033 A 
ATOM      7  C18 82B d   1      16.683   6.860   7.627  0.00  0.00    -0.033 A 
ATOM      8  C7  82B d   1      14.825   9.531   5.256  0.00  0.00     0.030 C 
ATOM      9  C6  82B d   1      15.292   8.372   4.412  0.00  0.00     0.034 A 
ATOM     10  C5  82B d   1      16.106   7.524   5.191  0.00  0.00     0.068 A 
ATOM     11  N1  82B d   1      16.506   6.427   4.529  0.00  0.00    -0.277 N 
ATOM     12  C3  82B d   1      15.346   7.773   3.163  0.00  0.00     0.160 A 
ATOM     13  N2  82B d   1      16.041   6.603   3.203  0.00  0.00    -0.156 NA
ATOM     14  H1  82B d   1      13.841  11.075   6.653  0.00  0.00     0.165 HD
ATOM     15  H19 82B d   1      17.714   8.870   7.886  0.00  0.00     0.037 H 
ATOM     16  H20 82B d   1      18.368   7.909   6.517  0.00  0.00     0.037 H 
ATOM     17  H21 82B d   1      16.954   5.849   7.288  0.00  0.00     0.037 H 
ATOM     18  H22 82B d   1      16.301   6.811   8.657  0.00  0.00     0.037 H 
ATOM     19  H23 82B d   1      15.245  10.481   4.893  0.00  0.00     0.072 H 
ATOM     20  H24 82B d   1      13.727   9.596   5.268  0.00  0.00     0.072 H 
ATOM     21  H25 82B d   1      17.037   5.628   4.905  0.00  0.00     0.189 HD
ENDROOT
BRANCH   3  22
ATOM     22  C24 82B d   1      13.553  11.535   8.705  0.00  0.00     0.062 C 
ATOM     23  H2  82B d   1      13.433  10.852   9.559  0.00  0.00     0.083 H 
BRANCH  22  24
ATOM     24  C25 82B d   1      14.429  12.665   9.102  0.00  0.00    -0.034 A 
ATOM     25  C30 82B d   1      14.771  13.659   8.175  0.00  0.00    -0.075 A 
ATOM     26  C29 82B d   1      15.567  14.727   8.581  0.00  0.00    -0.082 A 
ATOM     27  H3  82B d   1      14.419  13.597   7.152  0.00  0.00     0.084 H 
ATOM     28  C28 82B d   1      16.026  14.811   9.897  0.00  0.00    -0.083 A 
ATOM     29  H4  82B d   1      15.833  15.500   7.869  0.00  0.00     0.083 H 
ATOM     30  C27 82B d   1      15.683  13.820  10.821  0.00  0.00    -0.082 A 
ATOM     31  H5  82B d   1      16.648  15.645  10.202  0.00  0.00     0.083 H 
ATOM     32  C26 82B d   1      14.877  12.754  10.423  0.00  0.00    -0.075 A 
ATOM     33  H6  82B d   1      16.042  13.880  11.842  0.00  0.00     0.083 H 
ATOM     34  H7  82B d   1      14.597  11.992  11.141  0.00  0.00     0.084 H 
ENDBRANCH  22  24
BRANCH  22  35
ATOM     35  C23 82B d   1      12.183  12.028   8.235  0.00  0.00     0.106 C 
ATOM     36  H8  82B d   1      11.606  11.152   7.904  0.00  0.00     0.079 H 
ATOM     37  H9  82B d   1      12.344  12.705   7.383  0.00  0.00     0.079 H 
BRANCH  35  38
ATOM     38  N31 82B d   1      11.377  12.745   9.231  0.00  0.00    -0.069 N 
ATOM     39  C36 82B d   1      10.069  12.220   9.592  0.00  0.00     0.084 C 
ATOM     40  C35 82B d   1       9.407  13.409  10.279  0.00  0.00    -0.041 C 
ATOM     41  H11 82B d   1      10.161  11.366  10.279  0.00  0.00     0.076 H 
ATOM     42  H12 82B d   1       9.505  11.914   8.699  0.00  0.00     0.076 H 
ATOM     43  C34 82B d   1      10.360  14.602  10.169  0.00  0.00    -0.041 C 
ATOM     44  H13 82B d   1       9.222  13.174  11.338  0.00  0.00     0.035 H 
ATOM     45  H14 82B d   1       8.454  13.645   9.783  0.00  0.00     0.035 H 
ATOM     46  C33 82B d   1      11.731  14.052   9.789  0.00  0.00     0.084 C 
ATOM     47  H15 82B d   1      10.419  15.127  11.134  0.00  0.00     0.035 H 
ATOM     48  H16 82B d   1      10.005  15.297   9.394  0.00  0.00     0.035 H 
ATOM     49  H17 82B d   1      12.226  14.688   9.040  0.00  0.00     0.076 H 
ATOM     50  H18 82B d   1      12.381  13.950  10.670  0.00  0.00     0.076 H 
ATOM     51  H10 82B d   1      11.837  12.261   9.986  0.00  0.00     0.280 HD
ENDBRANCH  35  38
ENDBRANCH  22  35
ENDBRANCH   3  22
BRANCH  12  52
ATOM     52  N9  82B d   1      14.731   8.166   1.998  0.00  0.00    -0.304 N 
ATOM     53  C10 82B d   1      13.917   9.216   1.906  0.00  0.00     0.274 C 
ATOM     54  O12 82B d   1      13.686   9.957   2.843  0.00  0.00    -0.266 OA
ATOM     55  H26 82B d   1      14.905   7.632   1.171  0.00  0.00     0.171 HD
BRANCH  53  56
ATOM     56  C11 82B d   1      13.303   9.527   0.587  0.00  0.00     0.104 A 
ATOM     57  N16 82B d   1      12.382  10.500   0.353  0.00  0.00    -0.355 N 
ATOM     58  C15 82B d   1      12.040  10.515  -0.941  0.00  0.00    -0.004 A 
ATOM     59  C14 82B d   1      12.790   9.511  -1.473  0.00  0.00     0.028 A 
ATOM     60  H30 82B d   1      11.333  11.171  -1.446  0.00  0.00     0.113 H 
ATOM     61 BR   82B d   1      12.711   9.062  -3.396  0.00  0.00    -0.050 Br
ATOM     62  C13 82B d   1      13.597   8.848  -0.590  0.00  0.00    -0.033 A 
ATOM     63  H31 82B d   1      14.281   8.018  -0.761  0.00  0.00     0.089 H 
BRANCH  57  64
ATOM     64  C32 82B d   1      11.801  11.442   1.343  0.00  0.00    -0.014 C 
ATOM     65  H27 82B d   1      11.084  12.107   0.839  0.00  0.00     0.057 H 
ATOM     66  H28 82B d   1      12.605  12.043   1.793  0.00  0.00     0.057 H 
ATOM     67  H29 82B d   1      11.284  10.874   2.130  0.00  0.00     0.057 H 
ENDBRANCH  57  64
ENDBRANCH  53  56
ENDBRANCH  12  52
TORSDOF 7
