REMARK  6 active torsions:
REMARK  status: ('A' for Active; 'I' for Inactive)
REMARK       I    between atoms: C21_2  and  N22_3 
REMARK    1  A    between atoms: C21_2  and  C8_8 
REMARK    2  A    between atoms: N22_3  and  C24_4 
REMARK    3  A    between atoms: C24_4  and  C25_5 
REMARK    4  A    between atoms: C25_5  and  C26_6 
REMARK    5  A    between atoms: C26_6  and  N27_7 
REMARK    6  A    between atoms: N13_20  and  C14_21 
ROOT
ATOM      1  C8  1WS d   1      15.008  10.141   7.466  0.00  0.00     0.157 A 
ATOM      2  C7  1WS d   1      15.862   8.988   7.053  0.00  0.00     0.029 A 
ATOM      3  C4  1WS d   1      16.862   8.113   7.791  0.00  0.00    -0.066 C 
ATOM      4  C3  1WS d   1      17.037   6.750   7.100  0.00  0.00    -0.051 C 
ATOM      5  N9  1WS d   1      14.301  10.526   6.384  0.00  0.00    -0.168 NA
ATOM      6  N10 1WS d   1      14.612   9.727   5.250  0.00  0.00    -0.276 N 
ATOM      7  C6  1WS d   1      15.547   8.868   5.709  0.00  0.00     0.079 A 
ATOM      8  C1  1WS d   1      16.127   7.831   4.982  0.00  0.00     0.069 A 
ATOM      9  C11 1WS d   1      16.062   7.542   3.555  0.00  0.00     0.137 A 
ATOM     10  N12 1WS d   1      16.729   6.388   3.335  0.00  0.00    -0.261 N 
ATOM     11  N5  1WS d   1      17.165   5.954   4.624  0.00  0.00    -0.172 NA
ATOM     12  C2  1WS d   1      16.792   6.811   5.618  0.00  0.00     0.093 A 
ATOM     13  N13 1WS d   1      15.442   8.388   2.700  0.00  0.00    -0.341 N 
ATOM     14  H11 1WS d   1      17.389   8.413   8.696  0.00  0.00     0.085 H 
ATOM     15  H12 1WS d   1      17.309   5.838   7.628  0.00  0.00     0.087 H 
ATOM     16  H13 1WS d   1      14.217   9.789   4.301  0.00  0.00     0.189 HD
ATOM     17  H14 1WS d   1      16.889   5.921   2.431  0.00  0.00     0.191 HD
ATOM     18  H15 1WS d   1      14.923   9.150   3.159  0.00  0.00     0.167 HD
ENDROOT
BRANCH   1  19
ATOM     19  C21 1WS d   1      14.950  10.749   8.833  0.00  0.00     0.272 C 
ATOM     20  O23 1WS d   1      15.759  10.464   9.701  0.00  0.00    -0.266 OA
ATOM     21  N22 1WS d   1      13.987  11.631   9.074  0.00  0.00    -0.355 N 
ATOM     22  H1  1WS d   1      13.363  11.823   8.316  0.00  0.00     0.162 HD
BRANCH  21  23
ATOM     23  C24 1WS d   1      13.734  12.352  10.318  0.00  0.00    -0.003 C 
ATOM     24  H2  1WS d   1      13.555  13.419  10.120  0.00  0.00     0.064 H 
ATOM     25  H3  1WS d   1      14.582  12.245  11.010  0.00  0.00     0.064 H 
BRANCH  23  26
ATOM     26  C25 1WS d   1      12.482  11.691  10.891  0.00  0.00    -0.028 C 
ATOM     27  H4  1WS d   1      12.769  11.074  11.756  0.00  0.00     0.037 H 
ATOM     28  H5  1WS d   1      12.031  11.052  10.118  0.00  0.00     0.037 H 
BRANCH  26  29
ATOM     29  C26 1WS d   1      11.455  12.721  11.339  0.00  0.00     0.081 C 
ATOM     30  H6  1WS d   1      10.768  12.941  10.509  0.00  0.00     0.075 H 
ATOM     31  H7  1WS d   1      11.969  13.645  11.644  0.00  0.00     0.075 H 
BRANCH  29  32
ATOM     32  N27 1WS d   1      10.706  12.188  12.462  0.00  0.00    -0.079 N 
ATOM     33  H8  1WS d   1      10.024  12.866  12.763  0.00  0.00     0.274 HD
ATOM     34  H9  1WS d   1      11.337  11.986  13.222  0.00  0.00     0.274 HD
ATOM     35  H10 1WS d   1      10.237  11.341  12.181  0.00  0.00     0.274 HD
ENDBRANCH  29  32
ENDBRANCH  26  29
ENDBRANCH  23  26
ENDBRANCH  21  23
ENDBRANCH   1  19
BRANCH  13  36
ATOM     36  C14 1WS d   1      15.384   8.408   1.344  0.00  0.00     0.036 A 
ATOM     37  C19 1WS d   1      16.319   7.778   0.519  0.00  0.00    -0.020 A 
ATOM     38  C18 1WS d   1      16.179   7.872  -0.877  0.00  0.00     0.118 A 
ATOM     39  H16 1WS d   1      17.144   7.223   0.951  0.00  0.00     0.091 H 
ATOM     40  F20 1WS d   1      17.074   7.251  -1.667  0.00  0.00    -0.206 F 
ATOM     41  C17 1WS d   1      15.121   8.593  -1.464  0.00  0.00    -0.046 A 
ATOM     42  C16 1WS d   1      14.191   9.227  -0.643  0.00  0.00    -0.078 A 
ATOM     43  H17 1WS d   1      15.031   8.654  -2.543  0.00  0.00     0.088 H 
ATOM     44  C15 1WS d   1      14.334   9.134   0.752  0.00  0.00    -0.057 A 
ATOM     45  H18 1WS d   1      13.368   9.785  -1.075  0.00  0.00     0.083 H 
ATOM     46  H19 1WS d   1      13.615   9.636   1.390  0.00  0.00     0.086 H 
ENDBRANCH  13  36
TORSDOF 6
