REMARK WARNING: 32 MAX_TORS EXCEEDED!!!
REMARK  33 active torsions:
REMARK  status: ('A' for Active; 'I' for Inactive)
REMARK    1  A    between atoms: N_1  and  CA_2 
REMARK    2  A    between atoms: CA_2  and  C_3 
REMARK    3  A    between atoms: CA_2  and  CB_5 
REMARK       I    between atoms: C_3  and  N_7 
REMARK    4  A    between atoms: CB_5  and  OG_6 
REMARK    5  A    between atoms: N_7  and  CA_8 
REMARK    6  A    between atoms: CA_8  and  C_9 
REMARK    7  A    between atoms: CA_8  and  CB_11 
REMARK       I    between atoms: C_9  and  N_19 
REMARK    8  A    between atoms: CB_11  and  CG_12 
REMARK    9  A    between atoms: CZ_17  and  OH_18 
REMARK   10  A    between atoms: N_19  and  CA_20 
REMARK   11  A    between atoms: CA_20  and  C_21 
REMARK       I    between atoms: C_21  and  N_23 
REMARK   12  A    between atoms: N_23  and  CA_24 
REMARK   13  A    between atoms: CA_24  and  C_25 
REMARK   14  A    between atoms: CA_24  and  CB_27 
REMARK       I    between atoms: C_25  and  N_33 
REMARK   15  A    between atoms: CB_27  and  CG_28 
REMARK   16  A    between atoms: N_33  and  CA_34 
REMARK   17  A    between atoms: CA_34  and  C_35 
REMARK   18  A    between atoms: CA_34  and  CB_37 
REMARK       I    between atoms: C_35  and  N_41 
REMARK   19  A    between atoms: CB_37  and  CG_38 
REMARK   20  A    between atoms: CG_38  and  CD1_39 
REMARK   21  A    between atoms: CG_38  and  CD2_40 
REMARK   22  A    between atoms: N_41  and  CA_42 
REMARK   23  A    between atoms: CA_42  and  C_43 
REMARK   24  A    between atoms: CA_42  and  CB_45 
REMARK       I    between atoms: C_43  and  N_47 
REMARK   25  A    between atoms: CB_45  and  OG_46 
REMARK   26  A    between atoms: N_47  and  CA_48 
REMARK   27  A    between atoms: CA_48  and  C_49 
REMARK   28  A    between atoms: CA_48  and  CB_51 
REMARK       I    between atoms: C_49  and  N_55 
REMARK   29  A    between atoms: CB_51  and  CG1_52 
REMARK   30  A    between atoms: CB_51  and  CG2_53 
REMARK   31  A    between atoms: CG1_52  and  CD1_54 
REMARK   32  A    between atoms: N_55  and  CA_56 
REMARK   33  A    between atoms: CA_56  and  C_57 
ROOT
ATOM      1  C   HIS d   1      53.032 -10.480 -63.388  0.00  0.00     0.241 C 
ATOM      2  O   HIS d   1      52.253 -10.062 -64.239  0.00  0.00    -0.271 OA
ATOM      3  N   LEU d   1      54.341 -10.566 -63.602  0.00  0.00    -0.346 N 
ATOM      4  H27 LEU d   1      54.911 -11.077 -62.959  0.00  0.00     0.163 HD
ENDROOT
BRANCH   1   5
ATOM      5  CA  HIS d   1      52.507 -10.966 -62.034  0.00  0.00     0.094 C 
ATOM      6  H21 HIS d   1      53.352 -11.339 -61.437  0.00  0.00     0.088 H 
BRANCH   5   7
ATOM      7  N   HIS d   1      51.877  -9.857 -61.317  0.00  0.00    -0.346 N 
ATOM      8  C   GLY d   1      52.183  -9.549 -60.058  0.00  0.00     0.236 C 
ATOM      9  O   GLY d   1      52.958 -10.218 -59.370  0.00  0.00    -0.272 OA
ATOM     10  H20 HIS d   1      51.189  -9.308 -61.791  0.00  0.00     0.163 HD
BRANCH   8  11
ATOM     11  CA  GLY d   1      51.514  -8.301 -59.494  0.00  0.00     0.069 C 
ATOM     12  H18 GLY d   1      52.211  -7.458 -59.607  0.00  0.00     0.078 H 
ATOM     13  H19 GLY d   1      50.604  -8.106 -60.080  0.00  0.00     0.078 H 
BRANCH  11  14
ATOM     14  N   GLY d   1      51.139  -8.394 -58.091  0.00  0.00    -0.351 N 
ATOM     15  C   TYR d   1      49.879  -8.255 -57.678  0.00  0.00     0.241 C 
ATOM     16  O   TYR d   1      48.936  -8.078 -58.447  0.00  0.00    -0.271 OA
ATOM     17  H17 GLY d   1      51.852  -8.569 -57.412  0.00  0.00     0.163 HD
BRANCH  15  18
ATOM     18  CA  TYR d   1      49.656  -8.322 -56.165  0.00  0.00     0.093 C 
ATOM     19  H9  TYR d   1      50.570  -7.955 -55.675  0.00  0.00     0.088 H 
BRANCH  18  20
ATOM     20  N   TYR d   1      48.538  -7.495 -55.695  0.00  0.00    -0.346 N 
ATOM     21  C   SER d   1      48.593  -6.801 -54.558  0.00  0.00     0.251 C 
ATOM     22  O   SER d   1      49.590  -6.784 -53.830  0.00  0.00    -0.271 OA
ATOM     23  H8  TYR d   1      47.706  -7.451 -56.247  0.00  0.00     0.163 HD
BRANCH  21  24
ATOM     24  CA  SER d   1      47.343  -5.991 -54.183  0.00  0.00     0.195 C 
ATOM     25  H4  SER d   1      47.620  -4.928 -54.133  0.00  0.00     0.102 H 
BRANCH  24  26
ATOM     26  N   SER d   1      46.293  -6.142 -55.190  0.00  0.00    -0.064 N 
ATOM     27  H1  SER d   1      45.487  -5.601 -54.919  0.00  0.00     0.275 HD
ATOM     28  H2  SER d   1      46.036  -7.114 -55.264  0.00  0.00     0.275 HD
ATOM     29  H3  SER d   1      46.633  -5.815 -56.081  0.00  0.00     0.275 HD
ENDBRANCH  24  26
BRANCH  24  30
ATOM     30  CB  SER d   1      46.839  -6.431 -52.792  0.00  0.00     0.051 C 
ATOM     31  H5  SER d   1      47.693  -6.462 -52.099  0.00  0.00     0.077 H 
ATOM     32  H6  SER d   1      46.398  -7.435 -52.876  0.00  0.00     0.077 H 
BRANCH  30  33
ATOM     33  OG  SER d   1      45.862  -5.546 -52.272  0.00  0.00    -0.398 OA
ATOM     34  H7  SER d   1      46.236  -4.676 -52.190  0.00  0.00     0.209 HD
ENDBRANCH  30  33
ENDBRANCH  24  30
ENDBRANCH  21  24
ENDBRANCH  18  20
BRANCH  18  35
ATOM     35  CB  TYR d   1      49.436  -9.778 -55.754  0.00  0.00    -0.014 C 
ATOM     36  H10 TYR d   1      48.738 -10.238 -56.469  0.00  0.00     0.043 H 
ATOM     37  H11 TYR d   1      48.992  -9.791 -54.748  0.00  0.00     0.043 H 
BRANCH  35  38
ATOM     38  CG  TYR d   1      50.701 -10.603 -55.726  0.00  0.00    -0.056 A 
ATOM     39  CD1 TYR d   1      51.541 -10.600 -54.625  0.00  0.00    -0.074 A 
ATOM     40  CE1 TYR d   1      52.700 -11.365 -54.610  0.00  0.00    -0.051 A 
ATOM     41  H12 TYR d   1      51.290  -9.992 -53.763  0.00  0.00     0.084 H 
ATOM     42  CZ  TYR d   1      53.025 -12.142 -55.698  0.00  0.00     0.065 A 
ATOM     43  H14 TYR d   1      53.348 -11.350 -53.741  0.00  0.00     0.087 H 
ATOM     44  CE2 TYR d   1      52.205 -12.161 -56.802  0.00  0.00    -0.051 A 
ATOM     45  CD2 TYR d   1      51.052 -11.395 -56.809  0.00  0.00    -0.074 A 
ATOM     46  H15 TYR d   1      52.460 -12.772 -57.661  0.00  0.00     0.087 H 
ATOM     47  H13 TYR d   1      50.409 -11.415 -57.681  0.00  0.00     0.084 H 
BRANCH  42  48
ATOM     48  OH  TYR d   1      54.175 -12.895 -55.668  0.00  0.00    -0.361 OA
ATOM     49  H16 TYR d   1      54.746 -12.627 -56.378  0.00  0.00     0.217 HD
ENDBRANCH  42  48
ENDBRANCH  35  38
ENDBRANCH  18  35
ENDBRANCH  15  18
ENDBRANCH  11  14
ENDBRANCH   8  11
ENDBRANCH   5   7
BRANCH   5  50
ATOM     50  CB  HIS d   1      51.511 -12.105 -62.243  0.00  0.00     0.004 C 
ATOM     51  H22 HIS d   1      52.075 -13.019 -62.480  0.00  0.00     0.046 H 
ATOM     52  H23 HIS d   1      50.860 -11.845 -63.091  0.00  0.00     0.046 H 
BRANCH  50  53
ATOM     53  CG  HIS d   1      50.647 -12.379 -61.052  0.00  0.00     0.053 A 
ATOM     54  ND1 HIS d   1      50.893 -13.401 -60.164  0.00  0.00    -0.247 NA
ATOM     55  CE1 HIS d   1      49.967 -13.401 -59.224  0.00  0.00     0.064 A 
ATOM     56  NE2 HIS d   1      49.124 -12.410 -59.471  0.00  0.00    -0.359 N 
ATOM     57  H25 HIS d   1      49.906 -14.097 -58.388  0.00  0.00     0.143 H 
ATOM     58  CD2 HIS d   1      49.529 -11.755 -60.609  0.00  0.00     0.002 A 
ATOM     59  H26 HIS d   1      48.299 -12.169 -58.903  0.00  0.00     0.166 HD
ATOM     60  H24 HIS d   1      49.043 -10.896 -61.069  0.00  0.00     0.114 H 
ENDBRANCH  50  53
ENDBRANCH   5  50
ENDBRANCH   1   5
BRANCH   3  61
ATOM     61  CA  LEU d   1      54.963  -9.924 -64.765  0.00  0.00     0.089 C 
ATOM     62  H28 LEU d   1      54.168  -9.370 -65.287  0.00  0.00     0.087 H 
BRANCH  61  63
ATOM     63  C   LEU d   1      55.585 -10.873 -65.782  0.00  0.00     0.241 C 
ATOM     64  O   LEU d   1      56.366 -11.759 -65.433  0.00  0.00    -0.271 OA
ATOM     65  N   SER d   1      55.215 -10.660 -67.046  0.00  0.00    -0.344 N 
ATOM     66  H38 SER d   1      54.519  -9.963 -67.220  0.00  0.00     0.163 HD
BRANCH  65  67
ATOM     67  CA  SER d   1      55.765 -11.384 -68.196  0.00  0.00     0.109 C 
ATOM     68  H39 SER d   1      55.243 -11.031 -69.097  0.00  0.00     0.090 H 
BRANCH  67  69
ATOM     69  C   SER d   1      55.545 -12.884 -68.084  0.00  0.00     0.243 C 
ATOM     70  O   SER d   1      56.408 -13.681 -68.437  0.00  0.00    -0.271 OA
ATOM     71  N   ILE d   1      54.372 -13.257 -67.589  0.00  0.00    -0.346 N 
ATOM     72  H43 ILE d   1      53.688 -12.556 -67.386  0.00  0.00     0.163 HD
BRANCH  71  73
ATOM     73  CA  ILE d   1      54.049 -14.651 -67.332  0.00  0.00     0.092 C 
ATOM     74  H44 ILE d   1      54.829 -15.072 -66.681  0.00  0.00     0.088 H 
BRANCH  73  75
ATOM     75  C   ILE d   1      54.015 -15.441 -68.636  0.00  0.00     0.241 C 
ATOM     76  O   ILE d   1      54.249 -16.648 -68.643  0.00  0.00    -0.271 OA
ATOM     77  N   GLY d   1      53.657 -14.760 -69.720  0.00  0.00    -0.349 N 
ATOM     78  H54 GLY d   1      53.346 -13.815 -69.616  0.00  0.00     0.163 HD
BRANCH  77  79
ATOM     79  CA  GLY d   1      53.702 -15.342 -71.050  0.00  0.00     0.075 C 
ATOM     80  H55 GLY d   1      52.827 -14.996 -71.619  0.00  0.00     0.080 H 
ATOM     81  H56 GLY d   1      53.671 -16.438 -70.960  0.00  0.00     0.080 H 
BRANCH  79  82
ATOM     82  C   GLY d   1      54.966 -14.946 -71.802  0.00  0.00     0.191 C 
ATOM     83  O   GLY d   1      55.501 -13.818 -71.634  0.00  0.00    -0.647 OA
ATOM     84  O   GLY d   1      55.487 -15.763 -72.608  0.00  0.00    -0.647 OA
ENDBRANCH  79  82
ENDBRANCH  77  79
ENDBRANCH  73  75
BRANCH  73  85
ATOM     85  CB  ILE d   1      52.694 -14.801 -66.633  0.00  0.00    -0.030 C 
ATOM     86  H45 ILE d   1      52.520 -15.866 -66.420  0.00  0.00     0.043 H 
BRANCH  85  87
ATOM     87  CG1 ILE d   1      51.568 -14.282 -67.525  0.00  0.00    -0.063 C 
ATOM     88  H46 ILE d   1      51.692 -14.709 -68.531  0.00  0.00     0.033 H 
ATOM     89  H47 ILE d   1      51.642 -13.186 -67.581  0.00  0.00     0.033 H 
BRANCH  87  90
ATOM     90  CD1 ILE d   1      50.238 -14.635 -67.030  0.00  0.00    -0.076 C 
ATOM     91  H51 ILE d   1      49.474 -14.234 -67.713  0.00  0.00     0.027 H 
ATOM     92  H52 ILE d   1      50.094 -14.206 -66.027  0.00  0.00     0.027 H 
ATOM     93  H53 ILE d   1      50.145 -15.730 -66.978  0.00  0.00     0.027 H 
ENDBRANCH  87  90
ENDBRANCH  85  87
BRANCH  85  94
ATOM     94  CG2 ILE d   1      52.699 -14.021 -65.319  0.00  0.00    -0.071 C 
ATOM     95  H48 ILE d   1      53.509 -14.393 -64.675  0.00  0.00     0.028 H 
ATOM     96  H49 ILE d   1      51.734 -14.156 -64.809  0.00  0.00     0.028 H 
ATOM     97  H50 ILE d   1      52.858 -12.953 -65.527  0.00  0.00     0.028 H 
ENDBRANCH  85  94
ENDBRANCH  73  85
ENDBRANCH  71  73
ENDBRANCH  67  69
BRANCH  67  98
ATOM     98  CB  SER d   1      57.254 -11.083 -68.358  0.00  0.00     0.044 C 
ATOM     99  H40 SER d   1      57.663 -11.712 -69.162  0.00  0.00     0.077 H 
ATOM    100  H41 SER d   1      57.772 -11.310 -67.415  0.00  0.00     0.077 H 
BRANCH  98 101
ATOM    101  OG  SER d   1      57.462  -9.717 -68.685  0.00  0.00    -0.398 OA
ATOM    102  H42 SER d   1      57.113  -9.170 -67.991  0.00  0.00     0.209 HD
ENDBRANCH  98 101
ENDBRANCH  67  98
ENDBRANCH  65  67
ENDBRANCH  61  63
BRANCH  61 103
ATOM    103  CB  LEU d   1      56.016  -8.918 -64.302  0.00  0.00    -0.035 C 
ATOM    104  H29 LEU d   1      56.380  -8.378 -65.189  0.00  0.00     0.037 H 
ATOM    105  H30 LEU d   1      56.846  -9.482 -63.850  0.00  0.00     0.037 H 
BRANCH 103 106
ATOM    106  CG  LEU d   1      55.544  -7.878 -63.280  0.00  0.00    -0.059 C 
ATOM    107  H31 LEU d   1      54.540  -8.155 -62.926  0.00  0.00     0.038 H 
BRANCH 106 108
ATOM    108  CD1 LEU d   1      56.467  -7.815 -62.098  0.00  0.00    -0.073 C 
ATOM    109  H32 LEU d   1      56.100  -7.061 -61.386  0.00  0.00     0.028 H 
ATOM    110  H33 LEU d   1      57.477  -7.540 -62.436  0.00  0.00     0.028 H 
ATOM    111  H34 LEU d   1      56.500  -8.798 -61.606  0.00  0.00     0.028 H 
ENDBRANCH 106 108
BRANCH 106 112
ATOM    112  CD2 LEU d   1      55.475  -6.523 -63.968  0.00  0.00    -0.073 C 
ATOM    113  H35 LEU d   1      54.796  -6.584 -64.831  0.00  0.00     0.028 H 
ATOM    114  H36 LEU d   1      56.479  -6.235 -64.311  0.00  0.00     0.028 H 
ATOM    115  H37 LEU d   1      55.100  -5.770 -63.259  0.00  0.00     0.028 H 
ENDBRANCH 106 112
ENDBRANCH 103 106
ENDBRANCH  61 103
ENDBRANCH   3  61
TORSDOF 33
