REMARK  1 active torsions:
REMARK  status: ('A' for Active; 'I' for Inactive)
REMARK    1  A    between atoms: CAJ_10  and  CAI_9 
ROOT
ATOM      1  CAA 36E d   1      -4.389   3.050 -37.788  0.00  0.00    -0.081 A 
ATOM      2  CAB 36E d   1      -5.668   2.636 -38.153  0.00  0.00    -0.053 A 
ATOM      3  CAD 36E d   1      -4.028   4.377 -38.006  0.00  0.00    -0.081 A 
ATOM      4  CAE 36E d   1      -4.951   5.242 -38.575  0.00  0.00    -0.055 A 
ATOM      5  CAF 36E d   1      -6.167   4.802 -38.905  0.00  0.00     0.062 A 
ATOM      6  CAG 36E d   1      -6.515   3.516 -38.697  0.00  0.00     0.085 A 
ATOM      7  CAJ 36E d   1      -8.190   4.535 -39.571  0.00  0.00     0.213 A 
ATOM      8  NAK 36E d   1      -7.209   5.438 -39.454  0.00  0.00    -0.335 N 
ATOM      9  NAL 36E d   1      -7.770   3.354 -39.116  0.00  0.00    -0.225 NA
ATOM     10  H1  36E d   1      -3.688   2.353 -37.343  0.00  0.00     0.083 H 
ATOM     11  H2  36E d   1      -5.974   1.608 -37.997  0.00  0.00     0.087 H 
ATOM     12  H3  36E d   1      -3.039   4.729 -37.735  0.00  0.00     0.083 H 
ATOM     13  H4  36E d   1      -4.684   6.278 -38.752  0.00  0.00     0.087 H 
ATOM     14  H5  36E d   1      -7.248   6.429 -39.732  0.00  0.00     0.167 HD
ENDROOT
BRANCH   7  15
ATOM     15  CAI 36E d   1      -9.598   4.762 -40.186  0.00  0.00     0.451 C 
ATOM     16  FAC 36E d   1      -9.692   6.105 -40.719  0.00  0.00    -0.163 F 
ATOM     17  FAH 36E d   1     -10.595   4.536 -39.290  0.00  0.00    -0.163 F 
ATOM     18  FAM 36E d   1      -9.723   3.837 -41.183  0.00  0.00    -0.163 F 
ENDBRANCH   7  15
TORSDOF 1
