REMARK  2 active torsions:
REMARK  status: ('A' for Active; 'I' for Inactive)
REMARK    1  A    between atoms: CAP_16  and  C2_2 
REMARK    2  A    between atoms: C6_6  and  NAQ_18 
ROOT
ATOM      1  N1  9KQ d   1      -7.683  -1.957  39.974  0.00  0.00    -0.209 NA
ATOM      2  C2  9KQ d   1      -8.877  -1.362  40.159  0.00  0.00     0.162 A 
ATOM      3  N3  9KQ d   1      -9.045  -0.037  39.871  0.00  0.00    -0.228 NA
ATOM      4  C4  9KQ d   1      -8.003   0.686  39.369  0.00  0.00     0.073 A 
ATOM      5  C5  9KQ d   1      -6.765   0.097  39.179  0.00  0.00     0.039 A 
ATOM      6  C6  9KQ d   1      -6.588  -1.277  39.476  0.00  0.00     0.151 A 
ATOM      7  CAA 9KQ d   1      -8.187   2.038  39.103  0.00  0.00    -0.054 A 
ATOM      8  CAB 9KQ d   1      -7.174   2.823  38.600  0.00  0.00    -0.081 A 
ATOM      9  CAC 9KQ d   1      -5.940   2.238  38.391  0.00  0.00    -0.082 A 
ATOM     10  CAD 9KQ d   1      -5.756   0.902  38.674  0.00  0.00    -0.067 A 
ATOM     11  H1  9KQ d   1      -9.155   2.486  39.297  0.00  0.00     0.087 H 
ATOM     12  H2  9KQ d   1      -7.340   3.870  38.374  0.00  0.00     0.083 H 
ATOM     13  H3  9KQ d   1      -5.117   2.829  38.005  0.00  0.00     0.083 H 
ATOM     14  H4  9KQ d   1      -4.782   0.462  38.494  0.00  0.00     0.085 H 
ENDROOT
BRANCH   2  15
ATOM     15  CAP 9KQ d   1      -9.954  -2.097  40.673  0.00  0.00     0.012 A 
ATOM     16  CAK 9KQ d   1      -9.787  -3.392  41.151  0.00  0.00    -0.069 A 
ATOM     17  CAL 9KQ d   1     -10.886  -4.079  41.665  0.00  0.00    -0.082 A 
ATOM     18  H5  9KQ d   1      -8.811  -3.863  41.124  0.00  0.00     0.085 H 
ATOM     19  CAM 9KQ d   1     -12.125  -3.494  41.699  0.00  0.00    -0.083 A 
ATOM     20  H6  9KQ d   1     -10.759  -5.087  42.042  0.00  0.00     0.083 H 
ATOM     21  CAN 9KQ d   1     -12.284  -2.198  41.238  0.00  0.00    -0.082 A 
ATOM     22  H7  9KQ d   1     -12.976  -4.043  42.085  0.00  0.00     0.083 H 
ATOM     23  CAO 9KQ d   1     -11.202  -1.509  40.738  0.00  0.00    -0.069 A 
ATOM     24  H8  9KQ d   1     -13.259  -1.726  41.271  0.00  0.00     0.083 H 
ATOM     25  H9  9KQ d   1     -11.331  -0.490  40.390  0.00  0.00     0.085 H 
ENDBRANCH   2  15
BRANCH   6  26
ATOM     26  NAQ 9KQ d   1      -5.412  -1.970  39.310  0.00  0.00    -0.280 N 
ATOM     27  CAQ 9KQ d   1      -4.119  -1.725  38.976  0.00  0.00     0.094 A 
ATOM     28  NAT 9KQ d   1      -3.426  -2.902  39.040  0.00  0.00    -0.144 NA
ATOM     29  H10 9KQ d   1      -3.704  -0.756  38.703  0.00  0.00     0.147 H 
ATOM     30  NAS 9KQ d   1      -4.171  -3.839  39.385  0.00  0.00    -0.144 NA
ATOM     31  CAR 9KQ d   1      -5.395  -3.309  39.559  0.00  0.00     0.094 A 
ATOM     32  H11 9KQ d   1      -6.269  -3.883  39.863  0.00  0.00     0.147 H 
ENDBRANCH   6  26
TORSDOF 2
