REMARK  3 active torsions:
REMARK  status: ('A' for Active; 'I' for Inactive)
REMARK    1  A    between atoms: CAL_7  and  NAM_8 
REMARK       I    between atoms: NAM_8  and  CAN_9 
REMARK       I    between atoms: CAN_9  and  NAO_11 
REMARK    2  A    between atoms: NAO_11  and  CAP_12 
REMARK    3  A    between atoms: NAF_20  and  CAA_21 
ROOT
ATOM      1  CAP Q7U d   1       7.194   3.086 -33.115  0.00  0.00     0.711 A 
ATOM      2  NAQ Q7U d   1       7.943   1.992 -33.119  0.00  0.00    -0.062 NA
ATOM      3  CAR Q7U d   1       9.171   2.387 -32.771  0.00  0.00     0.103 A 
ATOM      4  CAS Q7U d   1      10.301   1.704 -32.626  0.00  0.00    -0.052 A 
ATOM      5  CAT Q7U d   1      11.479   2.346 -32.264  0.00  0.00    -0.081 A 
ATOM      6  CAI Q7U d   1      11.444   3.711 -32.047  0.00  0.00    -0.081 A 
ATOM      7  CAH Q7U d   1      10.246   4.376 -32.208  0.00  0.00    -0.054 A 
ATOM      8  CAG Q7U d   1       9.163   3.703 -32.558  0.00  0.00     0.080 A 
ATOM      9  NAF Q7U d   1       7.932   4.134 -32.757  0.00  0.00    -0.183 N 
ATOM     10  H7  Q7U d   1      10.304   0.633 -32.792  0.00  0.00     0.087 H 
ATOM     11  H8  Q7U d   1      12.403   1.790 -32.154  0.00  0.00     0.083 H 
ATOM     12  H9  Q7U d   1      12.340   4.248 -31.756  0.00  0.00     0.083 H 
ATOM     13  H10 Q7U d   1      10.193   5.447 -32.048  0.00  0.00     0.087 H 
ENDROOT
BRANCH   1  14
ATOM     14  NAO Q7U d   1       5.889   3.153 -33.363  0.00  0.00    -0.139 N 
ATOM     15  CAN Q7U d   1       5.263   2.092 -33.905  0.00  0.00     0.339 C 
ATOM     16  NAM Q7U d   1       5.964   1.003 -34.246  0.00  0.00    -0.307 N 
ATOM     17  OAE Q7U d   1       4.055   2.125 -34.101  0.00  0.00    -0.246 OA
ATOM     18  H5  Q7U d   1       6.949   0.940 -34.087  0.00  0.00     0.170 HD
ATOM     19  H6  Q7U d   1       5.377   3.985 -33.148  0.00  0.00     0.189 HD
BRANCH  16  20
ATOM     20  CAL Q7U d   1       5.276   0.002 -34.811  0.00  0.00     0.058 A 
ATOM     21  CAK Q7U d   1       5.832  -1.270 -34.741  0.00  0.00     0.060 A 
ATOM     22 CL   Q7U d   1       7.287  -1.555 -33.983  0.00  0.00    -0.082 Cl
ATOM     23  CAJ Q7U d   1       5.185  -2.352 -35.304  0.00  0.00    -0.060 A 
ATOM     24  CAB Q7U d   1       3.977  -2.164 -35.948  0.00  0.00    -0.081 A 
ATOM     25  H1  Q7U d   1       5.622  -3.342 -35.241  0.00  0.00     0.086 H 
ATOM     26  CAC Q7U d   1       3.416  -0.896 -36.029  0.00  0.00    -0.081 A 
ATOM     27  H2  Q7U d   1       3.465  -3.010 -36.392  0.00  0.00     0.083 H 
ATOM     28  CAD Q7U d   1       4.061   0.198 -35.463  0.00  0.00    -0.055 A 
ATOM     29  H3  Q7U d   1       2.468  -0.758 -36.537  0.00  0.00     0.083 H 
ATOM     30  H4  Q7U d   1       3.625   1.188 -35.528  0.00  0.00     0.087 H 
ENDBRANCH  16  20
ENDBRANCH   1  14
BRANCH   9  31
ATOM     31  CAA Q7U d   1       7.583   5.571 -32.591  0.00  0.00     0.003 C 
ATOM     32  H11 Q7U d   1       6.513   5.715 -32.803  0.00  0.00     0.058 H 
ATOM     33  H12 Q7U d   1       8.180   6.176 -33.289  0.00  0.00     0.058 H 
ATOM     34  H13 Q7U d   1       7.798   5.884 -31.558  0.00  0.00     0.058 H 
ENDBRANCH   9  31
TORSDOF 3
