REMARK  4 active torsions:
REMARK  status: ('A' for Active; 'I' for Inactive)
REMARK    1  A    between atoms: CAE_7  and  NAJ_8 
REMARK    2  A    between atoms: NAJ_8  and  C6_9 
REMARK    3  A    between atoms: C2_18  and  CAS_19 
REMARK    4  A    between atoms: CAV_24  and  OAU_25 
ROOT
ATOM      1  C6  O74 d   1      24.964 163.153  52.375  0.00  0.00     0.143 A 
ATOM      2  N1  O74 d   1      23.728 163.592  52.542  0.00  0.00    -0.210 NA
ATOM      3  C5  O74 d   1      25.746 162.720  53.439  0.00  0.00     0.039 A 
ATOM      4  CAI O74 d   1      27.076 162.260  53.264  0.00  0.00    -0.067 A 
ATOM      5  CAH O74 d   1      27.805 161.844  54.379  0.00  0.00    -0.082 A 
ATOM      6  CAK O74 d   1      27.216 161.894  55.659  0.00  0.00    -0.081 A 
ATOM      7  CAO O74 d   1      25.900 162.341  55.840  0.00  0.00    -0.054 A 
ATOM      8  C4  O74 d   1      25.159 162.756  54.718  0.00  0.00     0.073 A 
ATOM      9  N3  O74 d   1      23.899 163.206  54.854  0.00  0.00    -0.228 NA
ATOM     10  C2  O74 d   1      23.201 163.639  53.771  0.00  0.00     0.165 A 
ATOM     11  H6  O74 d   1      27.521 162.232  52.276  0.00  0.00     0.085 H 
ATOM     12  H7  O74 d   1      28.821 161.484  54.261  0.00  0.00     0.083 H 
ATOM     13  H8  O74 d   1      27.793 161.580  56.521  0.00  0.00     0.083 H 
ATOM     14  H9  O74 d   1      25.459 162.367  56.830  0.00  0.00     0.087 H 
ENDROOT
BRANCH   1  15
ATOM     15  NAJ O74 d   1      25.478 163.116  51.207  0.00  0.00    -0.339 N 
ATOM     16  H5  O74 d   1      26.344 162.586  51.032  0.00  0.00     0.167 HD
BRANCH  15  17
ATOM     17  CAE O74 d   1      24.876 163.773  50.220  0.00  0.00     0.055 A 
ATOM     18  CAB O74 d   1      25.656 163.692  49.106  0.00  0.00     0.060 A 
ATOM     19 CL   O74 d   1      27.042 162.844  49.419  0.00  0.00    -0.082 Cl
ATOM     20  CAC O74 d   1      25.322 164.246  47.891  0.00  0.00    -0.060 A 
ATOM     21  CAD O74 d   1      24.118 164.922  47.845  0.00  0.00    -0.081 A 
ATOM     22  H1  O74 d   1      25.965 164.157  47.023  0.00  0.00     0.086 H 
ATOM     23  CAG O74 d   1      23.283 165.008  48.972  0.00  0.00    -0.081 A 
ATOM     24  H2  O74 d   1      23.811 165.396  46.920  0.00  0.00     0.083 H 
ATOM     25  CAF O74 d   1      23.654 164.437  50.190  0.00  0.00    -0.056 A 
ATOM     26  H3  O74 d   1      22.334 165.527  48.894  0.00  0.00     0.083 H 
ATOM     27  H4  O74 d   1      23.022 164.507  51.068  0.00  0.00     0.087 H 
ENDBRANCH  15  17
ENDBRANCH   1  15
BRANCH  10  28
ATOM     28  CAS O74 d   1      21.864 163.996  53.897  0.00  0.00     0.045 A 
ATOM     29  CAT O74 d   1      21.047 164.244  52.781  0.00  0.00    -0.067 A 
ATOM     30  CAW O74 d   1      19.707 164.503  52.968  0.00  0.00    -0.082 A 
ATOM     31  H10 O74 d   1      21.467 164.232  51.782  0.00  0.00     0.085 H 
ATOM     32  CAY O74 d   1      19.183 164.459  54.265  0.00  0.00    -0.080 A 
ATOM     33  H11 O74 d   1      19.069 164.737  52.124  0.00  0.00     0.083 H 
ATOM     34  CAX O74 d   1      19.990 164.177  55.361  0.00  0.00    -0.050 A 
ATOM     35  H12 O74 d   1      18.127 164.649  54.418  0.00  0.00     0.083 H 
ATOM     36  CAV O74 d   1      21.304 163.921  55.160  0.00  0.00     0.079 A 
ATOM     37  H13 O74 d   1      19.573 164.162  56.362  0.00  0.00     0.087 H 
BRANCH  36  38
ATOM     38  OAU O74 d   1      22.162 163.657  56.157  0.00  0.00    -0.360 OA
ATOM     39  H14 O74 d   1      23.028 163.508  55.797  0.00  0.00     0.217 HD
ENDBRANCH  36  38
ENDBRANCH  10  28
TORSDOF 4
