REMARK  3 active torsions:
REMARK  status: ('A' for Active; 'I' for Inactive)
REMARK    1  A    between atoms: N19_9  and  C18_8 
REMARK    2  A    between atoms: N35_17  and  C29_15 
REMARK       I    between atoms: C33_16  and  N35_17 
REMARK    3  A    between atoms: C33_16  and  CAE_19 
ROOT
ATOM      1  C1  8M5 d   1     -11.693  -3.730 -32.141  0.00  0.00    -0.081 A 
ATOM      2  C2  8M5 d   1     -10.502  -4.412 -32.158  0.00  0.00    -0.056 A 
ATOM      3  C3  8M5 d   1      -9.419  -3.795 -32.616  0.00  0.00     0.045 A 
ATOM      4  C4  8M5 d   1      -9.414  -2.537 -33.070  0.00  0.00     0.008 A 
ATOM      5  C5  8M5 d   1     -10.529  -1.834 -33.086  0.00  0.00    -0.070 A 
ATOM      6  C6  8M5 d   1     -11.701  -2.417 -32.618  0.00  0.00    -0.082 A 
ATOM      7  C15 8M5 d   1      -7.402  -3.335 -33.267  0.00  0.00    -0.004 A 
ATOM      8  N19 8M5 d   1      -8.182  -4.282 -32.757  0.00  0.00    -0.359 N 
ATOM      9  CAE 8M5 d   1      -8.169  -2.266 -33.465  0.00  0.00     0.060 A 
ATOM     10  H1  8M5 d   1     -12.599  -4.195 -31.769  0.00  0.00     0.083 H 
ATOM     11  H2  8M5 d   1     -10.447  -5.435 -31.804  0.00  0.00     0.087 H 
ATOM     12  H3  8M5 d   1     -10.532  -0.816 -33.459  0.00  0.00     0.084 H 
ATOM     13  H4  8M5 d   1     -12.625  -1.850 -32.623  0.00  0.00     0.083 H 
ATOM     14  H5  8M5 d   1      -6.338  -3.418 -33.482  0.00  0.00     0.113 H 
ENDROOT
BRANCH   9  15
ATOM     15  C33 8M5 d   1      -7.700  -1.106 -33.930  0.00  0.00     0.258 C 
ATOM     16  N35 8M5 d   1      -6.346  -1.115 -34.271  0.00  0.00    -0.323 N 
ATOM     17  H14 8M5 d   1      -5.813  -1.953 -34.158  0.00  0.00     0.169 HD
ATOM     18  O37 8M5 d   1      -8.412  -0.093 -33.842  0.00  0.00    -0.267 OA
BRANCH  16  19
ATOM     19  C29 8M5 d   1      -5.755  -0.013 -34.748  0.00  0.00     0.035 A 
ATOM     20  C24 8M5 d   1      -4.508  -0.215 -35.321  0.00  0.00    -0.057 A 
ATOM     21  C25 8M5 d   1      -3.849   0.889 -35.867  0.00  0.00    -0.081 A 
ATOM     22  H9  8M5 d   1      -4.058  -1.201 -35.344  0.00  0.00     0.086 H 
ATOM     23  C26 8M5 d   1      -4.437   2.175 -35.830  0.00  0.00    -0.083 A 
ATOM     24  H10 8M5 d   1      -2.875   0.759 -36.325  0.00  0.00     0.083 H 
ATOM     25  C27 8M5 d   1      -5.678   2.391 -35.246  0.00  0.00    -0.081 A 
ATOM     26  H11 8M5 d   1      -3.906   3.012 -36.268  0.00  0.00     0.083 H 
ATOM     27  C28 8M5 d   1      -6.338   1.286 -34.713  0.00  0.00    -0.057 A 
ATOM     28  H12 8M5 d   1      -6.117   3.381 -35.206  0.00  0.00     0.083 H 
ATOM     29  H13 8M5 d   1      -7.315   1.417 -34.263  0.00  0.00     0.086 H 
ENDBRANCH  16  19
ENDBRANCH   9  15
BRANCH   8  30
ATOM     30  C18 8M5 d   1      -7.629  -5.660 -32.406  0.00  0.00    -0.014 C 
ATOM     31  H6  8M5 d   1      -8.437  -6.287 -32.001  0.00  0.00     0.057 H 
ATOM     32  H7  8M5 d   1      -6.834  -5.555 -31.653  0.00  0.00     0.057 H 
ATOM     33  H8  8M5 d   1      -7.218  -6.131 -33.311  0.00  0.00     0.057 H 
ENDBRANCH   8  30
TORSDOF 3
