REMARK  7 active torsions:
REMARK  status: ('A' for Active; 'I' for Inactive)
REMARK    1  A    between atoms: CAA_1  and  OAB_2 
REMARK    2  A    between atoms: OAB_2  and  CAE_3 
REMARK    3  A    between atoms: NAQ_9  and  CAV_10 
REMARK    4  A    between atoms: CAG_12  and  NAH_13 
REMARK       I    between atoms: NAH_13  and  CAI_14 
REMARK       I    between atoms: CAI_14  and  NAJ_16 
REMARK    5  A    between atoms: NAJ_16  and  CAK_17 
REMARK    6  A    between atoms: CAS_22  and  OAW_23 
REMARK    7  A    between atoms: OAW_23  and  CAX_24 
ROOT
ATOM      1  CAE FXE d   1      -6.188  -2.122 -35.878  0.00  0.00     0.084 A 
ATOM      2  CAF FXE d   1      -6.573  -3.266 -35.405  0.00  0.00     0.073 A 
ATOM      3  CAD FXE d   1      -4.921  -1.929 -36.426  0.00  0.00    -0.050 A 
ATOM      4  CAN FXE d   1      -4.067  -3.029 -36.434  0.00  0.00    -0.078 A 
ATOM      5  CAO FXE d   1      -4.534  -4.232 -35.909  0.00  0.00    -0.054 A 
ATOM      6  CAP FXE d   1      -5.769  -4.320 -35.402  0.00  0.00     0.069 A 
ATOM      7  NAQ FXE d   1      -6.462  -5.320 -34.832  0.00  0.00    -0.271 N 
ATOM      8  NAR FXE d   1      -7.646  -4.910 -34.524  0.00  0.00    -0.153 NA
ATOM      9  CAG FXE d   1      -7.741  -3.619 -34.892  0.00  0.00     0.167 A 
ATOM     10  H4  FXE d   1      -4.615  -0.969 -36.827  0.00  0.00     0.087 H 
ATOM     11  H5  FXE d   1      -3.064  -2.951 -36.839  0.00  0.00     0.083 H 
ATOM     12  H6  FXE d   1      -3.891  -5.105 -35.911  0.00  0.00     0.087 H 
ENDROOT
BRANCH   9  13
ATOM     13  NAH FXE d   1      -8.828  -2.859 -34.668  0.00  0.00    -0.291 N 
ATOM     14  CAI FXE d   1      -9.921  -3.509 -34.182  0.00  0.00     0.326 C 
ATOM     15  OAC FXE d   1     -10.944  -2.892 -33.855  0.00  0.00    -0.247 OA
ATOM     16  NAJ FXE d   1      -9.845  -4.859 -34.122  0.00  0.00    -0.306 N 
ATOM     17  H11 FXE d   1      -9.045  -5.321 -34.504  0.00  0.00     0.171 HD
ATOM     18  H10 FXE d   1      -8.833  -1.875 -34.848  0.00  0.00     0.172 HD
BRANCH  16  19
ATOM     19  CAK FXE d   1     -10.794  -5.572 -33.576  0.00  0.00     0.069 A 
ATOM     20  CAL FXE d   1     -12.141  -5.244 -33.398  0.00  0.00    -0.054 A 
ATOM     21  CAM FXE d   1     -12.950  -6.156 -32.776  0.00  0.00    -0.081 A 
ATOM     22  H12 FXE d   1     -12.534  -4.294 -33.743  0.00  0.00     0.087 H 
ATOM     23  CAU FXE d   1     -12.419  -7.347 -32.295  0.00  0.00    -0.080 A 
ATOM     24  H13 FXE d   1     -14.008  -5.949 -32.658  0.00  0.00     0.083 H 
ATOM     25  CAT FXE d   1     -11.074  -7.646 -32.472  0.00  0.00    -0.049 A 
ATOM     26  H14 FXE d   1     -13.061  -8.050 -31.776  0.00  0.00     0.083 H 
ATOM     27  CAS FXE d   1     -10.270  -6.740 -33.126  0.00  0.00     0.095 A 
ATOM     28  H15 FXE d   1     -10.664  -8.578 -32.101  0.00  0.00     0.087 H 
BRANCH  27  29
ATOM     29  OAW FXE d   1      -8.921  -6.851 -33.412  0.00  0.00    -0.354 OA
BRANCH  29  30
ATOM     30  CAX FXE d   1      -8.287  -8.057 -32.938  0.00  0.00     0.010 C 
ATOM     31  H16 FXE d   1      -7.223  -8.045 -33.216  0.00  0.00     0.066 H 
ATOM     32  H17 FXE d   1      -8.775  -8.931 -33.393  0.00  0.00     0.066 H 
ATOM     33  H18 FXE d   1      -8.379  -8.114 -31.843  0.00  0.00     0.066 H 
ENDBRANCH  29  30
ENDBRANCH  27  29
ENDBRANCH  16  19
ENDBRANCH   9  13
BRANCH   1  34
ATOM     34  OAB FXE d   1      -7.162  -1.195 -35.786  0.00  0.00    -0.355 OA
BRANCH  34  35
ATOM     35  CAA FXE d   1      -6.680   0.052 -35.287  0.00  0.00     0.010 C 
ATOM     36  H1  FXE d   1      -7.511   0.771 -35.232  0.00  0.00     0.066 H 
ATOM     37  H2  FXE d   1      -5.903   0.441 -35.962  0.00  0.00     0.066 H 
ATOM     38  H3  FXE d   1      -6.255  -0.095 -34.283  0.00  0.00     0.066 H 
ENDBRANCH  34  35
ENDBRANCH   1  34
BRANCH   7  39
ATOM     39  CAV FXE d   1      -5.954  -6.677 -34.615  0.00  0.00     0.003 C 
ATOM     40  H7  FXE d   1      -6.731  -7.287 -34.131  0.00  0.00     0.059 H 
ATOM     41  H8  FXE d   1      -5.065  -6.637 -33.969  0.00  0.00     0.059 H 
ATOM     42  H9  FXE d   1      -5.684  -7.127 -35.582  0.00  0.00     0.059 H 
ENDBRANCH   7  39
TORSDOF 7
