REMARK  6 active torsions:
REMARK  status: ('A' for Active; 'I' for Inactive)
REMARK    1  A    between atoms: CAR_1  and  OAQ_2 
REMARK    2  A    between atoms: OAQ_2  and  CAP_3 
REMARK    3  A    between atoms: CAS_7  and  OAV_8 
REMARK    4  A    between atoms: OAV_8  and  CAX_9 
REMARK    5  A    between atoms: CAO_11  and  NAM_12 
REMARK       I    between atoms: NAM_12  and  CAK_13 
REMARK    6  A    between atoms: CAK_13  and  CAG_15 
ROOT
ATOM      1  NAM NKH d   1      -7.601  -3.623 -33.474  0.00  0.00    -0.320 N 
ATOM      2  CAK NKH d   1      -7.857  -2.364 -33.918  0.00  0.00     0.258 C 
ATOM      3  OAL NKH d   1      -8.953  -1.797 -33.899  0.00  0.00    -0.267 OA
ATOM      4  H9  NKH d   1      -6.659  -3.957 -33.499  0.00  0.00     0.169 HD
ENDROOT
BRANCH   1   5
ATOM      5  CAO NKH d   1      -8.571  -4.448 -32.998  0.00  0.00     0.071 A 
ATOM      6  CAP NKH d   1      -8.110  -5.708 -32.690  0.00  0.00     0.096 A 
ATOM      7  CAU NKH d   1      -8.927  -6.709 -32.201  0.00  0.00    -0.025 A 
ATOM      8  CAT NKH d   1     -10.271  -6.444 -31.996  0.00  0.00     0.070 A 
ATOM      9  H4  NKH d   1      -8.521  -7.690 -31.980  0.00  0.00     0.090 H 
ATOM     10 CL   NKH d   1     -11.305  -7.737 -31.376  0.00  0.00    -0.081 Cl
ATOM     11  CAS NKH d   1     -10.759  -5.166 -32.310  0.00  0.00     0.092 A 
ATOM     12  CAN NKH d   1      -9.923  -4.175 -32.812  0.00  0.00    -0.021 A 
ATOM     13  H8  NKH d   1     -10.321  -3.197 -33.057  0.00  0.00     0.091 H 
BRANCH   6  14
ATOM     14  OAQ NKH d   1      -6.796  -5.899 -32.885  0.00  0.00    -0.354 OA
BRANCH  14  15
ATOM     15  CAR NKH d   1      -6.607  -7.078 -33.651  0.00  0.00     0.010 C 
ATOM     16  H1  NKH d   1      -5.531  -7.240 -33.815  0.00  0.00     0.066 H 
ATOM     17  H2  NKH d   1      -7.113  -6.970 -34.622  0.00  0.00     0.066 H 
ATOM     18  H3  NKH d   1      -7.030  -7.938 -33.111  0.00  0.00     0.066 H 
ENDBRANCH  14  15
ENDBRANCH   6  14
BRANCH  11  19
ATOM     19  OAV NKH d   1     -12.083  -4.955 -32.068  0.00  0.00    -0.354 OA
BRANCH  19  20
ATOM     20  CAX NKH d   1     -12.530  -3.915 -32.909  0.00  0.00     0.010 C 
ATOM     21  H5  NKH d   1     -13.599  -3.730 -32.727  0.00  0.00     0.066 H 
ATOM     22  H6  NKH d   1     -12.381  -4.204 -33.960  0.00  0.00     0.066 H 
ATOM     23  H7  NKH d   1     -11.958  -3.000 -32.696  0.00  0.00     0.066 H 
ENDBRANCH  19  20
ENDBRANCH  11  19
ENDBRANCH   1   5
BRANCH   2  24
ATOM     24  CAG NKH d   1      -6.745  -1.646 -34.370  0.00  0.00     0.061 A 
ATOM     25  CAH NKH d   1      -5.500  -2.226 -34.536  0.00  0.00     0.082 A 
ATOM     26  NAI NKH d   1      -5.326  -3.518 -34.246  0.00  0.00    -0.259 NA
ATOM     27  CAC NKH d   1      -4.429  -1.479 -34.972  0.00  0.00    -0.006 A 
ATOM     28  CAJ NKH d   1      -4.084  -4.139 -34.429  0.00  0.00     0.003 A 
ATOM     29  CAE NKH d   1      -2.999  -3.410 -34.852  0.00  0.00    -0.065 A 
ATOM     30  H10 NKH d   1      -3.978  -5.200 -34.236  0.00  0.00     0.114 H 
ATOM     31  CAD NKH d   1      -3.186  -2.071 -35.137  0.00  0.00    -0.069 A 
ATOM     32  H11 NKH d   1      -2.024  -3.872 -34.959  0.00  0.00     0.085 H 
ATOM     33  H12 NKH d   1      -2.352  -1.477 -35.493  0.00  0.00     0.085 H 
ATOM     34  CAB NKH d   1      -4.582  -0.125 -35.247  0.00  0.00    -0.071 A 
ATOM     35  CAA NKH d   1      -5.832   0.454 -35.082  0.00  0.00    -0.081 A 
ATOM     36  H13 NKH d   1      -3.740   0.468 -35.584  0.00  0.00     0.084 H 
ATOM     37  CAF NKH d   1      -6.906  -0.310 -34.637  0.00  0.00    -0.065 A 
ATOM     38  H14 NKH d   1      -5.972   1.506 -35.301  0.00  0.00     0.083 H 
ATOM     39  H15 NKH d   1      -7.876   0.153 -34.500  0.00  0.00     0.085 H 
ENDBRANCH   2  24
TORSDOF 6
