REMARK  5 active torsions:
REMARK  status: ('A' for Active; 'I' for Inactive)
REMARK    1  A    between atoms: CAF_1  and  CAE_2 
REMARK    2  A    between atoms: CAE_2  and  NAD_3 
REMARK       I    between atoms: NAN_12  and  CAO_13 
REMARK       I    between atoms: CAO_13  and  NAP_15 
REMARK    3  A    between atoms: NAP_15  and  CAQ_16 
REMARK    4  A    between atoms: CAR_21  and  OAG_22 
REMARK    5  A    between atoms: OAG_22  and  CAH_23 
ROOT
ATOM      1  NAD 36K d   1      11.072 103.987 182.430  0.00  0.00    -0.179 N 
ATOM      2  CAC 36K d   1      12.372 103.854 182.171  0.00  0.00     0.081 A 
ATOM      3  CAB 36K d   1      13.032 102.881 181.614  0.00  0.00    -0.054 A 
ATOM      4  CAA 36K d   1      14.384 103.030 181.443  0.00  0.00    -0.081 A 
ATOM      5  CAI 36K d   1      15.059 104.140 181.875  0.00  0.00    -0.081 A 
ATOM      6  CAJ 36K d   1      14.321 105.111 182.445  0.00  0.00    -0.052 A 
ATOM      7  CAK 36K d   1      13.032 104.946 182.568  0.00  0.00     0.103 A 
ATOM      8  NAL 36K d   1      12.182 105.774 183.078  0.00  0.00    -0.062 NA
ATOM      9  CAM 36K d   1      10.983 105.182 183.016  0.00  0.00     0.711 A 
ATOM     10  NAN 36K d   1       9.923 105.842 183.499  0.00  0.00    -0.139 N 
ATOM     11  CAO 36K d   1       8.756 105.220 183.751  0.00  0.00     0.339 C 
ATOM     12  OAT 36K d   1       8.551 104.020 183.522  0.00  0.00    -0.246 OA
ATOM     13  NAP 36K d   1       7.824 106.023 184.288  0.00  0.00    -0.306 N 
ATOM     14  H6  36K d   1      12.527 101.977 181.294  0.00  0.00     0.087 H 
ATOM     15  H7  36K d   1      14.938 102.241 180.948  0.00  0.00     0.083 H 
ATOM     16  H8  36K d   1      16.133 104.232 181.764  0.00  0.00     0.083 H 
ATOM     17  H9  36K d   1      14.793 106.021 182.798  0.00  0.00     0.087 H 
ATOM     18  H10 36K d   1      10.000 106.823 183.677  0.00  0.00     0.189 HD
ATOM     19  H11 36K d   1       6.929 105.665 184.555  0.00  0.00     0.171 HD
ENDROOT
BRANCH   1  20
ATOM     20  CAE 36K d   1      10.114 102.869 182.055  0.00  0.00     0.014 C 
ATOM     21  H4  36K d   1       9.219 103.309 181.591  0.00  0.00     0.065 H 
ATOM     22  H5  36K d   1      10.610 102.203 181.334  0.00  0.00     0.065 H 
BRANCH  20  23
ATOM     23  CAF 36K d   1       9.679 102.033 183.298  0.00  0.00    -0.060 C 
ATOM     24  H1  36K d   1       8.988 101.238 182.981  0.00  0.00     0.029 H 
ATOM     25  H2  36K d   1       9.175 102.689 184.023  0.00  0.00     0.029 H 
ATOM     26  H3  36K d   1      10.567 101.583 183.766  0.00  0.00     0.029 H 
ENDBRANCH  20  23
ENDBRANCH   1  20
BRANCH  13  27
ATOM     27  CAQ 36K d   1       8.126 107.312 184.455  0.00  0.00     0.069 A 
ATOM     28  CAU 36K d   1       9.304 107.884 184.042  0.00  0.00    -0.054 A 
ATOM     29  CAV 36K d   1       9.503 109.234 184.259  0.00  0.00    -0.081 A 
ATOM     30  H12 36K d   1      10.065 107.286 183.554  0.00  0.00     0.087 H 
ATOM     31  CAW 36K d   1       8.524 110.014 184.888  0.00  0.00    -0.080 A 
ATOM     32  H13 36K d   1      10.430 109.696 183.938  0.00  0.00     0.083 H 
ATOM     33  CAS 36K d   1       7.336 109.446 185.315  0.00  0.00    -0.049 A 
ATOM     34  H14 36K d   1       8.698 111.073 185.042  0.00  0.00     0.083 H 
ATOM     35  CAR 36K d   1       7.166 108.085 185.077  0.00  0.00     0.095 A 
ATOM     36  H15 36K d   1       6.573 110.034 185.812  0.00  0.00     0.087 H 
BRANCH  35  37
ATOM     37  OAG 36K d   1       6.055 107.423 185.445  0.00  0.00    -0.354 OA
BRANCH  37  38
ATOM     38  CAH 36K d   1       6.388 106.019 185.513  0.00  0.00     0.010 C 
ATOM     39  H16 36K d   1       5.498 105.445 185.812  0.00  0.00     0.066 H 
ATOM     40  H17 36K d   1       7.188 105.867 186.252  0.00  0.00     0.066 H 
ATOM     41  H18 36K d   1       6.731 105.675 184.526  0.00  0.00     0.066 H 
ENDBRANCH  37  38
ENDBRANCH  35  37
ENDBRANCH  13  27
TORSDOF 5
