REMARK  5 active torsions:
REMARK  status: ('A' for Active; 'I' for Inactive)
REMARK    1  A    between atoms: SAD_4  and  NAA_1 
REMARK    2  A    between atoms: CAM_13  and  SAD_4 
REMARK    3  A    between atoms: CAH_8  and  CAG_7 
REMARK    4  A    between atoms: NAK_11  and  CAJ_10 
REMARK    5  A    between atoms: CAL_12  and  NAK_11 
ROOT
ATOM      1  NAK U98 d   1      -8.807  -5.838 -33.045  0.00  0.00    -0.340 N 
ATOM      2  H4  U98 d   1      -8.575  -6.718 -32.562  0.00  0.00     0.167 HD
ENDROOT
BRANCH   1   3
ATOM      3  CAJ U98 d   1      -7.791  -5.186 -33.694  0.00  0.00     0.034 A 
ATOM      4  CAI U98 d   1      -7.809  -3.869 -34.161  0.00  0.00    -0.043 A 
ATOM      5  CAH U98 d   1      -6.715  -3.300 -34.812  0.00  0.00     0.050 A 
ATOM      6  H3  U98 d   1      -8.701  -3.271 -34.013  0.00  0.00     0.088 H 
ATOM      7  CAP U98 d   1      -5.551  -4.062 -34.974  0.00  0.00    -0.068 A 
ATOM      8  CAQ U98 d   1      -5.526  -5.370 -34.507  0.00  0.00    -0.080 A 
ATOM      9  H6  U98 d   1      -4.680  -3.636 -35.458  0.00  0.00     0.084 H 
ATOM     10  CAR U98 d   1      -6.629  -5.914 -33.872  0.00  0.00    -0.057 A 
ATOM     11  H7  U98 d   1      -4.634  -5.971 -34.641  0.00  0.00     0.083 H 
ATOM     12  H8  U98 d   1      -6.581  -6.933 -33.506  0.00  0.00     0.086 H 
BRANCH   5  13
ATOM     13  CAG U98 d   1      -6.747  -1.961 -35.300  0.00  0.00     0.417 C 
ATOM     14  FAB U98 d   1      -6.335  -1.218 -34.413  0.00  0.00    -0.166 F 
ATOM     15  FAF U98 d   1      -8.212  -1.493 -35.764  0.00  0.00    -0.166 F 
ATOM     16  FAO U98 d   1      -5.932  -1.856 -36.317  0.00  0.00    -0.166 F 
ENDBRANCH   5  13
ENDBRANCH   1   3
BRANCH   1  17
ATOM     17  CAL U98 d   1     -10.095  -5.414 -32.990  0.00  0.00     0.151 A 
ATOM     18  CAM U98 d   1     -11.011  -6.212 -32.302  0.00  0.00     0.125 A 
ATOM     19  CAN U98 d   1     -12.361  -5.859 -32.186  0.00  0.00    -0.055 A 
ATOM     20  CAU U98 d   1     -12.800  -4.691 -32.771  0.00  0.00    -0.064 A 
ATOM     21  H5  U98 d   1     -13.051  -6.495 -31.644  0.00  0.00     0.086 H 
ATOM     22  CAT U98 d   1     -11.871  -3.924 -33.452  0.00  0.00     0.004 A 
ATOM     23  H10 U98 d   1     -13.837  -4.384 -32.700  0.00  0.00     0.085 H 
ATOM     24  NAS U98 d   1     -10.523  -4.299 -33.540  0.00  0.00    -0.242 NA
ATOM     25  H9  U98 d   1     -12.195  -3.007 -33.931  0.00  0.00     0.114 H 
BRANCH  18  26
ATOM     26  SAD U98 d   1     -10.567  -7.634 -31.540  0.00  0.00     0.260 S 
ATOM     27  OAC U98 d   1     -11.537  -7.790 -30.392  0.00  0.00    -0.201 OA
ATOM     28  OAE U98 d   1      -9.147  -7.536 -30.994  0.00  0.00    -0.201 OA
BRANCH  26  29
ATOM     29  NAA U98 d   1     -10.624  -8.922 -32.665  0.00  0.00    -0.324 N 
ATOM     30  H1  U98 d   1     -11.481  -9.141 -33.132  0.00  0.00     0.169 HD
ATOM     31  H2  U98 d   1      -9.800  -9.456 -32.856  0.00  0.00     0.169 HD
ENDBRANCH  26  29
ENDBRANCH  18  26
ENDBRANCH   1  17
TORSDOF 5
