REMARK  3 active torsions:
REMARK  status: ('A' for Active; 'I' for Inactive)
REMARK       I    between atoms: CAO_9  and  NAP_11 
REMARK       I    between atoms: CAO_9  and  NAH_19 
REMARK    1  A    between atoms: NAP_11  and  CAQ_13 
REMARK    2  A    between atoms: CAR_18  and  OAG_20 
REMARK    3  A    between atoms: OAG_20  and  CAH_21 
ROOT
ATOM      1  CAF 36G d   1      -5.249   2.626  35.855  0.00  0.00     0.005 C 
ATOM      2  CAE 36G d   1      -4.240   2.180  34.994  0.00  0.00    -0.046 C 
ATOM      3  CAC 36G d   1      -5.472   0.113  35.329  0.00  0.00    -0.031 A 
ATOM      4  CAB 36G d   1      -5.586  -1.262  35.436  0.00  0.00    -0.075 A 
ATOM      5  CAA 36G d   1      -6.831  -1.890  35.470  0.00  0.00    -0.082 A 
ATOM      6  CAI 36G d   1      -8.012  -1.160  35.395  0.00  0.00    -0.081 A 
ATOM      7  CAJ 36G d   1      -7.901   0.209  35.302  0.00  0.00    -0.056 A 
ATOM      8  CAK 36G d   1      -6.644   0.843  35.245  0.00  0.00     0.045 A 
ATOM      9  CAO 36G d   1      -7.300   3.064  34.545  0.00  0.00     0.327 C 
ATOM     10  OAT 36G d   1      -7.060   4.274  34.570  0.00  0.00    -0.246 OA
ATOM     11  NAP 36G d   1      -8.368   2.606  33.897  0.00  0.00    -0.306 N 
ATOM     12  CA0 36G d   1      -4.187   0.704  35.313  0.00  0.00    -0.037 C 
ATOM     13  NAH 36G d   1      -6.490   2.173  35.175  0.00  0.00    -0.299 N 
ATOM     14  H1  36G d   1      -5.229   3.721  35.954  0.00  0.00     0.065 H 
ATOM     15  H2  36G d   1      -5.152   2.166  36.850  0.00  0.00     0.065 H 
ATOM     16  H3  36G d   1      -3.281   2.671  35.214  0.00  0.00     0.035 H 
ATOM     17  H4  36G d   1      -4.508   2.352  33.941  0.00  0.00     0.035 H 
ATOM     18  H5  36G d   1      -4.687  -1.865  35.495  0.00  0.00     0.084 H 
ATOM     19  H6  36G d   1      -6.879  -2.970  35.557  0.00  0.00     0.083 H 
ATOM     20  H7  36G d   1      -8.980  -1.648  35.409  0.00  0.00     0.083 H 
ATOM     21  H8  36G d   1      -8.801   0.813  35.272  0.00  0.00     0.086 H 
ATOM     22  H9  36G d   1      -8.521   1.621  33.822  0.00  0.00     0.171 HD
ATOM     23  H10 36G d   1      -3.724   0.572  36.302  0.00  0.00     0.040 H 
ATOM     24  H11 36G d   1      -3.575   0.199  34.551  0.00  0.00     0.040 H 
ENDROOT
BRANCH  11  25
ATOM     25  CAQ 36G d   1      -9.229   3.452  33.350  0.00  0.00     0.069 A 
ATOM     26  CAU 36G d   1      -8.940   4.715  32.851  0.00  0.00    -0.054 A 
ATOM     27  CAV 36G d   1      -9.984   5.444  32.338  0.00  0.00    -0.081 A 
ATOM     28  H12 36G d   1      -7.931   5.110  32.866  0.00  0.00     0.087 H 
ATOM     29  CAW 36G d   1     -11.262   4.920  32.319  0.00  0.00    -0.080 A 
ATOM     30  H13 36G d   1      -9.804   6.438  31.945  0.00  0.00     0.083 H 
ATOM     31  CAS 36G d   1     -11.542   3.675  32.818  0.00  0.00    -0.049 A 
ATOM     32  H14 36G d   1     -12.067   5.511  31.897  0.00  0.00     0.083 H 
ATOM     33  CAR 36G d   1     -10.516   2.944  33.341  0.00  0.00     0.095 A 
ATOM     34  H15 36G d   1     -12.552   3.281  32.798  0.00  0.00     0.087 H 
BRANCH  33  35
ATOM     35  OAG 36G d   1     -10.663   1.690  33.888  0.00  0.00    -0.354 OA
BRANCH  35  36
ATOM     36  CAH 36G d   1     -11.632   0.805  33.316  0.00  0.00     0.010 C 
ATOM     37  H16 36G d   1     -11.625  -0.149  33.863  0.00  0.00     0.066 H 
ATOM     38  H17 36G d   1     -11.384   0.623  32.260  0.00  0.00     0.066 H 
ATOM     39  H18 36G d   1     -12.631   1.261  33.385  0.00  0.00     0.066 H 
ENDBRANCH  35  36
ENDBRANCH  33  35
ENDBRANCH  11  25
TORSDOF 3
