REMARK  3 active torsions:
REMARK  status: ('A' for Active; 'I' for Inactive)
REMARK    1  A    between atoms: CAK_7  and  NAL_8 
REMARK    2  A    between atoms: NAL_8  and  CAM_9 
REMARK    3  A    between atoms: CAO_14  and  NAP_15 
ROOT
ATOM      1  CAM WI4 d   1     -27.265 -17.969  35.113  0.00  0.00     0.744 A 
ATOM      2  NAN WI4 d   1     -26.669 -18.987  34.482  0.00  0.00     0.131 NA
ATOM      3  NAD WI4 d   1     -26.656 -16.775  35.294  0.00  0.00    -0.055 NA
ATOM      4  CAE WI4 d   1     -25.354 -16.626  34.781  0.00  0.00     0.124 A 
ATOM      5  NAF WI4 d   1     -24.741 -17.726  34.115  0.00  0.00    -0.054 NA
ATOM      6  CAO WI4 d   1     -25.430 -18.886  34.001  0.00  0.00     0.749 A 
ATOM      7  H6  WI4 d   1     -24.825 -15.687  34.891  0.00  0.00     0.148 H 
ENDROOT
BRANCH   1   8
ATOM      8  NAL WI4 d   1     -28.485 -18.201  35.552  0.00  0.00    -0.186 N 
ATOM      9  H5  WI4 d   1     -28.906 -19.140  35.514  0.00  0.00     0.184 HD
BRANCH   8  10
ATOM     10  CAK WI4 d   1     -29.134 -17.173  36.040  0.00  0.00     0.071 A 
ATOM     11  CAJ WI4 d   1     -30.390 -17.456  36.550  0.00  0.00     0.061 A 
ATOM     12 CL   WI4 d   1     -31.034 -19.085  36.523  0.00  0.00    -0.082 Cl
ATOM     13  CAI WI4 d   1     -31.130 -16.420  37.087  0.00  0.00    -0.060 A 
ATOM     14  CAA WI4 d   1     -30.599 -15.128  37.104  0.00  0.00    -0.081 A 
ATOM     15  H1  WI4 d   1     -32.117 -16.609  37.493  0.00  0.00     0.086 H 
ATOM     16  CAB WI4 d   1     -29.332 -14.858  36.582  0.00  0.00    -0.081 A 
ATOM     17  H2  WI4 d   1     -31.181 -14.319  37.531  0.00  0.00     0.083 H 
ATOM     18  CAC WI4 d   1     -28.583 -15.895  36.044  0.00  0.00    -0.055 A 
ATOM     19  H3  WI4 d   1     -28.938 -13.848  36.597  0.00  0.00     0.083 H 
ATOM     20  H4  WI4 d   1     -27.595 -15.714  35.638  0.00  0.00     0.087 H 
ENDBRANCH   8  10
ENDBRANCH   1   8
BRANCH   6  21
ATOM     21  NAP WI4 d   1     -24.968 -19.967  33.378  0.00  0.00    -0.165 N 
ATOM     22  CAQ WI4 d   1     -23.794 -20.254  32.813  0.00  0.00     0.002 A 
ATOM     23  CAR WI4 d   1     -23.892 -21.473  32.292  0.00  0.00    -0.066 A 
ATOM     24  H7  WI4 d   1     -22.917 -19.609  32.784  0.00  0.00     0.113 H 
ATOM     25  CAH WI4 d   1     -25.121 -21.933  32.526  0.00  0.00    -0.066 A 
ATOM     26  H8  WI4 d   1     -23.102 -22.005  31.764  0.00  0.00     0.085 H 
ATOM     27  CAG WI4 d   1     -25.790 -21.000  33.189  0.00  0.00     0.002 A 
ATOM     28  H9  WI4 d   1     -25.508 -22.905  32.225  0.00  0.00     0.085 H 
ATOM     29  H10 WI4 d   1     -26.825 -21.065  33.520  0.00  0.00     0.113 H 
ENDBRANCH   6  21
TORSDOF 3
