REMARK  1 active torsions:
REMARK  status: ('A' for Active; 'I' for Inactive)
REMARK       I    between atoms: NAE_9  and  CAF_10 
REMARK    1  A    between atoms: CAF_10  and  CAG_12 
ROOT
ATOM      1  CAO 36P d   1      -9.090  -1.795 -33.237  0.00  0.00    -0.011 A 
ATOM      2  CAS 36P d   1     -10.504  -1.823 -32.769  0.00  0.00    -0.055 A 
ATOM      3  CAN 36P d   1     -10.777  -3.120 -32.393  0.00  0.00    -0.008 A 
ATOM      4  CAM 36P d   1     -11.925  -3.569 -31.906  0.00  0.00    -0.071 A 
ATOM      5  CAL 36P d   1     -12.055  -4.887 -31.552  0.00  0.00    -0.082 A 
ATOM      6  CAB 36P d   1     -10.945  -5.707 -31.722  0.00  0.00    -0.081 A 
ATOM      7  CAC 36P d   1      -9.769  -5.195 -32.231  0.00  0.00    -0.056 A 
ATOM      8  CAD 36P d   1      -9.698  -3.910 -32.557  0.00  0.00     0.052 A 
ATOM      9  NAE 36P d   1      -8.666  -3.206 -33.047  0.00  0.00    -0.287 N 
ATOM     10  CAF 36P d   1      -7.426  -3.689 -33.287  0.00  0.00     0.281 C 
ATOM     11  OAA 36P d   1      -7.173  -4.877 -33.063  0.00  0.00    -0.265 OA
ATOM     12  H1  36P d   1      -8.514  -0.954 -33.621  0.00  0.00     0.112 H 
ATOM     13  H2  36P d   1     -11.191  -0.979 -32.731  0.00  0.00     0.087 H 
ATOM     14  H3  36P d   1     -12.763  -2.892 -31.787  0.00  0.00     0.084 H 
ATOM     15  H4  36P d   1     -12.986  -5.275 -31.155  0.00  0.00     0.083 H 
ATOM     16  H5  36P d   1     -11.004  -6.755 -31.453  0.00  0.00     0.083 H 
ATOM     17  H6  36P d   1      -8.907  -5.839 -32.364  0.00  0.00     0.087 H 
ENDROOT
BRANCH  10  18
ATOM     18  CAG 36P d   1      -6.455  -2.880 -33.789  0.00  0.00     0.133 A 
ATOM     19  NAH 36P d   1      -6.664  -1.583 -34.092  0.00  0.00    -0.235 NA
ATOM     20  CAI 36P d   1      -5.605  -0.936 -34.580  0.00  0.00     0.109 A 
ATOM     21  SAQ 36P d   1      -4.349  -1.941 -34.673  0.00  0.00    -0.079 SA
ATOM     22  CAJ 36P d   1      -5.602   0.343 -34.908  0.00  0.00     0.007 A 
ATOM     23  CAP 36P d   1      -5.190  -3.283 -34.067  0.00  0.00    -0.010 A 
ATOM     24  H7  36P d   1      -4.788  -4.285 -33.927  0.00  0.00     0.099 H 
ATOM     25  CAK 36P d   1      -6.720   1.082 -34.782  0.00  0.00    -0.064 A 
ATOM     26  CAT 36P d   1      -4.516   0.979 -35.360  0.00  0.00    -0.033 A 
ATOM     27  CAR 36P d   1      -6.575   2.364 -35.136  0.00  0.00    -0.044 A 
ATOM     28  H8  36P d   1      -7.662   0.671 -34.422  0.00  0.00     0.085 H 
ATOM     29  SAU 36P d   1      -5.011   2.582 -35.622  0.00  0.00    -0.113 SA
ATOM     30  H9  36P d   1      -7.350   3.128 -35.109  0.00  0.00     0.095 H 
ATOM     31  H10 36P d   1      -3.525   0.558 -35.525  0.00  0.00     0.096 H 
ENDBRANCH  10  18
TORSDOF 1
