REMARK  2 active torsions:
REMARK  status: ('A' for Active; 'I' for Inactive)
REMARK    1  A    between atoms: NAO_15  and  CAN_14 
REMARK    2  A    between atoms: NAO_15  and  CAP_16 
ROOT
ATOM      1  CAE J2T d   1      -4.174  -4.117 -34.907  0.00  0.00    -0.057 A 
ATOM      2  CAF J2T d   1      -4.013  -2.841 -35.439  0.00  0.00    -0.074 A 
ATOM      3  CAG J2T d   1      -5.028  -1.981 -35.432  0.00  0.00    -0.052 A 
ATOM      4  CAH J2T d   1      -5.093  -0.679 -35.902  0.00  0.00    -0.040 C 
ATOM      5  CAI J2T d   1      -6.279  -0.020 -35.190  0.00  0.00    -0.058 C 
ATOM      6  CAP J2T d   1      -5.407  -4.471 -34.379  0.00  0.00     0.034 A 
ATOM      7  CAQ J2T d   1      -6.427  -3.542 -34.406  0.00  0.00    -0.051 A 
ATOM      8  CAR J2T d   1      -6.223  -2.327 -34.927  0.00  0.00    -0.050 A 
ATOM      9  CAS J2T d   1      -7.115  -1.244 -35.049  0.00  0.00    -0.040 C 
ATOM     10  H3  J2T d   1      -3.350  -4.822 -34.905  0.00  0.00     0.086 H 
ATOM     11  H4  J2T d   1      -3.058  -2.547 -35.860  0.00  0.00     0.084 H 
ATOM     12  H5  J2T d   1      -5.253  -0.675 -36.990  0.00  0.00     0.040 H 
ATOM     13  H6  J2T d   1      -4.162  -0.143 -35.666  0.00  0.00     0.040 H 
ATOM     14  H7  J2T d   1      -6.764   0.751 -35.807  0.00  0.00     0.033 H 
ATOM     15  H8  J2T d   1      -5.998   0.411 -34.218  0.00  0.00     0.033 H 
ATOM     16  H10 J2T d   1      -7.400  -3.799 -34.002  0.00  0.00     0.087 H 
ATOM     17  H11 J2T d   1      -7.751  -1.374 -35.937  0.00  0.00     0.040 H 
ATOM     18  H12 J2T d   1      -7.748  -1.171 -34.152  0.00  0.00     0.040 H 
ENDROOT
BRANCH   6  19
ATOM     19  NAO J2T d   1      -5.592  -5.682 -33.862  0.00  0.00    -0.340 N 
ATOM     20  H9  J2T d   1      -4.808  -6.347 -33.794  0.00  0.00     0.167 HD
BRANCH  19  21
ATOM     21  CAN J2T d   1      -6.816  -6.026 -33.429  0.00  0.00     0.150 A 
ATOM     22  CAD J2T d   1      -7.001  -7.311 -32.933  0.00  0.00    -0.033 A 
ATOM     23  CAC J2T d   1      -8.256  -7.699 -32.474  0.00  0.00    -0.030 A 
ATOM     24  H2  J2T d   1      -6.171  -8.008 -32.904  0.00  0.00     0.089 H 
ATOM     25  CAB J2T d   1      -9.247  -6.826 -32.513  0.00  0.00     0.196 A 
ATOM     26  H1  J2T d   1      -8.418  -8.700 -32.091  0.00  0.00     0.089 H 
ATOM     27  NAA J2T d   1     -10.522  -6.886 -32.151  0.00  0.00    -0.107 NA
ATOM     28  NAL J2T d   1      -9.001  -5.612 -32.988  0.00  0.00    -0.108 N 
ATOM     29  NAJ J2T d   1     -11.018  -5.788 -32.400  0.00  0.00    -0.021 NA
ATOM     30  NAK J2T d   1     -10.095  -4.993 -32.920  0.00  0.00    -0.021 NA
ATOM     31  NAM J2T d   1      -7.865  -5.188 -33.429  0.00  0.00    -0.129 NA
ENDBRANCH  19  21
ENDBRANCH   6  19
TORSDOF 2
