REMARK  4 active torsions:
REMARK  status: ('A' for Active; 'I' for Inactive)
REMARK    1  A    between atoms: CAC_7  and  NAD_8 
REMARK       I    between atoms: NAD_8  and  CAE_9 
REMARK       I    between atoms: CAE_9  and  NAF_11 
REMARK    2  A    between atoms: NAF_11  and  NAG_12 
REMARK    3  A    between atoms: CAR_14  and  NAW_15 
REMARK    4  A    between atoms: CAI_17  and  CAJ_18 
ROOT
ATOM      1  NAG 34X d   1      -6.605  -3.318 -34.230  0.00  0.00    -0.090 N 
ATOM      2  CAH 34X d   1      -7.794  -2.815 -33.998  0.00  0.00     0.049 A 
ATOM      3  CAR 34X d   1      -6.562  -4.507 -33.621  0.00  0.00     0.719 A 
ATOM      4  NAS 34X d   1      -7.768  -4.766 -33.065  0.00  0.00    -0.061 NA
ATOM      5  CAI 34X d   1      -8.489  -3.663 -33.306  0.00  0.00     0.104 A 
ATOM      6  H7  34X d   1      -8.142  -1.839 -34.334  0.00  0.00     0.119 H 
ENDROOT
BRANCH   1   7
ATOM      7  NAF 34X d   1      -6.011  -2.539 -34.750  0.00  0.00    -0.231 N 
ATOM      8  CAE 34X d   1      -4.708  -2.435 -34.912  0.00  0.00     0.340 C 
ATOM      9  NAD 34X d   1      -4.315  -1.207 -35.326  0.00  0.00    -0.305 N 
ATOM     10  OAQ 34X d   1      -3.940  -3.399 -34.852  0.00  0.00    -0.245 OA
ATOM     11  H5  34X d   1      -3.370  -1.099 -35.634  0.00  0.00     0.171 HD
ATOM     12  H6  34X d   1      -6.548  -1.801 -35.159  0.00  0.00     0.193 HD
BRANCH   9  13
ATOM     13  CAC 34X d   1      -5.136  -0.090 -35.351  0.00  0.00     0.075 A 
ATOM     14  CAO 34X d   1      -4.521   1.056 -35.833  0.00  0.00     0.143 A 
ATOM     15  FAP 34X d   1      -3.436   0.965 -36.193  0.00  0.00    -0.204 F 
ATOM     16  CAN 34X d   1      -5.146   2.299 -35.913  0.00  0.00    -0.043 A 
ATOM     17  CAM 34X d   1      -6.439   2.436 -35.470  0.00  0.00    -0.080 A 
ATOM     18  H1  34X d   1      -4.616   3.151 -36.322  0.00  0.00     0.088 H 
ATOM     19  CAA 34X d   1      -7.092   1.324 -34.962  0.00  0.00    -0.081 A 
ATOM     20  H2  34X d   1      -6.940   3.396 -35.517  0.00  0.00     0.083 H 
ATOM     21  CAB 34X d   1      -6.451   0.102 -34.896  0.00  0.00    -0.054 A 
ATOM     22  H3  34X d   1      -8.114   1.414 -34.614  0.00  0.00     0.083 H 
ATOM     23  H4  34X d   1      -6.984  -0.743 -34.476  0.00  0.00     0.087 H 
ENDBRANCH   9  13
ENDBRANCH   1   7
BRANCH   3  24
ATOM     24  NAW 34X d   1      -5.505  -5.313 -33.622  0.00  0.00    -0.231 N 
ATOM     25  H8  34X d   1      -5.546  -6.217 -33.130  0.00  0.00     0.174 HD
ATOM     26  H9  34X d   1      -4.645  -5.034 -34.115  0.00  0.00     0.174 HD
ENDBRANCH   3  24
BRANCH   5  27
ATOM     27  CAJ 34X d   1      -9.739  -3.330 -33.050  0.00  0.00    -0.005 A 
ATOM     28  CAK 34X d   1     -10.153  -2.031 -33.369  0.00  0.00    -0.071 A 
ATOM     29  CAL 34X d   1     -11.456  -1.674 -33.157  0.00  0.00    -0.082 A 
ATOM     30  H10 34X d   1      -9.449  -1.316 -33.779  0.00  0.00     0.084 H 
ATOM     31  CAV 34X d   1     -12.332  -2.591 -32.633  0.00  0.00    -0.083 A 
ATOM     32  H11 34X d   1     -11.794  -0.674 -33.401  0.00  0.00     0.083 H 
ATOM     33  CAU 34X d   1     -11.924  -3.868 -32.326  0.00  0.00    -0.082 A 
ATOM     34  H12 34X d   1     -13.363  -2.304 -32.458  0.00  0.00     0.083 H 
ATOM     35  CAT 34X d   1     -10.621  -4.258 -32.544  0.00  0.00    -0.071 A 
ATOM     36  H13 34X d   1     -12.634  -4.573 -31.909  0.00  0.00     0.083 H 
ATOM     37  H14 34X d   1     -10.299  -5.269 -32.323  0.00  0.00     0.084 H 
ENDBRANCH   5  27
TORSDOF 4
