REMARK  5 active torsions:
REMARK  status: ('A' for Active; 'I' for Inactive)
REMARK    1  A    between atoms: CAC_6  and  NAD_7 
REMARK    2  A    between atoms: CAK_11  and  CAN_12 
REMARK    3  A    between atoms: CAV_17  and  OAU_18 
REMARK    4  A    between atoms: OAU_18  and  CAT_19 
REMARK    5  A    between atoms: CAT_19  and  CAS_20 
ROOT
ATOM      1  CAN 3X3 d   1       8.623 108.023  34.686  0.00  0.00     0.049 A 
ATOM      2  CAO 3X3 d   1       8.567 109.310  35.175  0.00  0.00    -0.066 A 
ATOM      3  CAP 3X3 d   1       7.368 109.796  35.675  0.00  0.00    -0.082 A 
ATOM      4  CAX 3X3 d   1       6.223 109.007  35.704  0.00  0.00    -0.080 A 
ATOM      5  CAW 3X3 d   1       6.277 107.727  35.225  0.00  0.00    -0.050 A 
ATOM      6  CAV 3X3 d   1       7.466 107.240  34.724  0.00  0.00     0.083 A 
ATOM      7  H6  3X3 d   1       9.451 109.937  35.169  0.00  0.00     0.085 H 
ATOM      8  H7  3X3 d   1       7.322 110.812  36.051  0.00  0.00     0.083 H 
ATOM      9  H8  3X3 d   1       5.296 109.403  36.103  0.00  0.00     0.083 H 
ATOM     10  H9  3X3 d   1       5.393 107.100  35.239  0.00  0.00     0.087 H 
ENDROOT
BRANCH   1  11
ATOM     11  CAK 3X3 d   1       9.796 107.584  34.219  0.00  0.00     0.207 A 
ATOM     12  NAJ 3X3 d   1      10.067 106.356  33.786  0.00  0.00    -0.125 NA
ATOM     13  NAD 3X3 d   1      11.291 106.351  33.436  0.00  0.00    -0.130 N 
ATOM     14  NAE 3X3 d   1      11.818 107.527  33.655  0.00  0.00    -0.041 NA
ATOM     15  NAF 3X3 d   1      10.911 108.304  34.132  0.00  0.00    -0.107 NA
BRANCH  13  16
ATOM     16  CAC 3X3 d   1      11.922 105.289  32.963  0.00  0.00     0.080 A 
ATOM     17  CAB 3X3 d   1      11.219 104.095  32.829  0.00  0.00    -0.053 A 
ATOM     18  CAA 3X3 d   1      11.884 102.979  32.361  0.00  0.00    -0.081 A 
ATOM     19  H1  3X3 d   1      10.168 104.042  33.088  0.00  0.00     0.087 H 
ATOM     20  CAG 3X3 d   1      13.238 103.064  32.032  0.00  0.00    -0.083 A 
ATOM     21  H2  3X3 d   1      11.356 102.039  32.249  0.00  0.00     0.083 H 
ATOM     22  CAH 3X3 d   1      13.938 104.263  32.171  0.00  0.00    -0.081 A 
ATOM     23  H3  3X3 d   1      13.754 102.185  31.663  0.00  0.00     0.083 H 
ATOM     24  CAI 3X3 d   1      13.272 105.381  32.640  0.00  0.00    -0.053 A 
ATOM     25  H4  3X3 d   1      14.990 104.318  31.915  0.00  0.00     0.083 H 
ATOM     26  H5  3X3 d   1      13.798 106.322  32.755  0.00  0.00     0.087 H 
ENDBRANCH  13  16
ENDBRANCH   1  11
BRANCH   6  27
ATOM     27  OAU 3X3 d   1       7.581 105.985  34.221  0.00  0.00    -0.344 OA
BRANCH  27  28
ATOM     28  CAT 3X3 d   1       6.563 105.032  34.497  0.00  0.00     0.070 C 
ATOM     29  H10 3X3 d   1       5.617 105.344  34.032  0.00  0.00     0.085 H 
ATOM     30  H11 3X3 d   1       6.422 104.933  35.584  0.00  0.00     0.085 H 
BRANCH  28  31
ATOM     31  CAS 3X3 d   1       7.016 103.727  33.916  0.00  0.00     0.076 A 
ATOM     32  OAR 3X3 d   1       6.214 102.706  33.526  0.00  0.00    -0.325 OA
ATOM     33  CAQ 3X3 d   1       7.022 101.747  33.093  0.00  0.00     0.019 A 
ATOM     34  CAL 3X3 d   1       8.275 102.195  33.214  0.00  0.00    -0.059 A 
ATOM     35  H12 3X3 d   1       6.720 100.774  32.709  0.00  0.00     0.123 H 
ATOM     36  CAM 3X3 d   1       8.262 103.420  33.730  0.00  0.00    -0.050 A 
ATOM     37  H14 3X3 d   1       9.170 101.641  32.933  0.00  0.00     0.086 H 
ATOM     38  H13 3X3 d   1       9.127 104.043  33.953  0.00  0.00     0.087 H 
ENDBRANCH  28  31
ENDBRANCH  27  28
ENDBRANCH   6  27
TORSDOF 5
