REMARK WARNING: 32 MAX_TORS EXCEEDED!!!
REMARK  92 active torsions:
REMARK  status: ('A' for Active; 'I' for Inactive)
REMARK    1  A    between atoms: CA_2  and  N_1 
REMARK    2  A    between atoms: C_3  and  CA_2 
REMARK    3  A    between atoms: CA_2  and  CB_5 
REMARK       I    between atoms: N_6  and  C_3 
REMARK    4  A    between atoms: CA_7  and  N_6 
REMARK    5  A    between atoms: C_8  and  CA_7 
REMARK    6  A    between atoms: CA_7  and  CB_10 
REMARK       I    between atoms: N_15  and  C_8 
REMARK    7  A    between atoms: CB_10  and  CG_11 
REMARK    8  A    between atoms: CG_11  and  CD_12 
REMARK    9  A    between atoms: CB_16  and  N_15 
REMARK   10  A    between atoms: CB_16  and  CG_17 
REMARK   11  A    between atoms: CA_22  and  CB_16 
REMARK   12  A    between atoms: CG_17  and  CD_18 
REMARK   13  A    between atoms: CD_18  and  CE_19 
REMARK   14  A    between atoms: C_23  and  CA_22 
REMARK       I    between atoms: N_25  and  C_23 
REMARK   15  A    between atoms: CA_26  and  N_25 
REMARK   16  A    between atoms: C_27  and  CA_26 
REMARK   17  A    between atoms: CA_26  and  CB_29 
REMARK       I    between atoms: N_33  and  C_27 
REMARK   18  A    between atoms: CB_29  and  CG1_30 
REMARK   19  A    between atoms: CB_29  and  CG2_31 
REMARK   20  A    between atoms: CG1_30  and  CD1_32 
REMARK   21  A    between atoms: CA_34  and  N_33 
REMARK   22  A    between atoms: C_35  and  CA_34 
REMARK       I    between atoms: N_37  and  C_35 
REMARK   23  A    between atoms: CA_38  and  N_37 
REMARK   24  A    between atoms: C_39  and  CA_38 
REMARK   25  A    between atoms: CA_38  and  CB_41 
REMARK       I    between atoms: N_42  and  C_39 
REMARK   26  A    between atoms: CB_43  and  N_42 
REMARK   27  A    between atoms: CB_43  and  CG_44 
REMARK   28  A    between atoms: CA_45  and  CB_43 
REMARK   29  A    between atoms: CG_44  and  CD_48 
REMARK   30  A    between atoms: C_46  and  CA_45 
REMARK       I    between atoms: N_52  and  C_46 
REMARK   31  A    between atoms: CD_48  and  CE_49 
REMARK       I    between atoms: CE_49  and  NF2_50 
REMARK   32  A    between atoms: CA_53  and  N_52 
REMARK   33  A    between atoms: C_54  and  CA_53 
REMARK   34  A    between atoms: CA_53  and  CB_56 
REMARK       I    between atoms: N_60  and  C_54 
REMARK   35  A    between atoms: CB_56  and  CG_57 
REMARK   36  A    between atoms: CG_57  and  CD1_58 
REMARK   37  A    between atoms: CG_57  and  CD2_59 
REMARK   38  A    between atoms: CA_61  and  N_60 
REMARK   39  A    between atoms: C_62  and  CA_61 
REMARK   40  A    between atoms: CA_61  and  CB_64 
REMARK       I    between atoms: N_71  and  C_62 
REMARK   41  A    between atoms: CB_64  and  CG_65 
REMARK   42  A    between atoms: CG_65  and  CD_66 
REMARK   43  A    between atoms: CD_66  and  NE_67 
REMARK       I    between atoms: NE_67  and  CZ_68 
REMARK       I    between atoms: CZ_68  and  NH1_69 
REMARK       I    between atoms: CZ_68  and  NH2_70 
REMARK   44  A    between atoms: CB_72  and  N_71 
REMARK   45  A    between atoms: CB_72  and  CG_73 
REMARK   46  A    between atoms: CA_82  and  CB_72 
REMARK   47  A    between atoms: CG_73  and  CD_74 
REMARK   48  A    between atoms: CD_74  and  CE_75 
REMARK   49  A    between atoms: CE_75  and  NZ_76 
REMARK       I    between atoms: NZ_76  and  CH_77 
REMARK       I    between atoms: CH_77  and  NH2_78 
REMARK   50  A    between atoms: C_80  and  CA_82 
REMARK       I    between atoms: N_83  and  C_80 
REMARK   51  A    between atoms: CA_84  and  N_83 
REMARK   52  A    between atoms: C_85  and  CA_84 
REMARK   53  A    between atoms: CA_84  and  CB_87 
REMARK       I    between atoms: N_91  and  C_85 
REMARK   54  A    between atoms: CB_87  and  CG_88 
REMARK   55  A    between atoms: CG_88  and  SD_89 
REMARK   56  A    between atoms: SD_89  and  CE_90 
REMARK   57  A    between atoms: CA_92  and  N_91 
REMARK   58  A    between atoms: C_93  and  CA_92 
REMARK   59  A    between atoms: CA_92  and  CB_95 
REMARK       I    between atoms: N_96  and  C_93 
REMARK   60  A    between atoms: CA_97  and  N_96 
REMARK   61  A    between atoms: C_98  and  CA_97 
REMARK   62  A    between atoms: CA_97  and  CB_100 
REMARK       I    between atoms: N_109  and  C_98 
REMARK   63  A    between atoms: CB_100  and  CG_101 
REMARK   64  A    between atoms: CG_107  and  CD_105 
REMARK   65  A    between atoms: CB_108  and  CG_107 
REMARK   66  A    between atoms: CB_108  and  N_109 
REMARK   67  A    between atoms: CA_110  and  CB_108 
REMARK   68  A    between atoms: C_111  and  CA_110 
REMARK       I    between atoms: N_113  and  C_111 
REMARK   69  A    between atoms: CA_114  and  N_113 
REMARK   70  A    between atoms: C_115  and  CA_114 
REMARK   71  A    between atoms: CA_114  and  CB_117 
REMARK       I    between atoms: N_121  and  C_115 
REMARK   72  A    between atoms: CB_117  and  CG_118 
REMARK   73  A    between atoms: CG_118  and  CD1_119 
REMARK   74  A    between atoms: CG_118  and  CD2_120 
REMARK   75  A    between atoms: CA_122  and  N_121 
REMARK   76  A    between atoms: C_123  and  CA_122 
REMARK   77  A    between atoms: CA_122  and  CB_125 
REMARK       I    between atoms: N_131  and  C_123 
REMARK   78  A    between atoms: CB_125  and  CG_126 
REMARK       I    between atoms: CG_126  and  ND2_128 
REMARK   79  A    between atoms: CB_130  and  CG_129 
REMARK   80  A    between atoms: CB_130  and  N_131 
REMARK   81  A    between atoms: CB_130  and  CA_132 
REMARK   82  A    between atoms: CA_132  and  C_133 
REMARK       I    between atoms: C_133  and  N_135 
REMARK   83  A    between atoms: N_135  and  CA_136 
REMARK   84  A    between atoms: CA_136  and  C_137 
REMARK   85  A    between atoms: CA_136  and  CB_139 
REMARK       I    between atoms: C_137  and  N_144 
REMARK   86  A    between atoms: CB_139  and  CG_140 
REMARK   87  A    between atoms: CG_140  and  CD_141 
REMARK       I    between atoms: CD_141  and  NE2_143 
REMARK   88  A    between atoms: N_144  and  CA_145 
REMARK   89  A    between atoms: CA_145  and  C_146 
REMARK   90  A    between atoms: CA_145  and  CB_148 
REMARK   91  A    between atoms: CB_148  and  CG_149 
REMARK   92  A    between atoms: CZ_154  and  OH_155 
ROOT
ATOM      1  CB  HR7 d   1      16.958 -14.874  20.025  0.00  0.00     0.020 C 
ATOM      2  H   HR7 d   1      17.672 -14.319  19.399  0.00  0.00     0.073 H 
ENDROOT
BRANCH   1   3
ATOM      3  N   HR7 d   1      15.587 -14.540  19.632  0.00  0.00    -0.354 N 
ATOM      4  C   ARG d   1      15.549 -13.714  18.591  0.00  0.00     0.240 C 
ATOM      5  O   ARG d   1      16.506 -13.506  17.840  0.00  0.00    -0.271 OA
ATOM      6  H   HR7 d   1      14.773 -14.893  20.094  0.00  0.00     0.162 HD
BRANCH   4   7
ATOM      7  CA  ARG d   1      14.234 -12.969  18.409  0.00  0.00     0.089 C 
ATOM      8  H   ARG d   1      14.196 -12.529  17.402  0.00  0.00     0.087 H 
BRANCH   7   9
ATOM      9  N   ARG d   1      13.132 -13.906  18.575  0.00  0.00    -0.346 N 
ATOM     10  C   LEU d   1      12.871 -14.854  17.676  0.00  0.00     0.241 C 
ATOM     11  O   LEU d   1      13.603 -15.075  16.695  0.00  0.00    -0.271 OA
ATOM     12  H   ARG d   1      12.554 -13.836  19.388  0.00  0.00     0.163 HD
BRANCH  10  13
ATOM     13  CA  LEU d   1      11.608 -15.688  17.917  0.00  0.00     0.089 C 
ATOM     14  H   LEU d   1      11.767 -16.658  17.424  0.00  0.00     0.087 H 
BRANCH  13  15
ATOM     15  N   LEU d   1      11.373 -15.964  19.337  0.00  0.00    -0.348 N 
ATOM     16  C   B3Q d   1      12.190 -16.781  20.004  0.00  0.00     0.220 C 
ATOM     17  O   B3Q d   1      13.200 -17.258  19.495  0.00  0.00    -0.274 OA
ATOM     18  H   LEU d   1      10.599 -15.539  19.807  0.00  0.00     0.163 HD
BRANCH  16  19
ATOM     19  CA  B3Q d   1      11.854 -17.106  21.458  0.00  0.00     0.028 C 
ATOM     20  H   B3Q d   1      10.762 -17.102  21.588  0.00  0.00     0.050 H 
ATOM     21  H   B3Q d   1      12.249 -18.102  21.708  0.00  0.00     0.050 H 
BRANCH  19  22
ATOM     22  CB  B3Q d   1      12.474 -16.071  22.387  0.00  0.00     0.020 C 
ATOM     23  H   B3Q d   1      13.435 -15.746  21.963  0.00  0.00     0.073 H 
BRANCH  22  24
ATOM     24  N   B3Q d   1      11.596 -14.912  22.494  0.00  0.00    -0.354 N 
ATOM     25  C   ALA d   1      12.435 -13.895  22.301  0.00  0.00     0.240 C 
ATOM     26  O   ALA d   1      13.620 -14.019  21.969  0.00  0.00    -0.271 OA
ATOM     27  H   B3Q d   1      10.612 -14.887  22.668  0.00  0.00     0.162 HD
BRANCH  25  28
ATOM     28  CA  ALA d   1      11.836 -12.531  22.566  0.00  0.00     0.086 C 
ATOM     29  H   ALA d   1      12.336 -11.783  21.933  0.00  0.00     0.086 H 
BRANCH  28  30
ATOM     30  N   ALA d   1      10.429 -12.603  22.213  0.00  0.00    -0.347 N 
ATOM     31  C   GLY d   1      10.041 -12.641  20.950  0.00  0.00     0.236 C 
ATOM     32  O   GLY d   1      10.847 -12.700  20.011  0.00  0.00    -0.272 OA
ATOM     33  H   ALA d   1       9.741 -12.624  22.939  0.00  0.00     0.163 HD
BRANCH  31  34
ATOM     34  CA  GLY d   1       8.532 -12.608  20.710  0.00  0.00     0.069 C 
ATOM     35  H   GLY d   1       8.154 -11.605  20.957  0.00  0.00     0.078 H 
ATOM     36  H   GLY d   1       8.335 -12.823  19.649  0.00  0.00     0.078 H 
BRANCH  34  37
ATOM     37  N   GLY d   1       7.838 -13.586  21.525  0.00  0.00    -0.351 N 
ATOM     38  C   ILE d   1       8.134 -14.875  21.416  0.00  0.00     0.241 C 
ATOM     39  O   ILE d   1       8.910 -15.293  20.561  0.00  0.00    -0.271 OA
ATOM     40  H   GLY d   1       7.135 -13.289  22.171  0.00  0.00     0.163 HD
BRANCH  38  41
ATOM     41  CA  ILE d   1       7.496 -15.831  22.431  0.00  0.00     0.092 C 
ATOM     42  H   ILE d   1       8.250 -16.607  22.628  0.00  0.00     0.088 H 
BRANCH  41  43
ATOM     43  N   ILE d   1       7.244 -15.177  23.705  0.00  0.00    -0.347 N 
ATOM     44  C   B3E d   1       8.269 -14.883  24.494  0.00  0.00     0.220 C 
ATOM     45  O   B3E d   1       9.431 -15.101  24.155  0.00  0.00    -0.274 OA
ATOM     46  H   ILE d   1       6.310 -14.952  23.983  0.00  0.00     0.163 HD
BRANCH  44  47
ATOM     47  CA  B3E d   1       7.951 -14.257  25.854  0.00  0.00     0.028 C 
ATOM     48  H   B3E d   1       6.991 -14.662  26.207  0.00  0.00     0.050 H 
ATOM     49  H   B3E d   1       8.748 -14.535  26.560  0.00  0.00     0.050 H 
BRANCH  47  50
ATOM     50  CB  B3E d   1       7.848 -12.726  25.816  0.00  0.00     0.021 C 
ATOM     51  H   B3E d   1       8.664 -12.342  25.186  0.00  0.00     0.073 H 
BRANCH  50  52
ATOM     52  N   B3E d   1       6.573 -12.284  25.260  0.00  0.00    -0.354 N 
ATOM     53  C   GLU d   1       6.880 -11.398  24.311  0.00  0.00     0.240 C 
ATOM     54  O   GLU d   1       7.941 -11.402  23.674  0.00  0.00    -0.271 OA
ATOM     55  H   B3E d   1       5.659 -12.583  25.534  0.00  0.00     0.162 HD
BRANCH  53  56
ATOM     56  CA  GLU d   1       5.780 -10.383  24.021  0.00  0.00     0.090 C 
ATOM     57  H   GLU d   1       5.889  -9.962  23.011  0.00  0.00     0.087 H 
BRANCH  56  58
ATOM     58  N   GLU d   1       4.564 -11.176  24.127  0.00  0.00    -0.346 N 
ATOM     59  C   ALA d   1       4.344 -12.179  23.280  0.00  0.00     0.248 C 
ATOM     60  O   ALA d   1       4.997 -12.323  22.242  0.00  0.00    -0.271 OA
ATOM     61  H   GLU d   1       3.892 -10.967  24.838  0.00  0.00     0.163 HD
BRANCH  59  62
ATOM     62  CA  ALA d   1       3.216 -13.152  23.642  0.00  0.00     0.172 C 
ATOM     63  H   ALA d   1       3.006 -13.771  22.757  0.00  0.00     0.098 H 
BRANCH  62  64
ATOM     64  N   ALA d   1       3.607 -14.043  24.735  0.00  0.00    -0.067 N 
ATOM     65  H   ALA d   1       2.845 -14.668  24.948  0.00  0.00     0.275 HD
ATOM     66  H   ALA d   1       3.830 -13.495  25.551  0.00  0.00     0.275 HD
ATOM     67  H   ALA d   1       4.415 -14.579  24.459  0.00  0.00     0.275 HD
ENDBRANCH  62  64
BRANCH  62  68
ATOM     68  CB  ALA d   1       1.949 -12.396  24.003  0.00  0.00    -0.042 C 
ATOM     69  H   ALA d   1       1.669 -11.732  23.172  0.00  0.00     0.030 H 
ATOM     70  H   ALA d   1       2.125 -11.796  24.908  0.00  0.00     0.030 H 
ATOM     71  H   ALA d   1       1.135 -13.112  24.190  0.00  0.00     0.030 H 
ENDBRANCH  62  68
ENDBRANCH  59  62
ENDBRANCH  56  58
BRANCH  56  72
ATOM     72  CB  GLU d   1       5.787  -9.249  25.048  0.00  0.00    -0.029 C 
ATOM     73  H   GLU d   1       6.673  -8.623  24.864  0.00  0.00     0.037 H 
ATOM     74  H   GLU d   1       5.855  -9.694  26.052  0.00  0.00     0.037 H 
BRANCH  72  75
ATOM     75  CG  GLU d   1       4.558  -8.358  25.005  0.00  0.00     0.018 C 
ATOM     76  H   GLU d   1       3.973  -8.608  24.108  0.00  0.00     0.049 H 
ATOM     77  H   GLU d   1       4.885  -7.309  24.949  0.00  0.00     0.049 H 
BRANCH  75  78
ATOM     78  CD  GLU d   1       3.673  -8.526  26.225  0.00  0.00     0.172 C 
ATOM     79  OE1 GLU d   1       4.126  -9.150  27.208  0.00  0.00    -0.648 OA
ATOM     80  OE2 GLU d   1       2.525  -8.034  26.201  0.00  0.00    -0.648 OA
ENDBRANCH  75  78
ENDBRANCH  72  75
ENDBRANCH  56  72
ENDBRANCH  53  56
ENDBRANCH  50  52
BRANCH  50  81
ATOM     81  CG  B3E d   1       7.979 -12.128  27.219  0.00  0.00    -0.037 C 
ATOM     82  H   B3E d   1       7.585 -12.860  27.939  0.00  0.00     0.036 H 
ATOM     83  H   B3E d   1       7.371 -11.212  27.257  0.00  0.00     0.036 H 
BRANCH  81  84
ATOM     84  CD  B3E d   1       9.395 -11.770  27.639  0.00  0.00     0.018 C 
ATOM     85  H   B3E d   1      10.070 -12.552  27.261  0.00  0.00     0.049 H 
ATOM     86  H   B3E d   1       9.430 -11.755  28.738  0.00  0.00     0.049 H 
BRANCH  84  87
ATOM     87  CE  B3E d   1       9.901 -10.427  27.134  0.00  0.00     0.172 C 
ATOM     88  OF2 B3E d   1      11.137 -10.292  27.042  0.00  0.00    -0.648 OA
ATOM     89  OF1 B3E d   1       9.101  -9.511  26.833  0.00  0.00    -0.648 OA
ENDBRANCH  84  87
ENDBRANCH  81  84
ENDBRANCH  50  81
ENDBRANCH  47  50
ENDBRANCH  44  47
ENDBRANCH  41  43
BRANCH  41  90
ATOM     90  CB  ILE d   1       6.249 -16.581  21.895  0.00  0.00    -0.030 C 
ATOM     91  H   ILE d   1       6.607 -17.515  21.437  0.00  0.00     0.043 H 
BRANCH  90  92
ATOM     92  CG1 ILE d   1       5.547 -15.801  20.798  0.00  0.00    -0.063 C 
ATOM     93  H   ILE d   1       5.829 -14.741  20.886  0.00  0.00     0.033 H 
ATOM     94  H   ILE d   1       4.460 -15.904  20.935  0.00  0.00     0.033 H 
BRANCH  92  95
ATOM     95  CD1 ILE d   1       5.907 -16.283  19.404  0.00  0.00    -0.076 C 
ATOM     96  H   ILE d   1       5.369 -15.681  18.657  0.00  0.00     0.027 H 
ATOM     97  H   ILE d   1       5.622 -17.340  19.297  0.00  0.00     0.027 H 
ATOM     98  H   ILE d   1       6.991 -16.177  19.248  0.00  0.00     0.027 H 
ENDBRANCH  92  95
ENDBRANCH  90  92
BRANCH  90  99
ATOM     99  CG2 ILE d   1       5.307 -16.983  23.045  0.00  0.00    -0.071 C 
ATOM    100  H   ILE d   1       5.873 -17.543  23.804  0.00  0.00     0.028 H 
ATOM    101  H   ILE d   1       4.497 -17.615  22.652  0.00  0.00     0.028 H 
ATOM    102  H   ILE d   1       4.878 -16.078  23.501  0.00  0.00     0.028 H 
ENDBRANCH  90  99
ENDBRANCH  41  90
ENDBRANCH  38  41
ENDBRANCH  34  37
ENDBRANCH  31  34
ENDBRANCH  28  30
BRANCH  28 103
ATOM    103  CB  ALA d   1      12.006 -12.128  24.031  0.00  0.00    -0.049 C 
ATOM    104  H   ALA d   1      13.077 -12.080  24.276  0.00  0.00     0.030 H 
ATOM    105  H   ALA d   1      11.516 -12.873  24.675  0.00  0.00     0.030 H 
ATOM    106  H   ALA d   1      11.547 -11.142  24.196  0.00  0.00     0.030 H 
ENDBRANCH  28 103
ENDBRANCH  25  28
ENDBRANCH  22  24
BRANCH  22 107
ATOM    107  CG  B3Q d   1      12.732 -16.685  23.767  0.00  0.00    -0.038 C 
ATOM    108  H   B3Q d   1      12.900 -17.765  23.639  0.00  0.00     0.036 H 
ATOM    109  H   B3Q d   1      11.839 -16.524  24.390  0.00  0.00     0.036 H 
BRANCH 107 110
ATOM    110  CD  B3Q d   1      13.936 -16.096  24.494  0.00  0.00     0.011 C 
ATOM    111  H   B3Q d   1      13.661 -15.939  25.547  0.00  0.00     0.047 H 
ATOM    112  H   B3Q d   1      14.180 -15.129  24.031  0.00  0.00     0.047 H 
BRANCH 110 113
ATOM    113  CE  B3Q d   1      15.179 -16.975  24.450  0.00  0.00     0.215 C 
ATOM    114  NF2 B3Q d   1      15.013 -18.243  24.069  0.00  0.00    -0.370 N 
ATOM    115  H   B3Q d   1      15.800 -18.859  24.024  0.00  0.00     0.159 HD
ATOM    116  H   B3Q d   1      14.102 -18.578  23.828  0.00  0.00     0.159 HD
ATOM    117  OF1 B3Q d   1      16.284 -16.520  24.756  0.00  0.00    -0.274 OA
ENDBRANCH 110 113
ENDBRANCH 107 110
ENDBRANCH  22 107
ENDBRANCH  19  22
ENDBRANCH  16  19
ENDBRANCH  13  15
BRANCH  13 118
ATOM    118  CB  LEU d   1      10.378 -15.046  17.268  0.00  0.00    -0.035 C 
ATOM    119  H   LEU d   1      10.665 -14.682  16.270  0.00  0.00     0.037 H 
ATOM    120  H   LEU d   1      10.063 -14.196  17.892  0.00  0.00     0.037 H 
BRANCH 118 121
ATOM    121  CG  LEU d   1       9.182 -15.994  17.108  0.00  0.00    -0.059 C 
ATOM    122  H   LEU d   1       8.981 -16.474  18.077  0.00  0.00     0.038 H 
BRANCH 121 123
ATOM    123  CD1 LEU d   1       7.950 -15.217  16.685  0.00  0.00    -0.073 C 
ATOM    124  H   LEU d   1       7.101 -15.908  16.574  0.00  0.00     0.028 H 
ATOM    125  H   LEU d   1       8.144 -14.717  15.725  0.00  0.00     0.028 H 
ATOM    126  H   LEU d   1       7.712 -14.463  17.450  0.00  0.00     0.028 H 
ENDBRANCH 121 123
BRANCH 121 127
ATOM    127  CD2 LEU d   1       9.500 -17.082  16.080  0.00  0.00    -0.073 C 
ATOM    128  H   LEU d   1      10.395 -17.637  16.399  0.00  0.00     0.028 H 
ATOM    129  H   LEU d   1       9.686 -16.618  15.100  0.00  0.00     0.028 H 
ATOM    130  H   LEU d   1       8.648 -17.773  16.002  0.00  0.00     0.028 H 
ENDBRANCH 121 127
ENDBRANCH 118 121
ENDBRANCH  13 118
ENDBRANCH  10  13
ENDBRANCH   7   9
BRANCH   7 131
ATOM    131  CB  ARG d   1      14.124 -11.856  19.457  0.00  0.00    -0.036 C 
ATOM    132  H   ARG d   1      14.307 -12.296  20.448  0.00  0.00     0.036 H 
ATOM    133  H   ARG d   1      13.103 -11.447  19.420  0.00  0.00     0.036 H 
BRANCH 131 134
ATOM    134  CG  ARG d   1      15.092 -10.724  19.259  0.00  0.00    -0.048 C 
ATOM    135  H   ARG d   1      15.302 -10.601  18.186  0.00  0.00     0.035 H 
ATOM    136  H   ARG d   1      16.028 -10.941  19.794  0.00  0.00     0.035 H 
BRANCH 134 137
ATOM    137  CD  ARG d   1      14.476  -9.448  19.807  0.00  0.00     0.009 C 
ATOM    138  H   ARG d   1      13.401  -9.434  19.576  0.00  0.00     0.064 H 
ATOM    139  H   ARG d   1      14.962  -8.579  19.340  0.00  0.00     0.064 H 
BRANCH 137 140
ATOM    140  NE  ARG d   1      14.657  -9.385  21.232  0.00  0.00    -0.227 N 
ATOM    141  CZ  ARG d   1      13.940  -8.643  22.066  0.00  0.00     0.665 C 
ATOM    142  NH1 ARG d   1      12.931  -7.874  21.647  0.00  0.00    -0.235 N 
ATOM    143  NH2 ARG d   1      14.244  -8.684  23.348  0.00  0.00    -0.235 N 
ATOM    144  H   ARG d   1      12.397  -7.311  22.324  0.00  0.00     0.174 HD
ATOM    145  H   ARG d   1      12.688  -7.844  20.647  0.00  0.00     0.174 HD
ATOM    146  H   ARG d   1      15.021  -9.276  23.674  0.00  0.00     0.174 HD
ATOM    147  H   ARG d   1      13.704  -8.124  24.023  0.00  0.00     0.174 HD
ATOM    148  H   ARG d   1      15.405  -9.964  21.639  0.00  0.00     0.177 HD
ENDBRANCH 137 140
ENDBRANCH 134 137
ENDBRANCH 131 134
ENDBRANCH   7 131
ENDBRANCH   4   7
ENDBRANCH   1   3
BRANCH   1 149
ATOM    149  CG  HR7 d   1      17.191 -14.570  21.503  0.00  0.00    -0.044 C 
ATOM    150  H   HR7 d   1      18.084 -15.117  21.840  0.00  0.00     0.036 H 
ATOM    151  H   HR7 d   1      16.316 -14.908  22.076  0.00  0.00     0.036 H 
BRANCH 149 152
ATOM    152  CD  HR7 d   1      17.400 -13.084  21.759  0.00  0.00    -0.048 C 
ATOM    153  H   HR7 d   1      16.430 -12.607  21.962  0.00  0.00     0.035 H 
ATOM    154  H   HR7 d   1      17.858 -12.621  20.873  0.00  0.00     0.035 H 
BRANCH 152 155
ATOM    155  CE  HR7 d   1      18.320 -12.897  22.964  0.00  0.00     0.009 C 
ATOM    156  H   HR7 d   1      17.787 -12.308  23.725  0.00  0.00     0.064 H 
ATOM    157  H   HR7 d   1      19.217 -12.350  22.639  0.00  0.00     0.064 H 
BRANCH 155 158
ATOM    158  NZ  HR7 d   1      18.740 -14.168  23.566  0.00  0.00    -0.227 N 
ATOM    159  CH  HR7 d   1      19.926 -14.770  23.426  0.00  0.00     0.665 C 
ATOM    160  NH2 HR7 d   1      20.869 -14.226  22.667  0.00  0.00    -0.235 N 
ATOM    161  NH1 HR7 d   1      20.163 -15.925  24.043  0.00  0.00    -0.235 N 
ATOM    162  H   HR7 d   1      21.780 -14.694  22.563  0.00  0.00     0.174 HD
ATOM    163  H   HR7 d   1      20.689 -13.335  22.182  0.00  0.00     0.174 HD
ATOM    164  H   HR7 d   1      19.435 -16.352  24.633  0.00  0.00     0.174 HD
ATOM    165  H   HR7 d   1      21.074 -16.392  23.930  0.00  0.00     0.174 HD
ATOM    166  H   HR7 d   1      18.048 -14.647  24.159  0.00  0.00     0.177 HD
ENDBRANCH 155 158
ENDBRANCH 152 155
ENDBRANCH 149 152
ENDBRANCH   1 149
BRANCH   1 167
ATOM    167  CA  HR7 d   1      17.160 -16.378  19.882  0.00  0.00     0.028 C 
ATOM    168  H   HR7 d   1      16.323 -16.896  20.373  0.00  0.00     0.050 H 
ATOM    169  H   HR7 d   1      18.104 -16.657  20.373  0.00  0.00     0.050 H 
BRANCH 167 170
ATOM    170  C   HR7 d   1      17.219 -16.816  18.416  0.00  0.00     0.220 C 
ATOM    171  O   HR7 d   1      18.251 -16.698  17.756  0.00  0.00    -0.274 OA
ATOM    172  N   MET d   1      16.120 -17.325  17.882  0.00  0.00    -0.348 N 
ATOM    173  H   MET d   1      15.236 -17.249  18.343  0.00  0.00     0.163 HD
BRANCH 172 174
ATOM    174  CA  MET d   1      16.247 -18.002  16.594  0.00  0.00     0.090 C 
ATOM    175  H   MET d   1      17.115 -18.670  16.694  0.00  0.00     0.087 H 
BRANCH 174 176
ATOM    176  C   MET d   1      16.568 -17.084  15.391  0.00  0.00     0.241 C 
ATOM    177  O   MET d   1      17.274 -17.510  14.466  0.00  0.00    -0.271 OA
ATOM    178  N   ALA d   1      16.092 -15.837  15.402  0.00  0.00    -0.346 N 
ATOM    179  H   ALA d   1      15.582 -15.511  16.198  0.00  0.00     0.163 HD
BRANCH 178 180
ATOM    180  CA  ALA d   1      16.306 -14.943  14.267  0.00  0.00     0.086 C 
ATOM    181  H   ALA d   1      16.147 -15.511  13.338  0.00  0.00     0.086 H 
BRANCH 180 182
ATOM    182  C   ALA d   1      17.720 -14.386  14.267  0.00  0.00     0.240 C 
ATOM    183  O   ALA d   1      18.362 -14.248  13.209  0.00  0.00    -0.271 OA
ATOM    184  N   ASP d   1      18.206 -14.057  15.459  0.00  0.00    -0.346 N 
ATOM    185  H   ASP d   1      17.694 -14.290  16.286  0.00  0.00     0.163 HD
BRANCH 184 186
ATOM    186  CA  ASP d   1      19.481 -13.359  15.569  0.00  0.00     0.098 C 
ATOM    187  H   ASP d   1      19.600 -12.644  14.741  0.00  0.00     0.088 H 
BRANCH 186 188
ATOM    188  C   ASP d   1      20.518 -14.457  15.470  0.00  0.00     0.241 C 
ATOM    189  O   ASP d   1      21.687 -14.220  15.162  0.00  0.00    -0.271 OA
ATOM    190  N   B3D d   1      20.049 -15.655  15.800  0.00  0.00    -0.354 N 
ATOM    191  H   B3D d   1      19.099 -15.924  15.959  0.00  0.00     0.162 HD
BRANCH 190 192
ATOM    192  CB  B3D d   1      21.249 -16.490  15.877  0.00  0.00     0.029 C 
ATOM    193  H   B3D d   1      22.092 -15.945  15.427  0.00  0.00     0.074 H 
BRANCH 192 194
ATOM    194  CG  B3D d   1      21.582 -16.874  17.316  0.00  0.00     0.035 C 
ATOM    195  H   B3D d   1      21.949 -15.992  17.861  0.00  0.00     0.052 H 
ATOM    196  H   B3D d   1      20.682 -17.264  17.814  0.00  0.00     0.052 H 
BRANCH 194 197
ATOM    197  CD  B3D d   1      22.658 -17.944  17.289  0.00  0.00     0.174 C 
ATOM    198  OE1 B3D d   1      23.691 -17.680  16.636  0.00  0.00    -0.648 OA
ATOM    199  OE2 B3D d   1      22.446 -19.010  17.904  0.00  0.00    -0.648 OA
ENDBRANCH 194 197
ENDBRANCH 192 194
BRANCH 192 200
ATOM    200  CA  B3D d   1      21.033 -17.814  15.160  0.00  0.00     0.028 C 
ATOM    201  H   B3D d   1      20.073 -18.244  15.481  0.00  0.00     0.050 H 
ATOM    202  H   B3D d   1      21.849 -18.502  15.424  0.00  0.00     0.050 H 
BRANCH 200 203
ATOM    203  C   B3D d   1      21.012 -17.627  13.666  0.00  0.00     0.220 C 
ATOM    204  O   B3D d   1      22.056 -17.716  13.026  0.00  0.00    -0.274 OA
ATOM    205  N   LEU d   1      19.841 -17.348  13.100  0.00  0.00    -0.348 N 
ATOM    206  H   LEU d   1      19.028 -17.228  13.670  0.00  0.00     0.163 HD
BRANCH 205 207
ATOM    207  CA  LEU d   1      19.739 -17.216  11.643  0.00  0.00     0.089 C 
ATOM    208  H   LEU d   1      20.167 -18.133  11.212  0.00  0.00     0.087 H 
BRANCH 207 209
ATOM    209  C   LEU d   1      20.559 -16.034  11.085  0.00  0.00     0.241 C 
ATOM    210  O   LEU d   1      21.298 -16.193  10.116  0.00  0.00    -0.271 OA
ATOM    211  N   ASN d   1      20.445 -14.860  11.688  0.00  0.00    -0.346 N 
ATOM    212  H   ASN d   1      19.841 -14.756  12.478  0.00  0.00     0.163 HD
BRANCH 211 213
ATOM    213  CA  ASN d   1      21.210 -13.716  11.189  0.00  0.00     0.097 C 
ATOM    214  H   ASN d   1      21.002 -13.625  10.113  0.00  0.00     0.088 H 
BRANCH 213 215
ATOM    215  C   ASN d   1      22.715 -13.940  11.343  0.00  0.00     0.241 C 
ATOM    216  O   ASN d   1      23.511 -13.474  10.524  0.00  0.00    -0.271 OA
ATOM    217  N   B3A d   1      23.077 -14.653  12.411  0.00  0.00    -0.355 N 
ATOM    218  H   B3A d   1      22.488 -15.130  13.063  0.00  0.00     0.162 HD
BRANCH 217 219
ATOM    219  CB  B3A d   1      24.547 -14.572  12.403  0.00  0.00     0.017 C 
ATOM    220  H   B3A d   1      24.868 -14.173  11.429  0.00  0.00     0.072 H 
BRANCH 219 221
ATOM    221  CG  B3A d   1      25.004 -13.633  13.506  0.00  0.00    -0.057 C 
ATOM    222  H   B3A d   1      26.102 -13.570  13.503  0.00  0.00     0.030 H 
ATOM    223  H   B3A d   1      24.662 -14.016  14.479  0.00  0.00     0.030 H 
ATOM    224  H   B3A d   1      24.579 -12.633  13.335  0.00  0.00     0.030 H 
ENDBRANCH 219 221
BRANCH 219 225
ATOM    225  CA  B3A d   1      25.216 -15.923  12.619  0.00  0.00     0.028 C 
ATOM    226  H   B3A d   1      24.629 -16.493  13.354  0.00  0.00     0.050 H 
ATOM    227  H   B3A d   1      26.230 -15.755  13.011  0.00  0.00     0.050 H 
BRANCH 225 228
ATOM    228  C   B3A d   1      25.317 -16.736  11.343  0.00  0.00     0.220 C 
ATOM    229  O   B3A d   1      26.304 -16.618  10.625  0.00  0.00    -0.274 OA
ATOM    230  N   GLN d   1      24.306 -17.558  11.061  0.00  0.00    -0.348 N 
ATOM    231  H   GLN d   1      23.542 -17.621  11.703  0.00  0.00     0.163 HD
BRANCH 230 232
ATOM    232  CA  GLN d   1      24.276 -18.373   9.842  0.00  0.00     0.089 C 
ATOM    233  H   GLN d   1      25.034 -19.161   9.960  0.00  0.00     0.087 H 
BRANCH 232 234
ATOM    234  C   GLN d   1      24.624 -17.585   8.567  0.00  0.00     0.241 C 
ATOM    235  O   GLN d   1      25.343 -18.095   7.712  0.00  0.00    -0.271 OA
ATOM    236  N   TYR d   1      24.107 -16.358   8.447  0.00  0.00    -0.344 N 
ATOM    237  H   TYR d   1      23.479 -16.032   9.154  0.00  0.00     0.163 HD
BRANCH 236 238
ATOM    238  CA  TYR d   1      24.422 -15.466   7.319  0.00  0.00     0.100 C 
ATOM    239  H   TYR d   1      25.086 -16.013   6.633  0.00  0.00     0.090 H 
BRANCH 238 240
ATOM    240  C   TYR d   1      25.149 -14.196   7.780  0.00  0.00     0.197 C 
ATOM    241  O   TYR d   1      26.176 -14.265   8.465  0.00  0.00    -0.646 OA
ATOM    242  O1  TYR d   1      24.693 -13.067   7.456  0.00  0.00    -0.646 OA
ENDBRANCH 238 240
BRANCH 238 243
ATOM    243  CB  TYR d   1      23.152 -15.069   6.550  0.00  0.00    -0.013 C 
ATOM    244  H   TYR d   1      23.422 -14.293   5.819  0.00  0.00     0.043 H 
ATOM    245  H   TYR d   1      22.428 -14.659   7.270  0.00  0.00     0.043 H 
BRANCH 243 246
ATOM    246  CG  TYR d   1      22.485 -16.210   5.805  0.00  0.00    -0.056 A 
ATOM    247  CD1 TYR d   1      21.518 -16.995   6.423  0.00  0.00    -0.074 A 
ATOM    248  CE1 TYR d   1      20.904 -18.051   5.757  0.00  0.00    -0.051 A 
ATOM    249  H   TYR d   1      21.236 -16.779   7.447  0.00  0.00     0.084 H 
ATOM    250  CZ  TYR d   1      21.242 -18.325   4.452  0.00  0.00     0.065 A 
ATOM    251  H   TYR d   1      20.162 -18.656   6.265  0.00  0.00     0.087 H 
ATOM    252  CE2 TYR d   1      22.203 -17.562   3.809  0.00  0.00    -0.051 A 
ATOM    253  CD2 TYR d   1      22.819 -16.505   4.487  0.00  0.00    -0.074 A 
ATOM    254  H   TYR d   1      22.477 -17.783   2.784  0.00  0.00     0.087 H 
ATOM    255  H   TYR d   1      23.567 -15.907   3.978  0.00  0.00     0.084 H 
BRANCH 250 256
ATOM    256  OH  TYR d   1      20.616 -19.371   3.812  0.00  0.00    -0.361 OA
ATOM    257  H   TYR d   1      19.993 -19.775   4.404  0.00  0.00     0.217 HD
ENDBRANCH 250 256
ENDBRANCH 243 246
ENDBRANCH 238 243
ENDBRANCH 236 238
ENDBRANCH 232 234
BRANCH 232 258
ATOM    258  CB  GLN d   1      22.912 -19.052   9.669  0.00  0.00    -0.030 C 
ATOM    259  H   GLN d   1      22.748 -19.214   8.593  0.00  0.00     0.037 H 
ATOM    260  H   GLN d   1      22.142 -18.370  10.059  0.00  0.00     0.037 H 
BRANCH 258 261
ATOM    261  CG  GLN d   1      22.752 -20.387  10.372  0.00  0.00     0.011 C 
ATOM    262  H   GLN d   1      21.864 -20.341  11.020  0.00  0.00     0.047 H 
ATOM    263  H   GLN d   1      23.645 -20.572  10.987  0.00  0.00     0.047 H 
BRANCH 261 264
ATOM    264  CD  GLN d   1      22.585 -21.537   9.397  0.00  0.00     0.215 C 
ATOM    265  OE1 GLN d   1      22.798 -21.382   8.195  0.00  0.00    -0.274 OA
ATOM    266  NE2 GLN d   1      22.198 -22.698   9.912  0.00  0.00    -0.370 N 
ATOM    267  H   GLN d   1      22.071 -23.492   9.317  0.00  0.00     0.159 HD
ATOM    268  H   GLN d   1      22.033 -22.779  10.895  0.00  0.00     0.159 HD
ENDBRANCH 261 264
ENDBRANCH 258 261
ENDBRANCH 232 258
ENDBRANCH 230 232
ENDBRANCH 225 228
ENDBRANCH 219 225
ENDBRANCH 217 219
ENDBRANCH 213 215
BRANCH 213 269
ATOM    269  CB  ASN d   1      20.759 -12.426  11.846  0.00  0.00     0.036 C 
ATOM    270  H   ASN d   1      21.285 -12.315  12.806  0.00  0.00     0.051 H 
ATOM    271  H   ASN d   1      19.675 -12.481  12.026  0.00  0.00     0.051 H 
BRANCH 269 272
ATOM    272  CG  ASN d   1      21.048 -11.217  10.991  0.00  0.00     0.217 C 
ATOM    273  OD1 ASN d   1      20.397 -10.999   9.965  0.00  0.00    -0.274 OA
ATOM    274  ND2 ASN d   1      22.010 -10.414  11.414  0.00  0.00    -0.370 N 
ATOM    275  H   ASN d   1      22.246  -9.597  10.889  0.00  0.00     0.159 HD
ATOM    276  H   ASN d   1      22.501 -10.624  12.259  0.00  0.00     0.159 HD
ENDBRANCH 269 272
ENDBRANCH 213 269
ENDBRANCH 211 213
ENDBRANCH 207 209
BRANCH 207 277
ATOM    277  CB  LEU d   1      18.281 -17.139  11.180  0.00  0.00    -0.035 C 
ATOM    278  H   LEU d   1      17.813 -16.257  11.642  0.00  0.00     0.037 H 
ATOM    279  H   LEU d   1      17.759 -18.048  11.513  0.00  0.00     0.037 H 
BRANCH 277 280
ATOM    280  CG  LEU d   1      18.140 -17.025   9.657  0.00  0.00    -0.059 C 
ATOM    281  H   LEU d   1      18.731 -16.160   9.323  0.00  0.00     0.038 H 
BRANCH 280 282
ATOM    282  CD1 LEU d   1      18.699 -18.275   9.000  0.00  0.00    -0.073 C 
ATOM    283  H   LEU d   1      18.597 -18.192   7.908  0.00  0.00     0.028 H 
ATOM    284  H   LEU d   1      18.143 -19.155   9.354  0.00  0.00     0.028 H 
ATOM    285  H   LEU d   1      19.762 -18.383   9.262  0.00  0.00     0.028 H 
ENDBRANCH 280 282
BRANCH 280 286
ATOM    286  CD2 LEU d   1      16.711 -16.808   9.223  0.00  0.00    -0.073 C 
ATOM    287  H   LEU d   1      16.316 -15.901   9.704  0.00  0.00     0.028 H 
ATOM    288  H   LEU d   1      16.102 -17.675   9.519  0.00  0.00     0.028 H 
ATOM    289  H   LEU d   1      16.674 -16.689   8.130  0.00  0.00     0.028 H 
ENDBRANCH 280 286
ENDBRANCH 277 280
ENDBRANCH 207 277
ENDBRANCH 205 207
ENDBRANCH 200 203
ENDBRANCH 192 200
ENDBRANCH 190 192
ENDBRANCH 186 188
BRANCH 186 290
ATOM    290  CB  ASP d   1      19.589 -12.610  16.890  0.00  0.00     0.043 C 
ATOM    291  H   ASP d   1      20.653 -12.436  17.110  0.00  0.00     0.052 H 
ATOM    292  H   ASP d   1      19.147 -13.231  17.683  0.00  0.00     0.052 H 
BRANCH 290 293
ATOM    293  CG  ASP d   1      18.867 -11.259  16.866  0.00  0.00     0.175 C 
ATOM    294  OD1 ASP d   1      18.426 -10.805  15.788  0.00  0.00    -0.648 OA
ATOM    295  OD2 ASP d   1      18.757 -10.637  17.939  0.00  0.00    -0.648 OA
ENDBRANCH 290 293
ENDBRANCH 186 290
ENDBRANCH 184 186
ENDBRANCH 180 182
BRANCH 180 296
ATOM    296  CB  ALA d   1      15.311 -13.773  14.316  0.00  0.00    -0.049 C 
ATOM    297  H   ALA d   1      15.483 -13.109  13.456  0.00  0.00     0.030 H 
ATOM    298  H   ALA d   1      15.454 -13.209  15.250  0.00  0.00     0.030 H 
ATOM    299  H   ALA d   1      14.283 -14.164  14.277  0.00  0.00     0.030 H 
ENDBRANCH 180 296
ENDBRANCH 178 180
ENDBRANCH 174 176
BRANCH 174 300
ATOM    300  CB  MET d   1      15.044 -18.899  16.326  0.00  0.00    -0.030 C 
ATOM    301  H   MET d   1      14.763 -19.393  17.268  0.00  0.00     0.037 H 
ATOM    302  H   MET d   1      15.335 -19.659  15.586  0.00  0.00     0.037 H 
BRANCH 300 303
ATOM    303  CG  MET d   1      13.856 -18.168  15.806  0.00  0.00    -0.021 C 
ATOM    304  H   MET d   1      14.159 -17.561  14.940  0.00  0.00     0.049 H 
ATOM    305  H   MET d   1      13.464 -17.511  16.596  0.00  0.00     0.049 H 
BRANCH 303 306
ATOM    306  SD  MET d   1      12.565 -19.310  15.299  0.00  0.00    -0.173 SA
BRANCH 306 307
ATOM    307  CE  MET d   1      12.164 -20.013  16.877  0.00  0.00    -0.035 C 
ATOM    308  H   MET d   1      11.365 -20.759  16.754  0.00  0.00     0.041 H 
ATOM    309  H   MET d   1      11.823 -19.218  17.556  0.00  0.00     0.041 H 
ATOM    310  H   MET d   1      13.056 -20.498  17.299  0.00  0.00     0.041 H 
ENDBRANCH 306 307
ENDBRANCH 303 306
ENDBRANCH 300 303
ENDBRANCH 174 300
ENDBRANCH 172 174
ENDBRANCH 167 170
ENDBRANCH   1 167
TORSDOF 92
