REMARK WARNING: 32 MAX_TORS EXCEEDED!!!
REMARK  87 active torsions:
REMARK  status: ('A' for Active; 'I' for Inactive)
REMARK    1  A    between atoms: CA_2  and  N_1 
REMARK    2  A    between atoms: C_3  and  CA_2 
REMARK    3  A    between atoms: CA_2  and  CB_5 
REMARK       I    between atoms: N_6  and  C_3 
REMARK    4  A    between atoms: CA_7  and  N_6 
REMARK    5  A    between atoms: C_8  and  CA_7 
REMARK    6  A    between atoms: CA_7  and  CB_10 
REMARK       I    between atoms: N_14  and  C_8 
REMARK    7  A    between atoms: CB_10  and  CG1_11 
REMARK    8  A    between atoms: CB_10  and  CG2_12 
REMARK    9  A    between atoms: CG1_11  and  CD1_13 
REMARK   10  A    between atoms: CA_15  and  N_14 
REMARK   11  A    between atoms: CA_15  and  CB_16 
REMARK   12  A    between atoms: C_17  and  CA_15 
REMARK       I    between atoms: N_19  and  C_17 
REMARK   13  A    between atoms: CA_20  and  N_19 
REMARK   14  A    between atoms: C_21  and  CA_20 
REMARK   15  A    between atoms: CA_20  and  CB_23 
REMARK       I    between atoms: N_24  and  C_21 
REMARK   16  A    between atoms: CB_25  and  N_24 
REMARK   17  A    between atoms: CB_25  and  CG_26 
REMARK   18  A    between atoms: CA_27  and  CB_25 
REMARK   19  A    between atoms: CG_26  and  CD_30 
REMARK   20  A    between atoms: C_28  and  CA_27 
REMARK       I    between atoms: N_34  and  C_28 
REMARK   21  A    between atoms: CD_30  and  CE_31 
REMARK       I    between atoms: CE_31  and  NF2_32 
REMARK   22  A    between atoms: CA_35  and  N_34 
REMARK   23  A    between atoms: C_36  and  CA_35 
REMARK   24  A    between atoms: CA_35  and  CB_38 
REMARK       I    between atoms: N_42  and  C_36 
REMARK   25  A    between atoms: CB_38  and  CG_39 
REMARK   26  A    between atoms: CG_39  and  CD1_40 
REMARK   27  A    between atoms: CG_39  and  CD2_41 
REMARK   28  A    between atoms: CA_43  and  N_42 
REMARK   29  A    between atoms: C_44  and  CA_43 
REMARK   30  A    between atoms: CA_43  and  CB_46 
REMARK       I    between atoms: N_53  and  C_44 
REMARK   31  A    between atoms: CB_46  and  CG_47 
REMARK   32  A    between atoms: CG_47  and  CD_48 
REMARK   33  A    between atoms: CD_48  and  NE_49 
REMARK       I    between atoms: NE_49  and  CZ_50 
REMARK       I    between atoms: CZ_50  and  NH1_51 
REMARK       I    between atoms: CZ_50  and  NH2_52 
REMARK   34  A    between atoms: CB_54  and  N_53 
REMARK   35  A    between atoms: CB_54  and  CG_55 
REMARK   36  A    between atoms: CA_64  and  CB_54 
REMARK   37  A    between atoms: CG_55  and  CD_56 
REMARK   38  A    between atoms: CD_56  and  CE_57 
REMARK   39  A    between atoms: CE_57  and  NZ_58 
REMARK       I    between atoms: NZ_58  and  CH_59 
REMARK       I    between atoms: CH_59  and  NH2_60 
REMARK   40  A    between atoms: C_62  and  CA_64 
REMARK       I    between atoms: N_65  and  C_62 
REMARK   41  A    between atoms: CA_66  and  N_65 
REMARK   42  A    between atoms: C_67  and  CA_66 
REMARK   43  A    between atoms: CA_66  and  CB_69 
REMARK       I    between atoms: N_73  and  C_67 
REMARK   44  A    between atoms: CB_69  and  CG_70 
REMARK   45  A    between atoms: CG_70  and  SD_71 
REMARK   46  A    between atoms: SD_71  and  CE_72 
REMARK   47  A    between atoms: CA_74  and  N_73 
REMARK   48  A    between atoms: C_75  and  CA_74 
REMARK   49  A    between atoms: CA_74  and  CB_77 
REMARK       I    between atoms: N_78  and  C_75 
REMARK   50  A    between atoms: CA_79  and  N_78 
REMARK   51  A    between atoms: C_80  and  CA_79 
REMARK   52  A    between atoms: CA_79  and  CB_82 
REMARK       I    between atoms: N_91  and  C_80 
REMARK   53  A    between atoms: CB_82  and  CG_83 
REMARK   54  A    between atoms: CG_89  and  CD_87 
REMARK   55  A    between atoms: CB_90  and  CG_89 
REMARK   56  A    between atoms: CB_90  and  N_91 
REMARK   57  A    between atoms: CA_92  and  CB_90 
REMARK   58  A    between atoms: C_93  and  CA_92 
REMARK       I    between atoms: N_95  and  C_93 
REMARK   59  A    between atoms: CA_96  and  N_95 
REMARK   60  A    between atoms: C_97  and  CA_96 
REMARK   61  A    between atoms: CA_96  and  CB_99 
REMARK       I    between atoms: N_103  and  C_97 
REMARK   62  A    between atoms: CB_99  and  CG_100 
REMARK   63  A    between atoms: CG_100  and  CD1_101 
REMARK   64  A    between atoms: CG_100  and  CD2_102 
REMARK   65  A    between atoms: CA_104  and  N_103 
REMARK   66  A    between atoms: C_105  and  CA_104 
REMARK   67  A    between atoms: CA_104  and  CB_107 
REMARK       I    between atoms: N_113  and  C_105 
REMARK   68  A    between atoms: CB_107  and  CG_108 
REMARK       I    between atoms: CG_108  and  ND2_110 
REMARK   69  A    between atoms: CB_112  and  CG_111 
REMARK   70  A    between atoms: CB_112  and  N_113 
REMARK   71  A    between atoms: CB_112  and  CA_114 
REMARK   72  A    between atoms: CA_114  and  C_115 
REMARK       I    between atoms: C_115  and  N_117 
REMARK   73  A    between atoms: N_117  and  CA_118 
REMARK   74  A    between atoms: CA_118  and  C_119 
REMARK   75  A    between atoms: CA_118  and  CB_121 
REMARK       I    between atoms: C_119  and  N_126 
REMARK   76  A    between atoms: CB_121  and  CG_122 
REMARK   77  A    between atoms: CG_122  and  CD_123 
REMARK       I    between atoms: CD_123  and  NE2_125 
REMARK   78  A    between atoms: N_126  and  CA_127 
REMARK   79  A    between atoms: CA_127  and  C_128 
REMARK   80  A    between atoms: CA_127  and  CB_130 
REMARK       I    between atoms: C_128  and  N_138 
REMARK   81  A    between atoms: CB_130  and  CG_131 
REMARK   82  A    between atoms: CZ_136  and  OH_137 
REMARK   83  A    between atoms: N_138  and  CA_139 
REMARK   84  A    between atoms: CA_139  and  C_140 
REMARK   85  A    between atoms: CA_139  and  CB_142 
REMARK       I    between atoms: C_140  and  N_147 
REMARK   86  A    between atoms: CB_142  and  CG_143 
REMARK   87  A    between atoms: CG_143  and  CD_144 
ROOT
ATOM      1  CA  MET d   1       8.022  26.651  16.048  0.00  0.00     0.090 C 
ATOM      2  H   MET d   1       8.481  27.345  16.768  0.00  0.00     0.087 H 
ENDROOT
BRANCH   1   3
ATOM      3  N   MET d   1       6.572  26.702  16.231  0.00  0.00    -0.348 N 
ATOM      4  C   HR7 d   1       5.844  27.770  15.911  0.00  0.00     0.220 C 
ATOM      5  O   HR7 d   1       6.300  28.770  15.369  0.00  0.00    -0.274 OA
ATOM      6  H   MET d   1       6.108  25.902  16.612  0.00  0.00     0.163 HD
BRANCH   4   7
ATOM      7  CA  HR7 d   1       4.358  27.709  16.242  0.00  0.00     0.028 C 
ATOM      8  H   HR7 d   1       4.169  26.811  16.849  0.00  0.00     0.050 H 
ATOM      9  H   HR7 d   1       4.089  28.605  16.820  0.00  0.00     0.050 H 
BRANCH   7  10
ATOM     10  CB  HR7 d   1       3.482  27.650  14.997  0.00  0.00     0.020 C 
ATOM     11  H   HR7 d   1       3.905  28.287  14.206  0.00  0.00     0.073 H 
BRANCH  10  12
ATOM     12  N   HR7 d   1       3.394  26.269  14.525  0.00  0.00    -0.354 N 
ATOM     13  C   ARG d   1       3.962  25.980  13.352  0.00  0.00     0.240 C 
ATOM     14  O   ARG d   1       4.635  26.763  12.681  0.00  0.00    -0.271 OA
ATOM     15  H   HR7 d   1       2.926  25.567  15.061  0.00  0.00     0.162 HD
BRANCH  13  16
ATOM     16  CA  ARG d   1       3.644  24.591  12.808  0.00  0.00     0.089 C 
ATOM     17  H   ARG d   1       4.297  24.399  11.944  0.00  0.00     0.087 H 
BRANCH  16  18
ATOM     18  N   ARG d   1       3.922  23.576  13.826  0.00  0.00    -0.346 N 
ATOM     19  C   LEU d   1       5.170  23.339  14.222  0.00  0.00     0.241 C 
ATOM     20  O   LEU d   1       6.133  24.006  13.850  0.00  0.00    -0.271 OA
ATOM     21  H   ARG d   1       3.167  23.056  14.227  0.00  0.00     0.163 HD
BRANCH  19  22
ATOM     22  CA  LEU d   1       5.380  22.159  15.150  0.00  0.00     0.089 C 
ATOM     23  H   LEU d   1       6.369  22.271  15.618  0.00  0.00     0.087 H 
BRANCH  22  24
ATOM     24  N   LEU d   1       4.404  22.068  16.217  0.00  0.00    -0.348 N 
ATOM     25  C   B3Q d   1       4.375  22.987  17.186  0.00  0.00     0.220 C 
ATOM     26  O   B3Q d   1       5.074  23.997  17.153  0.00  0.00    -0.274 OA
ATOM     27  H   LEU d   1       3.748  21.313  16.228  0.00  0.00     0.163 HD
BRANCH  25  28
ATOM     28  CA  B3Q d   1       3.415  22.778  18.352  0.00  0.00     0.028 C 
ATOM     29  H   B3Q d   1       3.120  21.719  18.385  0.00  0.00     0.050 H 
ATOM     30  H   B3Q d   1       3.927  23.045  19.288  0.00  0.00     0.050 H 
BRANCH  28  31
ATOM     31  CB  B3Q d   1       2.166  23.634  18.212  0.00  0.00     0.020 C 
ATOM     32  H   B3Q d   1       2.459  24.610  17.798  0.00  0.00     0.073 H 
BRANCH  31  33
ATOM     33  N   B3Q d   1       1.232  23.007  17.273  0.00  0.00    -0.354 N 
ATOM     34  C   ALA d   1       0.985  23.770  16.212  0.00  0.00     0.240 C 
ATOM     35  O   ALA d   1       1.578  24.834  15.952  0.00  0.00    -0.271 OA
ATOM     36  H   B3Q d   1       0.825  22.105  17.414  0.00  0.00     0.162 HD
BRANCH  34  37
ATOM     37  CA  ALA d   1      -0.175  23.293  15.351  0.00  0.00     0.086 C 
ATOM     38  H   ALA d   1      -0.055  23.718  14.344  0.00  0.00     0.086 H 
BRANCH  37  39
ATOM     39  N   ALA d   1      -0.188  21.831  15.235  0.00  0.00    -0.346 N 
ATOM     40  C   DAL d   1       0.750  21.127  14.599  0.00  0.00     0.240 C 
ATOM     41  O   DAL d   1       1.758  21.629  14.078  0.00  0.00    -0.271 OA
ATOM     42  H   ALA d   1      -0.945  21.332  15.658  0.00  0.00     0.163 HD
BRANCH  40  43
ATOM     43  CA  DAL d   1       0.518  19.616  14.543  0.00  0.00     0.086 C 
ATOM     44  H   DAL d   1      -0.493  19.462  14.138  0.00  0.00     0.086 H 
BRANCH  43  45
ATOM     45  N   DAL d   1       0.553  18.974  15.859  0.00  0.00    -0.346 N 
ATOM     46  C   ILE d   1       1.582  19.118  16.689  0.00  0.00     0.241 C 
ATOM     47  O   ILE d   1       2.551  19.833  16.447  0.00  0.00    -0.271 OA
ATOM     48  H   DAL d   1      -0.222  18.409  16.142  0.00  0.00     0.163 HD
BRANCH  46  49
ATOM     49  CA  ILE d   1       1.484  18.351  18.006  0.00  0.00     0.092 C 
ATOM     50  H   ILE d   1       2.214  18.787  18.704  0.00  0.00     0.088 H 
BRANCH  49  51
ATOM     51  N   ILE d   1       0.167  18.480  18.619  0.00  0.00    -0.346 N 
ATOM     52  C   ALA d   1      -0.321  19.666  18.980  0.00  0.00     0.248 C 
ATOM     53  O   ALA d   1       0.277  20.732  18.787  0.00  0.00    -0.271 OA
ATOM     54  H   ILE d   1      -0.383  17.659  18.772  0.00  0.00     0.163 HD
BRANCH  52  55
ATOM     55  CA  ALA d   1      -1.685  19.652  19.656  0.00  0.00     0.172 C 
ATOM     56  H   ALA d   1      -1.708  18.808  20.361  0.00  0.00     0.098 H 
BRANCH  55  57
ATOM     57  N   ALA d   1      -1.918  20.881  20.411  0.00  0.00    -0.067 N 
ATOM     58  H   ALA d   1      -2.827  20.841  20.846  0.00  0.00     0.275 HD
ATOM     59  H   ALA d   1      -1.878  21.672  19.787  0.00  0.00     0.275 HD
ATOM     60  H   ALA d   1      -1.210  20.978  21.122  0.00  0.00     0.275 HD
ENDBRANCH  55  57
BRANCH  55  61
ATOM     61  CB  ALA d   1      -2.783  19.444  18.632  0.00  0.00    -0.042 C 
ATOM     62  H   ALA d   1      -2.592  18.516  18.073  0.00  0.00     0.030 H 
ATOM     63  H   ALA d   1      -2.800  20.295  17.935  0.00  0.00     0.030 H 
ATOM     64  H   ALA d   1      -3.753  19.371  19.145  0.00  0.00     0.030 H 
ENDBRANCH  55  61
ENDBRANCH  52  55
ENDBRANCH  49  51
BRANCH  49  65
ATOM     65  CB  ILE d   1       1.872  16.879  17.779  0.00  0.00    -0.030 C 
ATOM     66  H   ILE d   1       2.175  16.443  18.742  0.00  0.00     0.043 H 
BRANCH  65  67
ATOM     67  CG1 ILE d   1       3.056  16.799  16.816  0.00  0.00    -0.063 C 
ATOM     68  H   ILE d   1       3.841  17.474  17.188  0.00  0.00     0.033 H 
ATOM     69  H   ILE d   1       2.713  17.144  15.829  0.00  0.00     0.033 H 
BRANCH  67  70
ATOM     70  CD1 ILE d   1       3.660  15.443  16.644  0.00  0.00    -0.076 C 
ATOM     71  H   ILE d   1       4.498  15.502  15.934  0.00  0.00     0.027 H 
ATOM     72  H   ILE d   1       2.900  14.749  16.256  0.00  0.00     0.027 H 
ATOM     73  H   ILE d   1       4.027  15.079  17.615  0.00  0.00     0.027 H 
ENDBRANCH  67  70
ENDBRANCH  65  67
BRANCH  65  74
ATOM     74  CG2 ILE d   1       0.682  16.094  17.251  0.00  0.00    -0.071 C 
ATOM     75  H   ILE d   1      -0.153  16.170  17.963  0.00  0.00     0.028 H 
ATOM     76  H   ILE d   1       0.965  15.038  17.128  0.00  0.00     0.028 H 
ATOM     77  H   ILE d   1       0.373  16.506  16.279  0.00  0.00     0.028 H 
ENDBRANCH  65  74
ENDBRANCH  49  65
ENDBRANCH  46  49
ENDBRANCH  43  45
BRANCH  43  78
ATOM     78  CB  DAL d   1       1.497  18.949  13.587  0.00  0.00    -0.049 C 
ATOM     79  H   DAL d   1       1.452  19.449  12.608  0.00  0.00     0.030 H 
ATOM     80  H   DAL d   1       1.230  17.888  13.470  0.00  0.00     0.030 H 
ATOM     81  H   DAL d   1       2.517  19.028  13.992  0.00  0.00     0.030 H 
ENDBRANCH  43  78
ENDBRANCH  40  43
ENDBRANCH  37  39
BRANCH  37  82
ATOM     82  CB  ALA d   1      -1.493  23.785  15.930  0.00  0.00    -0.049 C 
ATOM     83  H   ALA d   1      -1.471  24.882  16.012  0.00  0.00     0.030 H 
ATOM     84  H   ALA d   1      -1.642  23.346  16.927  0.00  0.00     0.030 H 
ATOM     85  H   ALA d   1      -2.319  23.483  15.269  0.00  0.00     0.030 H 
ENDBRANCH  37  82
ENDBRANCH  34  37
ENDBRANCH  31  33
BRANCH  31  86
ATOM     86  CG  B3Q d   1       1.535  23.875  19.591  0.00  0.00    -0.038 C 
ATOM     87  H   B3Q d   1       2.320  24.255  20.261  0.00  0.00     0.036 H 
ATOM     88  H   B3Q d   1       1.167  22.910  19.968  0.00  0.00     0.036 H 
BRANCH  86  89
ATOM     89  CD  B3Q d   1       0.374  24.864  19.619  0.00  0.00     0.011 C 
ATOM     90  H   B3Q d   1       0.018  24.949  20.657  0.00  0.00     0.047 H 
ATOM     91  H   B3Q d   1      -0.433  24.466  18.986  0.00  0.00     0.047 H 
BRANCH  89  92
ATOM     92  CE  B3Q d   1       0.728  26.260  19.120  0.00  0.00     0.215 C 
ATOM     93  NF2 B3Q d   1      -0.237  26.942  18.526  0.00  0.00    -0.370 N 
ATOM     94  H   B3Q d   1      -0.058  27.863  18.180  0.00  0.00     0.159 HD
ATOM     95  H   B3Q d   1      -1.145  26.537  18.423  0.00  0.00     0.159 HD
ATOM     96  OF1 B3Q d   1       1.861  26.719  19.252  0.00  0.00    -0.274 OA
ENDBRANCH  89  92
ENDBRANCH  86  89
ENDBRANCH  31  86
ENDBRANCH  28  31
ENDBRANCH  25  28
ENDBRANCH  22  24
BRANCH  22  97
ATOM     97  CB  LEU d   1       5.381  20.880  14.312  0.00  0.00    -0.035 C 
ATOM     98  H   LEU d   1       5.976  21.051  13.403  0.00  0.00     0.037 H 
ATOM     99  H   LEU d   1       4.345  20.637  14.033  0.00  0.00     0.037 H 
BRANCH  97 100
ATOM    100  CG  LEU d   1       5.974  19.702  15.073  0.00  0.00    -0.059 C 
ATOM    101  H   LEU d   1       5.488  19.627  16.057  0.00  0.00     0.038 H 
BRANCH 100 102
ATOM    102  CD1 LEU d   1       5.728  18.424  14.291  0.00  0.00    -0.073 C 
ATOM    103  H   LEU d   1       6.155  17.571  14.839  0.00  0.00     0.028 H 
ATOM    104  H   LEU d   1       6.205  18.501  13.303  0.00  0.00     0.028 H 
ATOM    105  H   LEU d   1       4.646  18.274  14.165  0.00  0.00     0.028 H 
ENDBRANCH 100 102
BRANCH 100 106
ATOM    106  CD2 LEU d   1       7.464  19.889  15.268  0.00  0.00    -0.073 C 
ATOM    107  H   LEU d   1       7.646  20.814  15.834  0.00  0.00     0.028 H 
ATOM    108  H   LEU d   1       7.957  19.957  14.287  0.00  0.00     0.028 H 
ATOM    109  H   LEU d   1       7.871  19.032  15.825  0.00  0.00     0.028 H 
ENDBRANCH 100 106
ENDBRANCH  97 100
ENDBRANCH  22  97
ENDBRANCH  19  22
ENDBRANCH  16  18
BRANCH  16 110
ATOM    110  CB  ARG d   1       2.202  24.521  12.336  0.00  0.00    -0.036 C 
ATOM    111  H   ARG d   1       1.542  24.733  13.190  0.00  0.00     0.036 H 
ATOM    112  H   ARG d   1       2.004  23.505  11.963  0.00  0.00     0.036 H 
BRANCH 110 113
ATOM    113  CG  ARG d   1       1.892  25.518  11.222  0.00  0.00    -0.048 C 
ATOM    114  H   ARG d   1       2.384  25.192  10.294  0.00  0.00     0.035 H 
ATOM    115  H   ARG d   1       2.268  26.512  11.507  0.00  0.00     0.035 H 
BRANCH 113 116
ATOM    116  CD  ARG d   1       0.406  25.593  10.999  0.00  0.00     0.009 C 
ATOM    117  H   ARG d   1       0.174  26.517  10.449  0.00  0.00     0.064 H 
ATOM    118  H   ARG d   1      -0.100  25.611  11.975  0.00  0.00     0.064 H 
BRANCH 116 119
ATOM    119  NE  ARG d   1      -0.087  24.445  10.229  0.00  0.00    -0.227 N 
ATOM    120  CZ  ARG d   1      -1.357  24.049  10.196  0.00  0.00     0.665 C 
ATOM    121  NH1 ARG d   1      -2.289  24.689  10.899  0.00  0.00    -0.235 N 
ATOM    122  NH2 ARG d   1      -1.708  22.994   9.464  0.00  0.00    -0.235 N 
ATOM    123  H   ARG d   1      -3.268  24.372  10.864  0.00  0.00     0.174 HD
ATOM    124  H   ARG d   1      -2.031  25.501  11.477  0.00  0.00     0.174 HD
ATOM    125  H   ARG d   1      -0.998  22.489   8.915  0.00  0.00     0.174 HD
ATOM    126  H   ARG d   1      -2.690  22.683   9.447  0.00  0.00     0.174 HD
ATOM    127  H   ARG d   1       0.597  23.909   9.676  0.00  0.00     0.177 HD
ENDBRANCH 116 119
ENDBRANCH 113 116
ENDBRANCH 110 113
ENDBRANCH  16 110
ENDBRANCH  13  16
ENDBRANCH  10  12
BRANCH  10 128
ATOM    128  CG  HR7 d   1       2.087  28.149  15.384  0.00  0.00    -0.044 C 
ATOM    129  H   HR7 d   1       2.153  29.210  15.665  0.00  0.00     0.036 H 
ATOM    130  H   HR7 d   1       1.724  27.564  16.242  0.00  0.00     0.036 H 
BRANCH 128 131
ATOM    131  CD  HR7 d   1       1.100  28.003  14.233  0.00  0.00    -0.048 C 
ATOM    132  H   HR7 d   1       0.612  27.019  14.299  0.00  0.00     0.035 H 
ATOM    133  H   HR7 d   1       1.643  28.080  13.280  0.00  0.00     0.035 H 
BRANCH 131 134
ATOM    134  CE  HR7 d   1       0.040  29.090  14.292  0.00  0.00     0.009 C 
ATOM    135  H   HR7 d   1      -0.661  28.944  13.457  0.00  0.00     0.064 H 
ATOM    136  H   HR7 d   1       0.532  30.068  14.190  0.00  0.00     0.064 H 
BRANCH 134 137
ATOM    137  NZ  HR7 d   1      -0.710  29.073  15.540  0.00  0.00    -0.227 N 
ATOM    138  CH  HR7 d   1      -1.796  29.806  15.743  0.00  0.00     0.665 C 
ATOM    139  NH2 HR7 d   1      -2.232  30.608  14.780  0.00  0.00    -0.235 N 
ATOM    140  NH1 HR7 d   1      -2.435  29.742  16.903  0.00  0.00    -0.235 N 
ATOM    141  H   HR7 d   1      -3.075  31.181  14.929  0.00  0.00     0.174 HD
ATOM    142  H   HR7 d   1      -1.728  30.658  13.883  0.00  0.00     0.174 HD
ATOM    143  H   HR7 d   1      -2.091  29.117  17.646  0.00  0.00     0.174 HD
ATOM    144  H   HR7 d   1      -3.275  30.317  17.061  0.00  0.00     0.174 HD
ATOM    145  H   HR7 d   1      -0.381  28.462  16.302  0.00  0.00     0.177 HD
ENDBRANCH 134 137
ENDBRANCH 131 134
ENDBRANCH 128 131
ENDBRANCH  10 128
ENDBRANCH   7  10
ENDBRANCH   4   7
ENDBRANCH   1   3
BRANCH   1 146
ATOM    146  C   MET d   1       8.457  27.057  14.646  0.00  0.00     0.241 C 
ATOM    147  O   MET d   1       9.319  27.912  14.469  0.00  0.00    -0.271 OA
ATOM    148  N   ALA d   1       7.841  26.432  13.656  0.00  0.00    -0.346 N 
ATOM    149  H   ALA d   1       7.064  25.839  13.867  0.00  0.00     0.163 HD
BRANCH 148 150
ATOM    150  CA  ALA d   1       8.260  26.581  12.266  0.00  0.00     0.086 C 
ATOM    151  H   ALA d   1       9.342  26.389  12.229  0.00  0.00     0.086 H 
BRANCH 150 152
ATOM    152  C   ALA d   1       8.028  27.968  11.689  0.00  0.00     0.240 C 
ATOM    153  O   ALA d   1       8.937  28.541  11.072  0.00  0.00    -0.271 OA
ATOM    154  N   ASP d   1       6.810  28.487  11.856  0.00  0.00    -0.346 N 
ATOM    155  H   ASP d   1       6.135  27.988  12.400  0.00  0.00     0.163 HD
BRANCH 154 156
ATOM    156  CA  ASP d   1       6.439  29.778  11.257  0.00  0.00     0.098 C 
ATOM    157  H   ASP d   1       6.830  29.816  10.230  0.00  0.00     0.088 H 
BRANCH 156 158
ATOM    158  C   ASP d   1       7.056  30.904  12.061  0.00  0.00     0.241 C 
ATOM    159  O   ASP d   1       7.359  31.970  11.507  0.00  0.00    -0.271 OA
ATOM    160  N   B3D d   1       7.133  30.654  13.369  0.00  0.00    -0.354 N 
ATOM    161  H   B3D d   1       6.959  29.754  13.769  0.00  0.00     0.162 HD
BRANCH 160 162
ATOM    162  CB  B3D d   1       7.498  31.832  14.159  0.00  0.00     0.029 C 
ATOM    163  H   B3D d   1       7.649  32.687  13.484  0.00  0.00     0.074 H 
BRANCH 162 164
ATOM    164  CG  B3D d   1       6.411  32.175  15.182  0.00  0.00     0.035 C 
ATOM    165  H   B3D d   1       5.474  32.382  14.644  0.00  0.00     0.052 H 
ATOM    166  H   B3D d   1       6.268  31.310  15.847  0.00  0.00     0.052 H 
BRANCH 164 167
ATOM    167  CD  B3D d   1       6.763  33.385  16.028  0.00  0.00     0.174 C 
ATOM    168  OE1 B3D d   1       6.997  33.189  17.230  0.00  0.00    -0.648 OA
ATOM    169  OE2 B3D d   1       6.804  34.522  15.505  0.00  0.00    -0.648 OA
ENDBRANCH 164 167
ENDBRANCH 162 164
BRANCH 162 170
ATOM    170  CA  B3D d   1       8.781  31.543  14.921  0.00  0.00     0.028 C 
ATOM    171  H   B3D d   1       8.707  30.545  15.378  0.00  0.00     0.050 H 
ATOM    172  H   B3D d   1       8.905  32.299  15.710  0.00  0.00     0.050 H 
BRANCH 170 173
ATOM    173  C   B3D d   1       9.984  31.578  14.018  0.00  0.00     0.220 C 
ATOM    174  O   B3D d   1      10.469  32.664  13.698  0.00  0.00    -0.274 OA
ATOM    175  N   LEU d   1      10.456  30.412  13.587  0.00  0.00    -0.348 N 
ATOM    176  H   LEU d   1       9.962  29.569  13.799  0.00  0.00     0.163 HD
BRANCH 175 177
ATOM    177  CA  LEU d   1      11.690  30.350  12.806  0.00  0.00     0.089 C 
ATOM    178  H   LEU d   1      12.471  30.844  13.402  0.00  0.00     0.087 H 
BRANCH 177 179
ATOM    179  C   LEU d   1      11.598  31.100  11.472  0.00  0.00     0.241 C 
ATOM    180  O   LEU d   1      12.478  31.900  11.148  0.00  0.00    -0.271 OA
ATOM    181  N   ASN d   1      10.550  30.837  10.699  0.00  0.00    -0.346 N 
ATOM    182  H   ASN d   1       9.829  30.229  11.031  0.00  0.00     0.163 HD
BRANCH 181 183
ATOM    183  CA  ASN d   1      10.444  31.430   9.367  0.00  0.00     0.097 C 
ATOM    184  H   ASN d   1      11.368  31.201   8.816  0.00  0.00     0.088 H 
BRANCH 183 185
ATOM    185  C   ASN d   1      10.326  32.927   9.490  0.00  0.00     0.241 C 
ATOM    186  O   ASN d   1      10.933  33.669   8.716  0.00  0.00    -0.271 OA
ATOM    187  N   B3A d   1       9.484  33.332  10.439  0.00  0.00    -0.355 N 
ATOM    188  H   B3A d   1       9.049  32.740  11.117  0.00  0.00     0.162 HD
BRANCH 187 189
ATOM    189  CB  B3A d   1       9.296  34.775  10.335  0.00  0.00     0.017 C 
ATOM    190  H   B3A d   1       9.966  35.172   9.558  0.00  0.00     0.072 H 
BRANCH 189 191
ATOM    191  CG  B3A d   1       7.858  35.127   9.976  0.00  0.00    -0.057 C 
ATOM    192  H   B3A d   1       7.755  36.220   9.906  0.00  0.00     0.030 H 
ATOM    193  H   B3A d   1       7.181  34.743  10.754  0.00  0.00     0.030 H 
ATOM    194  H   B3A d   1       7.600  34.672   9.008  0.00  0.00     0.030 H 
ENDBRANCH 189 191
BRANCH 189 195
ATOM    195  CA  B3A d   1       9.644  35.390  11.663  0.00  0.00     0.028 C 
ATOM    196  H   B3A d   1       9.403  34.678  12.466  0.00  0.00     0.050 H 
ATOM    197  H   B3A d   1       9.057  36.310  11.801  0.00  0.00     0.050 H 
BRANCH 195 198
ATOM    198  C   B3A d   1      11.108  35.724  11.721  0.00  0.00     0.220 C 
ATOM    199  O   B3A d   1      11.500  36.780  11.231  0.00  0.00    -0.274 OA
ATOM    200  N   GLN d   1      11.917  34.844  12.305  0.00  0.00    -0.348 N 
ATOM    201  H   GLN d   1      11.548  33.971  12.624  0.00  0.00     0.163 HD
BRANCH 200 202
ATOM    202  CA  GLN d   1      13.340  35.135  12.487  0.00  0.00     0.089 C 
ATOM    203  H   GLN d   1      13.421  36.045  13.100  0.00  0.00     0.087 H 
BRANCH 202 204
ATOM    204  C   GLN d   1      14.045  35.390  11.166  0.00  0.00     0.241 C 
ATOM    205  O   GLN d   1      14.858  36.304  11.062  0.00  0.00    -0.271 OA
ATOM    206  N   TYR d   1      13.729  34.588  10.153  0.00  0.00    -0.346 N 
ATOM    207  H   TYR d   1      13.017  33.897  10.273  0.00  0.00     0.163 HD
BRANCH 206 208
ATOM    208  CA  TYR d   1      14.413  34.707   8.865  0.00  0.00     0.093 C 
ATOM    209  H   TYR d   1      15.344  35.258   9.064  0.00  0.00     0.088 H 
BRANCH 208 210
ATOM    210  C   TYR d   1      13.664  35.516   7.802  0.00  0.00     0.241 C 
ATOM    211  O   TYR d   1      14.022  35.484   6.624  0.00  0.00    -0.271 OA
ATOM    212  N   GLU d   1      12.642  36.251   8.232  0.00  0.00    -0.346 N 
ATOM    213  H   GLU d   1      12.402  36.225   9.203  0.00  0.00     0.163 HD
BRANCH 212 214
ATOM    214  CA  GLU d   1      11.855  37.099   7.330  0.00  0.00     0.089 C 
ATOM    215  H   GLU d   1      10.971  37.434   7.892  0.00  0.00     0.087 H 
BRANCH 214 216
ATOM    216  C   GLU d   1      11.339  36.364   6.088  0.00  0.00     0.238 C 
ATOM    217  O   GLU d   1      11.487  36.847   4.963  0.00  0.00    -0.271 OA
ATOM    218  N   NH2 d   1      10.733  35.198   6.300  0.00  0.00    -0.368 N 
ATOM    219  H   NH2 d   1      10.376  34.673   5.528  0.00  0.00     0.159 HD
ATOM    220  H   NH2 d   1      10.635  34.847   7.231  0.00  0.00     0.159 HD
ENDBRANCH 214 216
BRANCH 214 221
ATOM    221  CB  GLU d   1      12.659  38.349   6.943  0.00  0.00    -0.029 C 
ATOM    222  H   GLU d   1      12.040  38.977   6.285  0.00  0.00     0.037 H 
ATOM    223  H   GLU d   1      13.564  38.033   6.403  0.00  0.00     0.037 H 
BRANCH 221 224
ATOM    224  CG  GLU d   1      13.074  39.170   8.149  0.00  0.00     0.018 C 
ATOM    225  H   GLU d   1      13.794  38.584   8.739  0.00  0.00     0.049 H 
ATOM    226  H   GLU d   1      12.180  39.372   8.757  0.00  0.00     0.049 H 
BRANCH 224 227
ATOM    227  CD  GLU d   1      13.718  40.497   7.783  0.00  0.00     0.172 C 
ATOM    228  OE1 GLU d   1      14.577  40.518   6.879  0.00  0.00    -0.648 OA
ATOM    229  OE2 GLU d   1      13.366  41.520   8.403  0.00  0.00    -0.648 OA
ENDBRANCH 224 227
ENDBRANCH 221 224
ENDBRANCH 214 221
ENDBRANCH 212 214
ENDBRANCH 208 210
BRANCH 208 230
ATOM    230  CB  TYR d   1      14.818  33.326   8.338  0.00  0.00    -0.014 C 
ATOM    231  H   TYR d   1      15.058  33.408   7.268  0.00  0.00     0.043 H 
ATOM    232  H   TYR d   1      13.976  32.631   8.473  0.00  0.00     0.043 H 
BRANCH 230 233
ATOM    233  CG  TYR d   1      16.019  32.787   9.069  0.00  0.00    -0.056 A 
ATOM    234  CD1 TYR d   1      17.304  33.096   8.642  0.00  0.00    -0.074 A 
ATOM    235  CE1 TYR d   1      18.409  32.627   9.310  0.00  0.00    -0.051 A 
ATOM    236  H   TYR d   1      17.438  33.719   7.765  0.00  0.00     0.084 H 
ATOM    237  CZ  TYR d   1      18.245  31.844  10.428  0.00  0.00     0.065 A 
ATOM    238  H   TYR d   1      19.404  32.873   8.958  0.00  0.00     0.087 H 
ATOM    239  CE2 TYR d   1      16.980  31.527  10.887  0.00  0.00    -0.051 A 
ATOM    240  CD2 TYR d   1      15.873  32.003  10.204  0.00  0.00    -0.074 A 
ATOM    241  H   TYR d   1      16.856  30.913  11.771  0.00  0.00     0.087 H 
ATOM    242  H   TYR d   1      14.879  31.759  10.561  0.00  0.00     0.084 H 
BRANCH 237 243
ATOM    243  OH  TYR d   1      19.358  31.387  11.089  0.00  0.00    -0.361 OA
ATOM    244  H   TYR d   1      19.352  30.437  11.099  0.00  0.00     0.217 HD
ENDBRANCH 237 243
ENDBRANCH 230 233
ENDBRANCH 208 230
ENDBRANCH 206 208
ENDBRANCH 202 204
BRANCH 202 245
ATOM    245  CB  GLN d   1      14.046  33.997  13.221  0.00  0.00    -0.030 C 
ATOM    246  H   GLN d   1      15.122  34.225  13.254  0.00  0.00     0.037 H 
ATOM    247  H   GLN d   1      13.885  33.069  12.652  0.00  0.00     0.037 H 
BRANCH 245 248
ATOM    248  CG  GLN d   1      13.568  33.771  14.637  0.00  0.00     0.011 C 
ATOM    249  H   GLN d   1      12.510  33.470  14.611  0.00  0.00     0.047 H 
ATOM    250  H   GLN d   1      13.669  34.710  15.200  0.00  0.00     0.047 H 
BRANCH 248 251
ATOM    251  CD  GLN d   1      14.367  32.691  15.339  0.00  0.00     0.215 C 
ATOM    252  OE1 GLN d   1      15.573  32.568  15.133  0.00  0.00    -0.274 OA
ATOM    253  NE2 GLN d   1      13.696  31.898  16.166  0.00  0.00    -0.370 N 
ATOM    254  H   GLN d   1      14.173  31.168  16.656  0.00  0.00     0.159 HD
ATOM    255  H   GLN d   1      12.714  32.031  16.299  0.00  0.00     0.159 HD
ENDBRANCH 248 251
ENDBRANCH 245 248
ENDBRANCH 202 245
ENDBRANCH 200 202
ENDBRANCH 195 198
ENDBRANCH 189 195
ENDBRANCH 187 189
ENDBRANCH 183 185
BRANCH 183 256
ATOM    256  CB  ASN d   1       9.275  30.851   8.578  0.00  0.00     0.036 C 
ATOM    257  H   ASN d   1       8.351  31.365   8.881  0.00  0.00     0.051 H 
ATOM    258  H   ASN d   1       9.188  29.778   8.805  0.00  0.00     0.051 H 
BRANCH 256 259
ATOM    259  CG  ASN d   1       9.467  31.024   7.083  0.00  0.00     0.217 C 
ATOM    260  OD1 ASN d   1      10.272  30.316   6.480  0.00  0.00    -0.274 OA
ATOM    261  ND2 ASN d   1       8.744  31.964   6.485  0.00  0.00    -0.370 N 
ATOM    262  H   ASN d   1       8.836  32.115   5.501  0.00  0.00     0.159 HD
ATOM    263  H   ASN d   1       8.107  32.521   7.019  0.00  0.00     0.159 HD
ENDBRANCH 256 259
ENDBRANCH 183 256
ENDBRANCH 181 183
ENDBRANCH 177 179
BRANCH 177 264
ATOM    264  CB  LEU d   1      12.134  28.901  12.577  0.00  0.00    -0.035 C 
ATOM    265  H   LEU d   1      11.380  28.411  11.944  0.00  0.00     0.037 H 
ATOM    266  H   LEU d   1      12.174  28.399  13.555  0.00  0.00     0.037 H 
BRANCH 264 267
ATOM    267  CG  LEU d   1      13.500  28.731  11.903  0.00  0.00    -0.059 C 
ATOM    268  H   LEU d   1      13.464  29.234  10.925  0.00  0.00     0.038 H 
BRANCH 267 269
ATOM    269  CD1 LEU d   1      14.610  29.370  12.721  0.00  0.00    -0.073 C 
ATOM    270  H   LEU d   1      15.572  29.228  12.207  0.00  0.00     0.028 H 
ATOM    271  H   LEU d   1      14.652  28.899  13.714  0.00  0.00     0.028 H 
ATOM    272  H   LEU d   1      14.410  30.446  12.834  0.00  0.00     0.028 H 
ENDBRANCH 267 269
BRANCH 267 273
ATOM    273  CD2 LEU d   1      13.786  27.265  11.673  0.00  0.00    -0.073 C 
ATOM    274  H   LEU d   1      12.973  26.821  11.080  0.00  0.00     0.028 H 
ATOM    275  H   LEU d   1      13.857  26.749  12.642  0.00  0.00     0.028 H 
ATOM    276  H   LEU d   1      14.736  27.158  11.130  0.00  0.00     0.028 H 
ENDBRANCH 267 273
ENDBRANCH 264 267
ENDBRANCH 177 264
ENDBRANCH 175 177
ENDBRANCH 170 173
ENDBRANCH 162 170
ENDBRANCH 160 162
ENDBRANCH 156 158
BRANCH 156 277
ATOM    277  CB  ASP d   1       4.923  29.948  11.208  0.00  0.00     0.043 C 
ATOM    278  H   ASP d   1       4.694  31.008  11.025  0.00  0.00     0.052 H 
ATOM    279  H   ASP d   1       4.504  29.645  12.179  0.00  0.00     0.052 H 
BRANCH 277 280
ATOM    280  CG  ASP d   1       4.270  29.116  10.118  0.00  0.00     0.175 C 
ATOM    281  OD1 ASP d   1       4.989  28.509   9.275  0.00  0.00    -0.648 OA
ATOM    282  OD2 ASP d   1       3.021  29.092  10.091  0.00  0.00    -0.648 OA
ENDBRANCH 277 280
ENDBRANCH 156 277
ENDBRANCH 154 156
ENDBRANCH 150 152
BRANCH 150 283
ATOM    283  CB  ALA d   1       7.565  25.541  11.401  0.00  0.00    -0.049 C 
ATOM    284  H   ALA d   1       7.886  25.660  10.356  0.00  0.00     0.030 H 
ATOM    285  H   ALA d   1       6.476  25.677  11.468  0.00  0.00     0.030 H 
ATOM    286  H   ALA d   1       7.831  24.534  11.754  0.00  0.00     0.030 H 
ENDBRANCH 150 283
ENDBRANCH 148 150
ENDBRANCH   1 146
BRANCH   1 287
ATOM    287  CB  MET d   1       8.537  25.239  16.323  0.00  0.00    -0.030 C 
ATOM    288  H   MET d   1       9.633  25.245  16.230  0.00  0.00     0.037 H 
ATOM    289  H   MET d   1       8.109  24.561  15.570  0.00  0.00     0.037 H 
BRANCH 287 290
ATOM    290  CG  MET d   1       8.180  24.718  17.689  0.00  0.00    -0.021 C 
ATOM    291  H   MET d   1       7.093  24.811  17.834  0.00  0.00     0.049 H 
ATOM    292  H   MET d   1       8.704  25.318  18.448  0.00  0.00     0.049 H 
BRANCH 290 293
ATOM    293  SD  MET d   1       8.647  23.001  17.882  0.00  0.00    -0.173 SA
BRANCH 293 294
ATOM    294  CE  MET d   1       7.771  22.635  19.384  0.00  0.00    -0.035 C 
ATOM    295  H   MET d   1       7.947  21.586  19.665  0.00  0.00     0.041 H 
ATOM    296  H   MET d   1       6.694  22.797  19.229  0.00  0.00     0.041 H 
ATOM    297  H   MET d   1       8.129  23.295  20.188  0.00  0.00     0.041 H 
ENDBRANCH 293 294
ENDBRANCH 290 293
ENDBRANCH 287 290
ENDBRANCH   1 287
TORSDOF 87
