REMARK  0 active torsions:
REMARK  status: ('A' for Active; 'I' for Inactive)
ROOT
ATOM      1  O   C5E d   1      27.788 -26.603  83.371  0.00  0.00    -0.268 OA
ATOM      2  C   C5E d   1      28.270 -26.100  84.412  0.00  0.00     0.247 A 
ATOM      3  N   C5E d   1      29.038 -26.850  85.322  0.00  0.00    -0.317 N 
ATOM      4  C5  C5E d   1      29.259 -28.262  85.018  0.00  0.00     0.008 C 
ATOM      5  C6  C5E d   1      30.230 -29.003  85.950  0.00  0.00    -0.014 C 
ATOM      6  C10 C5E d   1      29.394 -29.777  86.931  0.00  0.00     0.086 C 
ATOM      7  N1  C5E d   1      28.647 -28.819  87.704  0.00  0.00    -0.074 N 
ATOM      8  C9  C5E d   1      29.370 -27.768  88.388  0.00  0.00     0.090 C 
ATOM      9  C8  C5E d   1      30.334 -27.053  87.460  0.00  0.00     0.010 C 
ATOM     10  C7  C5E d   1      31.159 -28.069  86.717  0.00  0.00    -0.049 C 
ATOM     11  C4  C5E d   1      29.545 -26.269  86.498  0.00  0.00     0.020 A 
ATOM     12  C3  C5E d   1      29.288 -24.941  86.766  0.00  0.00    -0.060 A 
ATOM     13  C2  C5E d   1      28.546 -24.202  85.865  0.00  0.00    -0.076 A 
ATOM     14  C1  C5E d   1      28.043 -24.775  84.700  0.00  0.00    -0.017 A 
ATOM     15  H1  C5E d   1      29.657 -28.329  83.995  0.00  0.00     0.065 H 
ATOM     16  H2  C5E d   1      28.287 -28.774  85.068  0.00  0.00     0.065 H 
ATOM     17  H3  C5E d   1      30.842 -29.695  85.353  0.00  0.00     0.045 H 
ATOM     18  H4  C5E d   1      30.042 -30.371  87.592  0.00  0.00     0.076 H 
ATOM     19  H5  C5E d   1      28.706 -30.446  86.394  0.00  0.00     0.076 H 
ATOM     20  H6  C5E d   1      28.138 -29.334  88.405  0.00  0.00     0.277 HD
ATOM     21  H7  C5E d   1      27.997 -28.373  87.076  0.00  0.00     0.277 HD
ATOM     22  H8  C5E d   1      29.938 -28.209  89.220  0.00  0.00     0.076 H 
ATOM     23  H9  C5E d   1      28.648 -27.038  88.783  0.00  0.00     0.076 H 
ATOM     24  H10 C5E d   1      30.993 -26.389  88.039  0.00  0.00     0.052 H 
ATOM     25  H11 C5E d   1      31.828 -27.555  86.012  0.00  0.00     0.034 H 
ATOM     26  H12 C5E d   1      31.758 -28.651  87.433  0.00  0.00     0.034 H 
ATOM     27  H13 C5E d   1      29.666 -24.480  87.677  0.00  0.00     0.086 H 
ATOM     28  H14 C5E d   1      28.351 -23.151  86.070  0.00  0.00     0.083 H 
ATOM     29  H15 C5E d   1      27.463 -24.166  84.008  0.00  0.00     0.092 H 
ENDROOT
TORSDOF 0
