REMARK  5 active torsions:
REMARK  status: ('A' for Active; 'I' for Inactive)
REMARK    1  A    between atoms: C4_4  and  CAI_2 
REMARK    2  A    between atoms: N3_5  and  C4_4 
REMARK       I    between atoms: C2_6  and  N3_5 
REMARK    3  A    between atoms: CA0_13  and  C2_6 
REMARK    4  A    between atoms: NAN_19  and  CAL_10 
REMARK    5  A    between atoms: CAT_18  and  OAU_20 
ROOT
ATOM      1  C6  QNM d   1     -35.800  26.320   3.305  0.00  0.00     0.266 A 
ATOM      2  O6  QNM d   1     -34.594  26.081   3.261  0.00  0.00    -0.267 OA
ATOM      3  CAN QNM d   1     -37.669  27.786   2.789  0.00  0.00     0.050 A 
ATOM      4  CAO QNM d   1     -38.167  28.970   2.252  0.00  0.00    -0.056 A 
ATOM      5  CA0 QNM d   1     -36.682  25.412   3.888  0.00  0.00     0.134 A 
ATOM      6  CAP QNM d   1     -39.535  29.234   2.291  0.00  0.00    -0.081 A 
ATOM      7  CAQ QNM d   1     -40.402  28.317   2.868  0.00  0.00    -0.082 A 
ATOM      8  CAR QNM d   1     -39.908  27.130   3.407  0.00  0.00    -0.068 A 
ATOM      9  CAS QNM d   1     -38.542  26.871   3.367  0.00  0.00     0.025 A 
ATOM     10  CAT QNM d   1     -38.047  25.687   3.908  0.00  0.00     0.099 A 
ATOM     11  NAN QNM d   1     -36.296  27.505   2.751  0.00  0.00    -0.317 N 
ATOM     12  H7  QNM d   1     -37.490  29.688   1.803  0.00  0.00     0.087 H 
ATOM     13  H8  QNM d   1     -39.922  30.155   1.871  0.00  0.00     0.083 H 
ATOM     14  H9  QNM d   1     -41.466  28.524   2.900  0.00  0.00     0.083 H 
ATOM     15  H10 QNM d   1     -40.585  26.412   3.855  0.00  0.00     0.085 H 
ENDROOT
BRANCH   5  16
ATOM     16  C2  QNM d   1     -36.154  24.147   4.573  0.00  0.00     0.260 C 
ATOM     17  N3  QNM d   1     -34.938  23.750   4.204  0.00  0.00    -0.347 N 
ATOM     18  H3  QNM d   1     -34.433  24.279   3.522  0.00  0.00     0.163 HD
ATOM     19  O2  QNM d   1     -36.791  23.601   5.471  0.00  0.00    -0.267 OA
BRANCH  17  20
ATOM     20  C4  QNM d   1     -34.326  22.544   4.784  0.00  0.00     0.075 C 
ATOM     21  H1  QNM d   1     -34.210  22.680   5.869  0.00  0.00     0.080 H 
ATOM     22  H2  QNM d   1     -34.974  21.677   4.590  0.00  0.00     0.080 H 
BRANCH  20  23
ATOM     23  CAI QNM d   1     -32.953  22.304   4.152  0.00  0.00     0.191 C 
ATOM     24  OAK QNM d   1     -32.594  23.099   3.256  0.00  0.00    -0.647 OA
ATOM     25  OAJ QNM d   1     -32.293  21.337   4.588  0.00  0.00    -0.647 OA
ENDBRANCH  20  23
ENDBRANCH  17  20
ENDBRANCH   5  16
BRANCH  10  26
ATOM     26  OAU QNM d   1     -38.919  24.782   4.430  0.00  0.00    -0.359 OA
ATOM     27  H11 QNM d   1     -38.437  24.032   4.758  0.00  0.00     0.217 HD
ENDBRANCH  10  26
BRANCH  11  28
ATOM     28  CAL QNM d   1     -35.362  28.472   2.132  0.00  0.00    -0.011 C 
ATOM     29  H4  QNM d   1     -34.335  28.082   2.196  0.00  0.00     0.057 H 
ATOM     30  H5  QNM d   1     -35.423  29.433   2.664  0.00  0.00     0.057 H 
ATOM     31  H6  QNM d   1     -35.633  28.620   1.076  0.00  0.00     0.057 H 
ENDBRANCH  11  28
TORSDOF 5
