REMARK  5 active torsions:
REMARK  status: ('A' for Active; 'I' for Inactive)
REMARK    1  A    between atoms: C12_13  and  C9_10 
REMARK    2  A    between atoms: C15_16  and  C08_11 
REMARK    3  A    between atoms: C10_12  and  O19_20 
REMARK    4  A    between atoms: N14_15  and  C15_16 
REMARK    5  A    between atoms: C15_16  and  C16_17 
ROOT
ATOM      1  C1  FNT d   1     -44.124 -20.418   2.912  0.00  0.00    -0.069 A 
ATOM      2 CL1  FNT d   1     -42.949 -22.677   4.456  0.00  0.00    -0.061 Cl
ATOM      3  C2  FNT d   1     -42.839 -20.212   3.377  0.00  0.00     0.018 A 
ATOM      4  C3  FNT d   1     -42.186 -19.064   3.122  0.00  0.00     0.013 A 
ATOM      5  C4  FNT d   1     -42.824 -18.069   2.405  0.00  0.00    -0.069 A 
ATOM      6  C5  FNT d   1     -44.102 -18.249   1.937  0.00  0.00    -0.082 A 
ATOM      7  C6  FNT d   1     -44.748 -19.427   2.188  0.00  0.00    -0.082 A 
ATOM      8  C7  FNT d   1     -42.193 -21.172   4.102  0.00  0.00     0.138 A 
ATOM      9  N8  FNT d   1     -40.965 -20.997   4.589  0.00  0.00    -0.229 NA
ATOM     10  C9  FNT d   1     -40.273 -19.894   4.362  0.00  0.00     0.145 A 
ATOM     11  C10 FNT d   1     -40.907 -18.901   3.607  0.00  0.00     0.110 A 
ATOM     12  H1  FNT d   1     -44.636 -21.352   3.115  0.00  0.00     0.085 H 
ATOM     13  H2  FNT d   1     -42.309 -17.135   2.210  0.00  0.00     0.085 H 
ATOM     14  H3  FNT d   1     -44.594 -17.464   1.374  0.00  0.00     0.083 H 
ATOM     15  H4  FNT d   1     -45.754 -19.581   1.816  0.00  0.00     0.083 H 
ENDROOT
BRANCH  10  16
ATOM     16  C12 FNT d   1     -38.978 -19.815   4.925  0.00  0.00     0.207 C 
ATOM     17  O13 FNT d   1     -38.606 -20.530   5.954  0.00  0.00    -0.170 OA
ATOM     18  N14 FNT d   1     -38.110 -18.933   4.431  0.00  0.00    -0.352 N 
ATOM     19  H8  FNT d   1     -38.394 -18.301   3.710  0.00  0.00     0.162 HD
BRANCH  18  20
ATOM     20  C15 FNT d   1     -36.791 -18.892   4.925  0.00  0.00     0.092 C 
ATOM     21  H9  FNT d   1     -36.810 -18.769   6.018  0.00  0.00     0.089 H 
BRANCH  20  22
ATOM     22  C08 FNT d   1     -36.082 -20.173   4.562  0.00  0.00    -0.048 C 
ATOM     23  H5  FNT d   1     -35.052 -20.143   4.947  0.00  0.00     0.030 H 
ATOM     24  H6  FNT d   1     -36.062 -20.284   3.468  0.00  0.00     0.030 H 
ATOM     25  H7  FNT d   1     -36.615 -21.026   5.007  0.00  0.00     0.030 H 
ENDBRANCH  20  22
BRANCH  20  26
ATOM     26  C16 FNT d   1     -36.029 -17.736   4.287  0.00  0.00     0.196 C 
ATOM     27  O17 FNT d   1     -36.591 -17.025   3.435  0.00  0.00    -0.646 OA
ATOM     28  O18 FNT d   1     -34.869 -17.570   4.676  0.00  0.00    -0.646 OA
ENDBRANCH  20  26
ENDBRANCH  18  20
ENDBRANCH  10  16
BRANCH  11  29
ATOM     29  O19 FNT d   1     -40.248 -17.722   3.327  0.00  0.00    -0.357 OA
ATOM     30  H10 FNT d   1     -40.023 -17.285   4.140  0.00  0.00     0.217 HD
ENDBRANCH  11  29
TORSDOF 5
