REMARK  9 active torsions:
REMARK  status: ('A' for Active; 'I' for Inactive)
REMARK    1  A    between atoms: NBB_6  and  CBA_7 
REMARK    2  A    between atoms: CAS_9  and  OAT_10 
REMARK    3  A    between atoms: OAT_10  and  CAU_11 
REMARK    4  A    between atoms: CAL_14  and  NAH_15 
REMARK    5  A    between atoms: NAH_15  and  C2_16 
REMARK    6  A    between atoms: C4_20  and  NAE_21 
REMARK    7  A    between atoms: NAE_21  and  CAJ_22 
REMARK    8  A    between atoms: CAP_27  and  CAO_28 
REMARK       I    between atoms: CAO_28  and  NAN_30 
REMARK    9  A    between atoms: NAN_30  and  CAM_32 
ROOT
ATOM      1  NAH KGW d   1     -13.423   6.761  -5.488  0.00  0.00    -0.185 N 
ATOM      2  H15 KGW d   1     -14.414   6.488  -5.422  0.00  0.00     0.184 HD
ENDROOT
BRANCH   1   3
ATOM      3  CAL KGW d   1     -12.548   5.992  -4.792  0.00  0.00     0.082 A 
ATOM      4  CAS KGW d   1     -13.006   5.398  -3.623  0.00  0.00     0.097 A 
ATOM      5  CAY KGW d   1     -12.174   4.570  -2.847  0.00  0.00    -0.023 A 
ATOM      6  CBA KGW d   1     -10.853   4.331  -3.265  0.00  0.00     0.033 A 
ATOM      7  H9  KGW d   1     -12.548   4.120  -1.935  0.00  0.00     0.091 H 
ATOM      8  CAX KGW d   1     -10.388   4.947  -4.434  0.00  0.00    -0.055 A 
ATOM      9  CAR KGW d   1     -11.242   5.757  -5.189  0.00  0.00    -0.052 A 
ATOM     10  H13 KGW d   1      -9.364   4.795  -4.754  0.00  0.00     0.087 H 
ATOM     11  H14 KGW d   1     -10.875   6.210  -6.103  0.00  0.00     0.087 H 
BRANCH   4  12
ATOM     12  OAT KGW d   1     -14.289   5.636  -3.288  0.00  0.00    -0.354 OA
BRANCH  12  13
ATOM     13  CAU KGW d   1     -14.597   4.982  -1.954  0.00  0.00     0.010 C 
ATOM     14  H10 KGW d   1     -15.645   5.178  -1.683  0.00  0.00     0.066 H 
ATOM     15  H11 KGW d   1     -13.934   5.397  -1.180  0.00  0.00     0.066 H 
ATOM     16  H12 KGW d   1     -14.435   3.897  -2.032  0.00  0.00     0.066 H 
ENDBRANCH  12  13
ENDBRANCH   4  12
BRANCH   6  17
ATOM     17  NBB KGW d   1      -9.941   3.513  -2.476  0.00  0.00    -0.377 N 
ATOM     18  CBC KGW d   1     -10.406   3.068  -1.127  0.00  0.00     0.015 C 
ATOM     19  CBE KGW d   1      -9.436   2.092  -0.436  0.00  0.00     0.034 C 
ATOM     20  H1  KGW d   1     -10.521   3.956  -0.488  0.00  0.00     0.067 H 
ATOM     21  H2  KGW d   1     -11.380   2.569  -1.241  0.00  0.00     0.067 H 
ATOM     22  OBG KGW d   1      -8.029   2.336  -0.817  0.00  0.00    -0.388 OA
ATOM     23  H3  KGW d   1      -9.706   1.064  -0.720  0.00  0.00     0.076 H 
ATOM     24  H4  KGW d   1      -9.533   2.209   0.653  0.00  0.00     0.076 H 
ATOM     25  CBF KGW d   1      -7.718   2.278  -2.198  0.00  0.00     0.034 C 
ATOM     26  CBD KGW d   1      -8.558   3.308  -2.982  0.00  0.00     0.015 C 
ATOM     27  H5  KGW d   1      -7.936   1.269  -2.577  0.00  0.00     0.076 H 
ATOM     28  H6  KGW d   1      -6.650   2.499  -2.339  0.00  0.00     0.076 H 
ATOM     29  H7  KGW d   1      -8.624   2.969  -4.026  0.00  0.00     0.067 H 
ATOM     30  H8  KGW d   1      -8.034   4.275  -2.943  0.00  0.00     0.067 H 
ENDBRANCH   6  17
ENDBRANCH   1   3
BRANCH   1  31
ATOM     31  C2  KGW d   1     -13.157   7.844  -6.260  0.00  0.00     0.744 A 
ATOM     32  N3  KGW d   1     -11.921   8.325  -6.416  0.00  0.00     0.130 NA
ATOM     33  C4  KGW d   1     -11.692   9.401  -7.202  0.00  0.00     0.744 A 
ATOM     34  NAQ KGW d   1     -12.704  10.012  -7.816  0.00  0.00    -0.055 NA
ATOM     35  C6  KGW d   1     -13.955   9.543  -7.662  0.00  0.00     0.124 A 
ATOM     36  N1  KGW d   1     -14.182   8.469  -6.898  0.00  0.00    -0.055 NA
ATOM     37  H16 KGW d   1     -14.782  10.037  -8.159  0.00  0.00     0.148 H 
BRANCH  33  38
ATOM     38  NAE KGW d   1     -10.460   9.860  -7.429  0.00  0.00    -0.187 N 
ATOM     39  H17 KGW d   1     -10.377  10.709  -8.007  0.00  0.00     0.184 HD
BRANCH  38  40
ATOM     40  CAJ KGW d   1      -9.320   9.320  -6.975  0.00  0.00     0.065 A 
ATOM     41  CAQ KGW d   1      -9.242   9.036  -5.599  0.00  0.00    -0.056 A 
ATOM     42  CAW KGW d   1      -8.078   8.505  -5.078  0.00  0.00    -0.081 A 
ATOM     43  H18 KGW d   1     -10.089   9.232  -4.952  0.00  0.00     0.087 H 
ATOM     44  CAZ KGW d   1      -6.985   8.255  -5.930  0.00  0.00    -0.082 A 
ATOM     45  H19 KGW d   1      -8.006   8.282  -4.020  0.00  0.00     0.083 H 
ATOM     46  CAV KGW d   1      -7.047   8.568  -7.295  0.00  0.00    -0.065 A 
ATOM     47  H20 KGW d   1      -6.082   7.814  -5.524  0.00  0.00     0.083 H 
ATOM     48  CAP KGW d   1      -8.218   9.121  -7.826  0.00  0.00     0.059 A 
ATOM     49  H21 KGW d   1      -6.193   8.383  -7.936  0.00  0.00     0.085 H 
BRANCH  48  50
ATOM     50  CAO KGW d   1      -8.244   9.403  -9.344  0.00  0.00     0.253 C 
ATOM     51  OAI KGW d   1      -9.055  10.201  -9.852  0.00  0.00    -0.268 OA
ATOM     52  NAN KGW d   1      -7.429   8.613 -10.068  0.00  0.00    -0.361 N 
ATOM     53  H22 KGW d   1      -6.884   7.896  -9.634  0.00  0.00     0.162 HD
BRANCH  52  54
ATOM     54  CAM KGW d   1      -7.366   8.845 -11.543  0.00  0.00    -0.018 C 
ATOM     55  H23 KGW d   1      -6.664   8.130 -11.997  0.00  0.00     0.056 H 
ATOM     56  H24 KGW d   1      -7.021   9.871 -11.738  0.00  0.00     0.056 H 
ATOM     57  H25 KGW d   1      -8.366   8.705 -11.979  0.00  0.00     0.056 H 
ENDBRANCH  52  54
ENDBRANCH  48  50
ENDBRANCH  38  40
ENDBRANCH  33  38
ENDBRANCH   1  31
TORSDOF 9
