REMARK  4 active torsions:
REMARK  status: ('A' for Active; 'I' for Inactive)
REMARK    1  A    between atoms: C1_19  and  CAS_1 
REMARK    2  A    between atoms: CAP_2  and  C1_19 
REMARK    3  A    between atoms: CAK_7  and  CAI_8 
REMARK    4  A    between atoms: C1_19  and  C_20 
ROOT
ATOM      1  CAP A64 d   1     -39.498 -10.943   7.802  0.00  0.00    -0.055 A 
ATOM      2  CAO A64 d   1     -38.696 -10.109   8.579  0.00  0.00    -0.076 A 
ATOM      3  CAN A64 d   1     -38.625 -10.295   9.963  0.00  0.00    -0.070 A 
ATOM      4  CAL A64 d   1     -40.213 -11.968   8.428  0.00  0.00    -0.076 A 
ATOM      5  CAM A64 d   1     -40.160 -12.156   9.802  0.00  0.00    -0.070 A 
ATOM      6  CAK A64 d   1     -39.325 -11.330  10.582  0.00  0.00    -0.002 A 
ATOM      7  H4  A64 d   1     -38.127  -9.315   8.110  0.00  0.00     0.084 H 
ATOM      8  H5  A64 d   1     -38.018  -9.626  10.562  0.00  0.00     0.084 H 
ATOM      9  H6  A64 d   1     -40.823 -12.632   7.826  0.00  0.00     0.084 H 
ATOM     10  H7  A64 d   1     -40.755 -12.931  10.271  0.00  0.00     0.084 H 
ENDROOT
BRANCH   6  11
ATOM     11  CAI A64 d   1     -39.313 -11.576  12.038  0.00  0.00     0.090 A 
ATOM     12  OAJ A64 d   1     -40.075 -12.635  12.475  0.00  0.00    -0.309 OA
ATOM     13  CAF A64 d   1     -40.194 -12.990  13.787  0.00  0.00     0.090 A 
ATOM     14  CAA A64 d   1     -41.026 -14.013  14.205  0.00  0.00    -0.049 A 
ATOM     15  CAE A64 d   1     -39.480 -12.205  14.804  0.00  0.00     0.048 A 
ATOM     16  CAB A64 d   1     -41.125 -14.325  15.568  0.00  0.00    -0.080 A 
ATOM     17  H8  A64 d   1     -41.602 -14.574  13.478  0.00  0.00     0.087 H 
ATOM     18  CAC A64 d   1     -40.406 -13.597  16.532  0.00  0.00    -0.082 A 
ATOM     19  H9  A64 d   1     -41.766 -15.140  15.884  0.00  0.00     0.083 H 
ATOM     20  CAD A64 d   1     -39.577 -12.542  16.139  0.00  0.00    -0.066 A 
ATOM     21  H10 A64 d   1     -40.494 -13.854  17.581  0.00  0.00     0.083 H 
ATOM     22  H11 A64 d   1     -39.012 -11.990  16.881  0.00  0.00     0.085 H 
ATOM     23  CAG A64 d   1     -38.581 -11.125  14.290  0.00  0.00     0.187 A 
ATOM     24  OAQ A64 d   1     -37.865 -10.500  15.084  0.00  0.00    -0.287 OA
ATOM     25  CAH A64 d   1     -38.542 -10.836  12.921  0.00  0.00    -0.000 A 
ATOM     26  H12 A64 d   1     -37.908 -10.032  12.551  0.00  0.00     0.094 H 
ENDBRANCH   6  11
BRANCH   1  27
ATOM     27  C1  A64 d   1     -39.564 -10.788   6.313  0.00  0.00    -0.036 C 
ATOM     28  H13 A64 d   1     -40.269 -11.530   5.911  0.00  0.00     0.046 H 
BRANCH  27  29
ATOM     29  CAS A64 d   1     -38.170 -11.045   5.703  0.00  0.00    -0.069 C 
ATOM     30  H1  A64 d   1     -38.221 -10.931   4.610  0.00  0.00     0.028 H 
ATOM     31  H2  A64 d   1     -37.844 -12.066   5.950  0.00  0.00     0.028 H 
ATOM     32  H3  A64 d   1     -37.451 -10.321   6.114  0.00  0.00     0.028 H 
ENDBRANCH  27  29
BRANCH  27  33
ATOM     33  C   A64 d   1     -40.056  -9.403   5.941  0.00  0.00    -0.069 C 
ATOM     34  H14 A64 d   1     -41.049  -9.236   6.383  0.00  0.00     0.028 H 
ATOM     35  H15 A64 d   1     -40.123  -9.319   4.846  0.00  0.00     0.028 H 
ATOM     36  H16 A64 d   1     -39.353  -8.649   6.324  0.00  0.00     0.028 H 
ENDBRANCH  27  33
ENDBRANCH   1  27
TORSDOF 4
