REMARK  6 active torsions:
REMARK  status: ('A' for Active; 'I' for Inactive)
REMARK    1  A    between atoms: C5_2  and  C3_5 
REMARK    2  A    between atoms: C4_10  and  S1_11 
REMARK    3  A    between atoms: S1_11  and  C2_14 
REMARK    4  A    between atoms: C10_17  and  C7_19 
REMARK       I    between atoms: C7_19  and  N11_21 
REMARK    5  A    between atoms: N11_21  and  C6_22 
REMARK    6  A    between atoms: C6_22  and  C12_25 
ROOT
ATOM      1  C2  MG2 d   1      -3.465  -6.681  26.803  0.00  0.00     0.074 C 
ATOM      2  C16 MG2 d   1      -4.238  -7.548  27.819  0.00  0.00     0.099 C 
ATOM      3  N9  MG2 d   1      -3.303  -8.567  28.283  0.00  0.00    -0.061 N 
ATOM      4  C10 MG2 d   1      -2.205  -8.685  27.322  0.00  0.00     0.179 C 
ATOM      5  C8  MG2 d   1      -2.045  -7.262  26.821  0.00  0.00    -0.012 C 
ATOM      6  H5  MG2 d   1      -3.458  -5.640  27.158  0.00  0.00     0.067 H 
ATOM      7  H6  MG2 d   1      -5.106  -8.020  27.335  0.00  0.00     0.077 H 
ATOM      8  H7  MG2 d   1      -4.580  -6.932  28.664  0.00  0.00     0.077 H 
ATOM      9  H8  MG2 d   1      -3.780  -9.452  28.361  0.00  0.00     0.278 HD
ATOM     10  H9  MG2 d   1      -2.936  -8.303  29.184  0.00  0.00     0.278 HD
ATOM     11  H10 MG2 d   1      -2.545  -9.316  26.488  0.00  0.00     0.099 H 
ATOM     12  H11 MG2 d   1      -1.400  -6.684  27.500  0.00  0.00     0.038 H 
ATOM     13  H12 MG2 d   1      -1.612  -7.255  25.810  0.00  0.00     0.038 H 
ENDROOT
BRANCH   1  14
ATOM     14  S1  MG2 d   1      -4.046  -6.684  25.196  0.00  0.00     0.182 S 
ATOM     15  O14 MG2 d   1      -3.277  -5.801  24.378  0.00  0.00    -0.222 OA
ATOM     16  O15 MG2 d   1      -4.089  -8.049  24.774  0.00  0.00    -0.222 OA
BRANCH  14  17
ATOM     17  C4  MG2 d   1      -5.640  -6.185  25.256  0.00  0.00     0.074 A 
ATOM     18  C3  MG2 d   1      -6.134  -4.838  25.325  0.00  0.00     0.069 A 
ATOM     19  C23 MG2 d   1      -7.547  -4.633  25.331  0.00  0.00    -0.067 A 
ATOM     20  C25 MG2 d   1      -8.425  -5.689  25.233  0.00  0.00    -0.082 A 
ATOM     21  H1  MG2 d   1      -7.937  -3.625  25.415  0.00  0.00     0.084 H 
ATOM     22  C26 MG2 d   1      -7.993  -6.978  25.183  0.00  0.00    -0.082 A 
ATOM     23  H2  MG2 d   1      -9.489  -5.488  25.195  0.00  0.00     0.083 H 
ATOM     24  C24 MG2 d   1      -6.619  -7.212  25.183  0.00  0.00    -0.061 A 
ATOM     25  H3  MG2 d   1      -8.698  -7.801  25.144  0.00  0.00     0.083 H 
ATOM     26  H4  MG2 d   1      -6.277  -8.239  25.124  0.00  0.00     0.085 H 
BRANCH  18  27
ATOM     27  C5  MG2 d   1      -5.189  -3.650  25.395  0.00  0.00     0.418 C 
ATOM     28  F22 MG2 d   1      -4.652  -3.417  24.213  0.00  0.00    -0.166 F 
ATOM     29  F20 MG2 d   1      -5.849  -2.566  25.738  0.00  0.00    -0.166 F 
ATOM     30  F21 MG2 d   1      -4.219  -3.801  26.277  0.00  0.00    -0.166 F 
ENDBRANCH  18  27
ENDBRANCH  14  17
ENDBRANCH   1  14
BRANCH   4  31
ATOM     31  C7  MG2 d   1      -0.938  -9.309  27.821  0.00  0.00     0.249 C 
ATOM     32  O19 MG2 d   1      -0.498  -9.040  28.929  0.00  0.00    -0.271 OA
ATOM     33  N11 MG2 d   1      -0.397 -10.165  26.973  0.00  0.00    -0.345 N 
ATOM     34  H13 MG2 d   1      -0.841 -10.300  26.087  0.00  0.00     0.163 HD
BRANCH  33  35
ATOM     35  C6  MG2 d   1       0.809 -10.919  27.262  0.00  0.00     0.066 A 
ATOM     36  C18 MG2 d   1       0.728 -12.414  27.022  0.00  0.00    -0.034 A 
ATOM     37  C17 MG2 d   1       0.741 -11.897  28.459  0.00  0.00    -0.034 A 
ATOM     38  H14 MG2 d   1       1.602 -12.953  26.627  0.00  0.00     0.037 H 
ATOM     39  H15 MG2 d   1      -0.192 -12.852  26.607  0.00  0.00     0.037 H 
ATOM     40  H16 MG2 d   1      -0.169 -11.954  29.075  0.00  0.00     0.037 H 
ATOM     41  H17 MG2 d   1       1.625 -12.054  29.095  0.00  0.00     0.037 H 
BRANCH  35  42
ATOM     42  C12 MG2 d   1       2.139 -10.201  27.042  0.00  0.00     0.000 C 
ATOM     43  N13 MG2 d   1       3.250 -10.782  27.230  0.00  0.00    -0.314 NA
ATOM     44  H19 MG2 d   1       4.112 -10.283  27.077  0.00  0.00     0.185 HD
ATOM     45  H18 MG2 d   1       2.133  -9.162  26.715  0.00  0.00     0.110 H 
ENDBRANCH  35  42
ENDBRANCH  33  35
ENDBRANCH   4  31
TORSDOF 6
