REMARK  6 active torsions:
REMARK  status: ('A' for Active; 'I' for Inactive)
REMARK    1  A    between atoms: S1_2  and  C13_4 
REMARK    2  A    between atoms: S1_2  and  C4_10 
REMARK    3  A    between atoms: C2_13  and  C3_21 
REMARK    4  A    between atoms: C5_14  and  C9_15 
REMARK       I    between atoms: C9_15  and  N17_16 
REMARK    5  A    between atoms: N17_16  and  C21_17 
REMARK    6  A    between atoms: C21_17  and  C14_18 
REMARK       I    between atoms: C3_21  and  N8_23 
ROOT
ATOM      1  C4  QQV d   1      -3.056  -6.735  26.839  0.00  0.00     0.051 C 
ATOM      2  C7  QQV d   1      -1.634  -7.270  26.626  0.00  0.00    -0.036 C 
ATOM      3  C6  QQV d   1      -3.879  -7.782  27.610  0.00  0.00    -0.036 C 
ATOM      4  C2  QQV d   1      -2.793  -8.642  28.263  0.00  0.00     0.036 C 
ATOM      5  C5  QQV d   1      -1.686  -8.694  27.189  0.00  0.00     0.036 C 
ATOM      6  H6  QQV d   1      -3.017  -5.803  27.421  0.00  0.00     0.064 H 
ATOM      7  H7  QQV d   1      -0.900  -6.660  27.173  0.00  0.00     0.036 H 
ATOM      8  H8  QQV d   1      -1.377  -7.282  25.557  0.00  0.00     0.036 H 
ATOM      9  H9  QQV d   1      -4.502  -8.379  26.928  0.00  0.00     0.036 H 
ATOM     10  H10 QQV d   1      -4.518  -7.306  28.368  0.00  0.00     0.036 H 
ATOM     11  H11 QQV d   1      -2.397  -8.098  29.133  0.00  0.00     0.056 H 
ATOM     12  H12 QQV d   1      -2.006  -9.372  26.384  0.00  0.00     0.056 H 
ENDROOT
BRANCH   4  13
ATOM     13  C3  QQV d   1      -3.277  -9.981  28.795  0.00  0.00     0.225 C 
ATOM     14  O15 QQV d   1      -3.010 -11.028  28.207  0.00  0.00    -0.273 OA
ATOM     15  N8  QQV d   1      -4.024 -10.042  29.980  0.00  0.00    -0.348 N 
ATOM     16  C19 QQV d   1      -4.241  -8.862  30.845  0.00  0.00     0.017 C 
ATOM     17  C20 QQV d   1      -4.840 -11.241  30.302  0.00  0.00     0.017 C 
ATOM     18  C23 QQV d   1      -4.080  -9.283  32.310  0.00  0.00     0.034 C 
ATOM     19  H18 QQV d   1      -5.255  -8.467  30.684  0.00  0.00     0.067 H 
ATOM     20  H19 QQV d   1      -3.502  -8.085  30.601  0.00  0.00     0.067 H 
ATOM     21  O18 QQV d   1      -4.928 -10.407  32.586  0.00  0.00    -0.388 OA
ATOM     22  H20 QQV d   1      -4.360  -8.444  32.964  0.00  0.00     0.076 H 
ATOM     23  H21 QQV d   1      -3.032  -9.561  32.498  0.00  0.00     0.076 H 
ATOM     24  C22 QQV d   1      -4.657 -11.569  31.791  0.00  0.00     0.034 C 
ATOM     25  H22 QQV d   1      -5.351 -12.374  32.075  0.00  0.00     0.076 H 
ATOM     26  H23 QQV d   1      -3.622 -11.898  31.967  0.00  0.00     0.076 H 
ATOM     27  H24 QQV d   1      -4.506 -12.092  29.691  0.00  0.00     0.067 H 
ATOM     28  H25 QQV d   1      -5.901 -11.035  30.095  0.00  0.00     0.067 H 
ENDBRANCH   4  13
BRANCH   5  29
ATOM     29  C9  QQV d   1      -0.380  -9.232  27.711  0.00  0.00     0.223 C 
ATOM     30  N17 QQV d   1       0.206 -10.252  26.998  0.00  0.00    -0.356 N 
ATOM     31  H13 QQV d   1      -0.243 -10.566  26.162  0.00  0.00     0.162 HD
ATOM     32  O16 QQV d   1       0.157  -8.838  28.748  0.00  0.00    -0.273 OA
BRANCH  30  33
ATOM     33  C21 QQV d   1       1.468 -10.907  27.407  0.00  0.00     0.025 C 
ATOM     34  H14 QQV d   1       1.472 -11.949  27.054  0.00  0.00     0.072 H 
ATOM     35  H15 QQV d   1       1.550 -10.891  28.504  0.00  0.00     0.072 H 
BRANCH  33  36
ATOM     36  C14 QQV d   1       2.634 -10.170  26.806  0.00  0.00    -0.010 C 
ATOM     37  N10 QQV d   1       3.846 -10.596  26.765  0.00  0.00    -0.315 NA
ATOM     38  H17 QQV d   1       4.565 -10.031  26.340  0.00  0.00     0.185 HD
ATOM     39  H16 QQV d   1       2.434  -9.193  26.369  0.00  0.00     0.109 H 
ENDBRANCH  33  36
ENDBRANCH  30  33
ENDBRANCH   5  29
BRANCH   1  40
ATOM     40  S1  QQV d   1      -3.786  -6.410  25.256  0.00  0.00     0.179 S 
ATOM     41  O12 QQV d   1      -3.676  -7.653  24.488  0.00  0.00    -0.222 OA
ATOM     42  O11 QQV d   1      -2.984  -5.313  24.695  0.00  0.00    -0.222 OA
BRANCH  40  43
ATOM     43  C13 QQV d   1      -5.514  -6.023  25.583  0.00  0.00     0.059 A 
ATOM     44  C24 QQV d   1      -5.949  -4.706  25.823  0.00  0.00    -0.062 A 
ATOM     45  C27 QQV d   1      -7.310  -4.422  26.054  0.00  0.00    -0.082 A 
ATOM     46  H1  QQV d   1      -5.226  -3.898  25.830  0.00  0.00     0.085 H 
ATOM     47  C28 QQV d   1      -8.269  -5.449  26.056  0.00  0.00    -0.083 A 
ATOM     48  H2  QQV d   1      -7.621  -3.399  26.232  0.00  0.00     0.083 H 
ATOM     49  C26 QQV d   1      -7.861  -6.770  25.812  0.00  0.00    -0.082 A 
ATOM     50  H3  QQV d   1      -9.313  -5.224  26.244  0.00  0.00     0.083 H 
ATOM     51  C25 QQV d   1      -6.495  -7.046  25.582  0.00  0.00    -0.062 A 
ATOM     52  H4  QQV d   1      -8.589  -7.573  25.800  0.00  0.00     0.083 H 
ATOM     53  H5  QQV d   1      -6.188  -8.069  25.399  0.00  0.00     0.085 H 
ENDBRANCH  40  43
ENDBRANCH   1  40
TORSDOF 6
