REMARK  12 active torsions:
REMARK  status: ('A' for Active; 'I' for Inactive)
REMARK    1  A    between atoms: CA_2  and  C_3 
REMARK       I    between atoms: C_3  and  N_8 
REMARK    2  A    between atoms: CA_9  and  C_10 
REMARK       I    between atoms: C_10  and  N_15 
REMARK    3  A    between atoms: N_15  and  CA_16 
REMARK    4  A    between atoms: CA_16  and  C_17 
REMARK       I    between atoms: C_17  and  N_19 
REMARK    5  A    between atoms: CA_20  and  C_21 
REMARK       I    between atoms: C_21  and  N_26 
REMARK    6  A    between atoms: CA_27  and  C_28 
REMARK       I    between atoms: C_28  and  N_33 
REMARK    7  A    between atoms: N_33  and  CA_34 
REMARK    8  A    between atoms: CA_34  and  C_35 
REMARK       I    between atoms: C_35  and  N_37 
REMARK    9  A    between atoms: CA_38  and  C_39 
REMARK       I    between atoms: C_39  and  N_44 
REMARK   10  A    between atoms: CA_45  and  C_46 
REMARK       I    between atoms: C_46  and  N_51 
REMARK   11  A    between atoms: N_51  and  CA_52 
REMARK   12  A    between atoms: CA_52  and  C_53 
ROOT
ATOM      1  C   PRO d   1      85.475  22.767 -10.438  0.00  0.00     0.243 C 
ATOM      2  O   PRO d   1      84.932  23.705  -9.854  0.00  0.00    -0.271 OA
ATOM      3  N   PRO d   1      85.791  21.604  -9.840  0.00  0.00    -0.337 N 
ATOM      4  CA  PRO d   1      85.451  21.321  -8.436  0.00  0.00     0.091 C 
ATOM      5  CB  PRO d   1      86.144  19.978  -8.180  0.00  0.00    -0.036 C 
ATOM      6  CG  PRO d   1      86.162  19.314  -9.536  0.00  0.00    -0.048 C 
ATOM      7  CD  PRO d   1      86.429  20.446 -10.497  0.00  0.00    -0.001 C 
ATOM      8  H27 PRO d   1      84.361  21.230  -8.323  0.00  0.00     0.087 H 
ATOM      9  H28 PRO d   1      85.575  19.375  -7.457  0.00  0.00     0.036 H 
ATOM     10  H29 PRO d   1      87.167  20.131  -7.806  0.00  0.00     0.036 H 
ATOM     11  H30 PRO d   1      85.193  18.840  -9.751  0.00  0.00     0.035 H 
ATOM     12  H31 PRO d   1      86.960  18.559  -9.591  0.00  0.00     0.035 H 
ATOM     13  H32 PRO d   1      87.509  20.610 -10.623  0.00  0.00     0.064 H 
ATOM     14  H33 PRO d   1      85.972  20.247 -11.477  0.00  0.00     0.064 H 
ENDROOT
BRANCH   1  15
ATOM     15  CA  PRO d   1      85.783  22.904 -11.930  0.00  0.00     0.092 C 
ATOM     16  N   PRO d   1      84.871  23.867 -12.559  0.00  0.00    -0.337 N 
ATOM     17  C   GLY d   1      83.555  23.620 -12.624  0.00  0.00     0.238 C 
ATOM     18  CD  PRO d   1      85.555  25.099 -12.994  0.00  0.00    -0.001 C 
ATOM     19  O   GLY d   1      83.052  22.593 -12.175  0.00  0.00    -0.272 OA
ATOM     20  CG  PRO d   1      86.896  25.000 -12.355  0.00  0.00    -0.048 C 
ATOM     21  H25 PRO d   1      85.017  25.992 -12.642  0.00  0.00     0.064 H 
ATOM     22  H26 PRO d   1      85.644  25.133 -14.090  0.00  0.00     0.064 H 
ATOM     23  CB  PRO d   1      87.164  23.533 -12.143  0.00  0.00    -0.036 C 
ATOM     24  H23 PRO d   1      87.663  25.435 -13.013  0.00  0.00     0.035 H 
ATOM     25  H24 PRO d   1      86.897  25.529 -11.391  0.00  0.00     0.035 H 
ATOM     26  H21 PRO d   1      87.655  23.098 -13.026  0.00  0.00     0.036 H 
ATOM     27  H22 PRO d   1      87.799  23.380 -11.258  0.00  0.00     0.036 H 
ATOM     28  H20 PRO d   1      85.717  21.919 -12.415  0.00  0.00     0.087 H 
BRANCH  17  29
ATOM     29  CA  GLY d   1      82.691  24.674 -13.290  0.00  0.00     0.069 C 
ATOM     30  H18 GLY d   1      82.428  25.435 -12.541  0.00  0.00     0.078 H 
ATOM     31  H19 GLY d   1      83.271  25.141 -14.100  0.00  0.00     0.078 H 
BRANCH  29  32
ATOM     32  N   GLY d   1      81.465  24.136 -13.851  0.00  0.00    -0.351 N 
ATOM     33  C   PRO d   1      81.286  24.037 -15.166  0.00  0.00     0.241 C 
ATOM     34  O   PRO d   1      82.116  24.418 -15.988  0.00  0.00    -0.271 OA
ATOM     35  H17 GLY d   1      80.738  23.833 -13.235  0.00  0.00     0.163 HD
BRANCH  33  36
ATOM     36  CA  PRO d   1      79.977  23.407 -15.643  0.00  0.00     0.091 C 
ATOM     37  N   PRO d   1      79.665  23.700 -17.049  0.00  0.00    -0.337 N 
ATOM     38  C   PRO d   1      79.368  24.922 -17.507  0.00  0.00     0.251 C 
ATOM     39  CD  PRO d   1      79.800  22.511 -17.913  0.00  0.00    -0.001 C 
ATOM     40  O   PRO d   1      79.471  25.939 -16.820  0.00  0.00    -0.271 OA
ATOM     41  CG  PRO d   1      80.527  21.541 -17.039  0.00  0.00    -0.048 C 
ATOM     42  H15 PRO d   1      80.383  22.743 -18.817  0.00  0.00     0.064 H 
ATOM     43  H16 PRO d   1      78.814  22.119 -18.203  0.00  0.00     0.064 H 
ATOM     44  CB  PRO d   1      80.104  21.886 -15.637  0.00  0.00    -0.036 C 
ATOM     45  H13 PRO d   1      80.240  20.508 -17.286  0.00  0.00     0.035 H 
ATOM     46  H14 PRO d   1      81.615  21.657 -17.154  0.00  0.00     0.035 H 
ATOM     47  H11 PRO d   1      79.140  21.416 -15.394  0.00  0.00     0.036 H 
ATOM     48  H12 PRO d   1      80.863  21.561 -14.910  0.00  0.00     0.036 H 
ATOM     49  H10 PRO d   1      79.158  23.741 -14.989  0.00  0.00     0.087 H 
BRANCH  38  50
ATOM     50  CA  PRO d   1      78.909  25.014 -18.961  0.00  0.00     0.178 C 
ATOM     51  N   PRO d   1      77.760  25.909 -19.131  0.00  0.00    -0.062 N 
ATOM     52  CD  PRO d   1      78.095  27.085 -19.952  0.00  0.00     0.083 C 
ATOM     53  H1  PRO d   1      77.454  26.222 -18.223  0.00  0.00     0.278 HD
ATOM     54  H2  PRO d   1      77.014  25.400 -19.580  0.00  0.00     0.278 HD
ATOM     55  CG  PRO d   1      79.596  27.103 -19.910  0.00  0.00    -0.040 C 
ATOM     56  H8  PRO d   1      77.675  28.004 -19.517  0.00  0.00     0.075 H 
ATOM     57  H9  PRO d   1      77.729  26.966 -20.982  0.00  0.00     0.075 H 
ATOM     58  CB  PRO d   1      79.995  25.670 -19.819  0.00  0.00    -0.028 C 
ATOM     59  H6  PRO d   1      80.003  27.561 -20.824  0.00  0.00     0.035 H 
ATOM     60  H7  PRO d   1      79.952  27.660 -19.031  0.00  0.00     0.035 H 
ATOM     61  H4  PRO d   1      80.027  25.213 -20.819  0.00  0.00     0.036 H 
ATOM     62  H5  PRO d   1      80.980  25.572 -19.339  0.00  0.00     0.036 H 
ATOM     63  H3  PRO d   1      78.671  24.005 -19.329  0.00  0.00     0.099 H 
ENDBRANCH  38  50
ENDBRANCH  33  36
ENDBRANCH  29  32
ENDBRANCH  17  29
ENDBRANCH   1  15
BRANCH   4  64
ATOM     64  C   PRO d   1      85.963  22.368  -7.442  0.00  0.00     0.241 C 
ATOM     65  O   PRO d   1      87.096  22.845  -7.556  0.00  0.00    -0.271 OA
ATOM     66  N   GLY d   1      85.124  22.727  -6.480  0.00  0.00    -0.351 N 
ATOM     67  H34 GLY d   1      84.180  22.399  -6.502  0.00  0.00     0.163 HD
BRANCH  66  68
ATOM     68  CA  GLY d   1      85.557  23.590  -5.396  0.00  0.00     0.069 C 
ATOM     69  H35 GLY d   1      84.707  24.190  -5.038  0.00  0.00     0.078 H 
ATOM     70  H36 GLY d   1      86.355  24.259  -5.751  0.00  0.00     0.078 H 
BRANCH  68  71
ATOM     71  C   GLY d   1      86.081  22.724  -4.270  0.00  0.00     0.238 C 
ATOM     72  O   GLY d   1      85.959  21.501  -4.334  0.00  0.00    -0.272 OA
ATOM     73  N   PRO d   1      86.677  23.348  -3.240  0.00  0.00    -0.337 N 
ATOM     74  CA  PRO d   1      87.181  22.586  -2.089  0.00  0.00     0.092 C 
ATOM     75  CD  PRO d   1      87.007  24.785  -3.147  0.00  0.00    -0.001 C 
ATOM     76  CB  PRO d   1      87.706  23.682  -1.150  0.00  0.00    -0.036 C 
ATOM     77  H37 PRO d   1      87.987  21.902  -2.392  0.00  0.00     0.087 H 
ATOM     78  CG  PRO d   1      88.077  24.823  -2.075  0.00  0.00    -0.048 C 
ATOM     79  H38 PRO d   1      88.587  23.329  -0.594  0.00  0.00     0.036 H 
ATOM     80  H39 PRO d   1      86.925  23.994  -0.441  0.00  0.00     0.036 H 
ATOM     81  H40 PRO d   1      89.074  24.665  -2.511  0.00  0.00     0.035 H 
ATOM     82  H41 PRO d   1      88.060  25.783  -1.539  0.00  0.00     0.035 H 
ATOM     83  H42 PRO d   1      86.127  25.374  -2.848  0.00  0.00     0.064 H 
ATOM     84  H43 PRO d   1      87.394  25.164  -4.104  0.00  0.00     0.064 H 
BRANCH  74  85
ATOM     85  C   PRO d   1      86.064  21.790  -1.408  0.00  0.00     0.243 C 
ATOM     86  O   PRO d   1      84.922  22.252  -1.357  0.00  0.00    -0.271 OA
ATOM     87  N   PRO d   1      86.386  20.586  -0.908  0.00  0.00    -0.337 N 
ATOM     88  CA  PRO d   1      85.383  19.774  -0.211  0.00  0.00     0.091 C 
ATOM     89  CD  PRO d   1      87.655  19.861  -1.121  0.00  0.00    -0.001 C 
ATOM     90  CB  PRO d   1      85.997  18.370  -0.230  0.00  0.00    -0.036 C 
ATOM     91  H44 PRO d   1      84.419  19.796  -0.741  0.00  0.00     0.087 H 
ATOM     92  CG  PRO d   1      87.481  18.600  -0.312  0.00  0.00    -0.048 C 
ATOM     93  H45 PRO d   1      85.644  17.805  -1.105  0.00  0.00     0.036 H 
ATOM     94  H46 PRO d   1      85.740  17.822   0.689  0.00  0.00     0.036 H 
ATOM     95  H47 PRO d   1      87.973  17.753  -0.812  0.00  0.00     0.035 H 
ATOM     96  H48 PRO d   1      87.905  18.729   0.695  0.00  0.00     0.035 H 
ATOM     97  H49 PRO d   1      88.510  20.448  -0.754  0.00  0.00     0.064 H 
ATOM     98  H50 PRO d   1      87.800  19.628  -2.186  0.00  0.00     0.064 H 
BRANCH  88  99
ATOM     99  C   PRO d   1      85.188  20.245   1.226  0.00  0.00     0.241 C 
ATOM    100  O   PRO d   1      85.813  21.227   1.637  0.00  0.00    -0.271 OA
ATOM    101  N   GLY d   1      84.327  19.564   1.976  0.00  0.00    -0.349 N 
ATOM    102  H51 GLY d   1      83.783  18.835   1.561  0.00  0.00     0.163 HD
BRANCH 101 103
ATOM    103  CA  GLY d   1      84.163  19.861   3.390  0.00  0.00     0.075 C 
ATOM    104  H52 GLY d   1      84.990  20.518   3.698  0.00  0.00     0.080 H 
ATOM    105  H53 GLY d   1      84.220  18.914   3.946  0.00  0.00     0.080 H 
BRANCH 103 106
ATOM    106  C   GLY d   1      82.858  20.544   3.758  0.00  0.00     0.191 C 
ATOM    107  O   GLY d   1      81.774  20.072   3.410  0.00  0.00    -0.647 OA
ATOM    108  OXT GLY d   1      82.847  21.579   4.430  0.00  0.00    -0.647 OA
ENDBRANCH 103 106
ENDBRANCH 101 103
ENDBRANCH  88  99
ENDBRANCH  74  85
ENDBRANCH  68  71
ENDBRANCH  66  68
ENDBRANCH   4  64
TORSDOF 12
