REMARK  9 active torsions:
REMARK  status: ('A' for Active; 'I' for Inactive)
REMARK    1  A    between atoms: CA_2  and  C_3 
REMARK       I    between atoms: C_3  and  N_8 
REMARK    2  A    between atoms: CA_9  and  C_10 
REMARK       I    between atoms: C_10  and  N_15 
REMARK    3  A    between atoms: CA_16  and  C_17 
REMARK       I    between atoms: C_17  and  N_22 
REMARK    4  A    between atoms: CA_23  and  C_24 
REMARK       I    between atoms: C_24  and  N_29 
REMARK    5  A    between atoms: CA_30  and  C_31 
REMARK       I    between atoms: C_31  and  N_36 
REMARK    6  A    between atoms: CA_37  and  C_38 
REMARK       I    between atoms: C_38  and  N_43 
REMARK    7  A    between atoms: CA_44  and  C_45 
REMARK       I    between atoms: C_45  and  N_50 
REMARK    8  A    between atoms: CA_51  and  C_52 
REMARK       I    between atoms: C_52  and  N_57 
REMARK    9  A    between atoms: CA_58  and  C_59 
ROOT
ATOM      1  C   PRO d   1      74.700  56.371  56.201  0.00  0.00     0.243 C 
ATOM      2  O   PRO d   1      74.343  57.129  57.097  0.00  0.00    -0.271 OA
ATOM      3  N   PRO d   1      74.532  56.648  54.898  0.00  0.00    -0.337 N 
ATOM      4  CA  PRO d   1      73.886  57.880  54.428  0.00  0.00     0.092 C 
ATOM      5  CB  PRO d   1      73.809  57.678  52.906  0.00  0.00    -0.036 C 
ATOM      6  CG  PRO d   1      74.042  56.208  52.682  0.00  0.00    -0.048 C 
ATOM      7  CD  PRO d   1      74.949  55.782  53.782  0.00  0.00    -0.001 C 
ATOM      8  H31 PRO d   1      74.503  58.755  54.678  0.00  0.00     0.087 H 
ATOM      9  H32 PRO d   1      74.585  58.271  52.400  0.00  0.00     0.036 H 
ATOM     10  H33 PRO d   1      72.818  57.972  52.529  0.00  0.00     0.036 H 
ATOM     11  H34 PRO d   1      74.516  56.038  51.704  0.00  0.00     0.035 H 
ATOM     12  H35 PRO d   1      73.092  55.656  52.730  0.00  0.00     0.035 H 
ATOM     13  H36 PRO d   1      74.803  54.720  54.028  0.00  0.00     0.064 H 
ATOM     14  H37 PRO d   1      76.002  55.956  53.517  0.00  0.00     0.064 H 
ENDROOT
BRANCH   4  15
ATOM     15  C   PRO d   1      72.482  58.078  55.004  0.00  0.00     0.243 C 
ATOM     16  O   PRO d   1      71.885  57.107  55.473  0.00  0.00    -0.271 OA
ATOM     17  N   PRO d   1      71.968  59.324  54.979  0.00  0.00    -0.337 N 
ATOM     18  CA  PRO d   1      70.621  59.628  55.477  0.00  0.00     0.092 C 
ATOM     19  CD  PRO d   1      72.680  60.540  54.543  0.00  0.00    -0.001 C 
ATOM     20  CB  PRO d   1      70.374  61.041  54.960  0.00  0.00    -0.036 C 
ATOM     21  H38 PRO d   1      70.601  59.603  56.577  0.00  0.00     0.087 H 
ATOM     22  CG  PRO d   1      71.739  61.657  54.923  0.00  0.00    -0.048 C 
ATOM     23  H39 PRO d   1      69.713  61.597  55.641  0.00  0.00     0.036 H 
ATOM     24  H40 PRO d   1      69.928  61.017  53.955  0.00  0.00     0.036 H 
ATOM     25  H41 PRO d   1      72.004  62.062  55.911  0.00  0.00     0.035 H 
ATOM     26  H42 PRO d   1      71.777  62.462  54.174  0.00  0.00     0.035 H 
ATOM     27  H43 PRO d   1      72.854  60.525  53.457  0.00  0.00     0.064 H 
ATOM     28  H44 PRO d   1      73.642  60.641  55.067  0.00  0.00     0.064 H 
BRANCH  18  29
ATOM     29  C   PRO d   1      69.573  58.671  54.940  0.00  0.00     0.243 C 
ATOM     30  O   PRO d   1      69.444  58.519  53.729  0.00  0.00    -0.271 OA
ATOM     31  N   PRO d   1      68.852  57.995  55.842  0.00  0.00    -0.337 N 
ATOM     32  CA  PRO d   1      67.808  57.086  55.381  0.00  0.00     0.092 C 
ATOM     33  CD  PRO d   1      69.040  57.929  57.304  0.00  0.00    -0.001 C 
ATOM     34  CB  PRO d   1      67.716  56.075  56.525  0.00  0.00    -0.036 C 
ATOM     35  H45 PRO d   1      68.084  56.598  54.434  0.00  0.00     0.087 H 
ATOM     36  CG  PRO d   1      68.003  56.905  57.746  0.00  0.00    -0.048 C 
ATOM     37  H46 PRO d   1      68.464  55.277  56.407  0.00  0.00     0.036 H 
ATOM     38  H47 PRO d   1      66.711  55.631  56.578  0.00  0.00     0.036 H 
ATOM     39  H48 PRO d   1      68.404  56.275  58.554  0.00  0.00     0.035 H 
ATOM     40  H49 PRO d   1      67.089  57.408  58.093  0.00  0.00     0.035 H 
ATOM     41  H50 PRO d   1      68.851  58.907  57.770  0.00  0.00     0.064 H 
ATOM     42  H51 PRO d   1      70.057  57.593  57.556  0.00  0.00     0.064 H 
BRANCH  32  43
ATOM     43  C   PRO d   1      66.491  57.842  55.215  0.00  0.00     0.243 C 
ATOM     44  O   PRO d   1      66.304  58.915  55.794  0.00  0.00    -0.271 OA
ATOM     45  N   PRO d   1      65.572  57.275  54.430  0.00  0.00    -0.337 N 
ATOM     46  CA  PRO d   1      64.245  57.865  54.290  0.00  0.00     0.092 C 
ATOM     47  CD  PRO d   1      65.700  56.007  53.691  0.00  0.00    -0.001 C 
ATOM     48  CB  PRO d   1      63.603  56.994  53.206  0.00  0.00    -0.036 C 
ATOM     49  H52 PRO d   1      64.299  58.919  53.981  0.00  0.00     0.087 H 
ATOM     50  CG  PRO d   1      64.284  55.687  53.315  0.00  0.00    -0.048 C 
ATOM     51  H53 PRO d   1      63.765  57.433  52.211  0.00  0.00     0.036 H 
ATOM     52  H54 PRO d   1      62.524  56.884  53.387  0.00  0.00     0.036 H 
ATOM     53  H55 PRO d   1      64.252  55.155  52.353  0.00  0.00     0.035 H 
ATOM     54  H56 PRO d   1      63.810  55.069  54.092  0.00  0.00     0.035 H 
ATOM     55  H57 PRO d   1      66.126  55.219  54.330  0.00  0.00     0.064 H 
ATOM     56  H58 PRO d   1      66.327  56.133  52.796  0.00  0.00     0.064 H 
BRANCH  46  57
ATOM     57  C   PRO d   1      63.479  57.742  55.600  0.00  0.00     0.243 C 
ATOM     58  O   PRO d   1      63.414  56.646  56.163  0.00  0.00    -0.271 OA
ATOM     59  N   PRO d   1      62.928  58.860  56.104  0.00  0.00    -0.336 N 
ATOM     60  CA  PRO d   1      62.126  58.791  57.328  0.00  0.00     0.098 C 
ATOM     61  CD  PRO d   1      63.131  60.244  55.649  0.00  0.00    -0.001 C 
ATOM     62  CB  PRO d   1      61.706  60.249  57.561  0.00  0.00    -0.035 C 
ATOM     63  H59 PRO d   1      62.709  58.397  58.173  0.00  0.00     0.089 H 
ATOM     64  CG  PRO d   1      62.708  61.057  56.837  0.00  0.00    -0.048 C 
ATOM     65  H60 PRO d   1      61.719  60.488  58.635  0.00  0.00     0.036 H 
ATOM     66  H61 PRO d   1      60.699  60.430  57.157  0.00  0.00     0.036 H 
ATOM     67  H62 PRO d   1      63.573  61.261  57.486  0.00  0.00     0.035 H 
ATOM     68  H63 PRO d   1      62.264  62.008  56.508  0.00  0.00     0.035 H 
ATOM     69  H64 PRO d   1      62.504  60.468  54.773  0.00  0.00     0.064 H 
ATOM     70  H65 PRO d   1      64.187  60.427  55.401  0.00  0.00     0.064 H 
BRANCH  60  71
ATOM     71  C   PRO d   1      60.893  57.932  57.089  0.00  0.00     0.196 C 
ATOM     72  O   PRO d   1      60.417  57.861  55.952  0.00  0.00    -0.646 OA
ATOM     73  OXT PRO d   1      60.353  57.305  58.006  0.00  0.00    -0.646 OA
ENDBRANCH  60  71
ENDBRANCH  46  57
ENDBRANCH  32  43
ENDBRANCH  18  29
ENDBRANCH   4  15
BRANCH   1  74
ATOM     74  CA  PRO d   1      75.349  55.041  56.564  0.00  0.00     0.092 C 
ATOM     75  N   PRO d   1      76.033  55.147  57.857  0.00  0.00    -0.337 N 
ATOM     76  C   PRO d   1      77.020  56.038  58.029  0.00  0.00     0.243 C 
ATOM     77  CD  PRO d   1      75.596  54.114  58.817  0.00  0.00    -0.001 C 
ATOM     78  O   PRO d   1      77.532  56.670  57.104  0.00  0.00    -0.271 OA
ATOM     79  CG  PRO d   1      74.820  53.149  57.959  0.00  0.00    -0.048 C 
ATOM     80  H29 PRO d   1      74.956  54.548  59.599  0.00  0.00     0.064 H 
ATOM     81  H30 PRO d   1      76.460  53.619  59.284  0.00  0.00     0.064 H 
ATOM     82  CB  PRO d   1      74.262  53.989  56.830  0.00  0.00    -0.036 C 
ATOM     83  H27 PRO d   1      75.482  52.363  57.566  0.00  0.00     0.035 H 
ATOM     84  H28 PRO d   1      74.005  52.687  58.536  0.00  0.00     0.035 H 
ATOM     85  H25 PRO d   1      74.089  53.373  55.935  0.00  0.00     0.036 H 
ATOM     86  H26 PRO d   1      73.320  54.470  57.132  0.00  0.00     0.036 H 
ATOM     87  H24 PRO d   1      76.037  54.722  55.767  0.00  0.00     0.087 H 
BRANCH  76  88
ATOM     88  CA  PRO d   1      77.525  56.246  59.445  0.00  0.00     0.092 C 
ATOM     89  N   PRO d   1      78.793  56.976  59.417  0.00  0.00    -0.337 N 
ATOM     90  C   PRO d   1      79.854  56.350  58.883  0.00  0.00     0.243 C 
ATOM     91  CD  PRO d   1      78.695  58.288  60.079  0.00  0.00    -0.001 C 
ATOM     92  O   PRO d   1      79.855  55.156  58.587  0.00  0.00    -0.271 OA
ATOM     93  CG  PRO d   1      77.223  58.542  60.103  0.00  0.00    -0.048 C 
ATOM     94  H22 PRO d   1      79.221  59.063  59.502  0.00  0.00     0.064 H 
ATOM     95  H23 PRO d   1      79.106  58.248  61.099  0.00  0.00     0.064 H 
ATOM     96  CB  PRO d   1      76.581  57.198  60.198  0.00  0.00    -0.036 C 
ATOM     97  H20 PRO d   1      76.954  59.157  60.974  0.00  0.00     0.035 H 
ATOM     98  H21 PRO d   1      76.907  59.053  59.182  0.00  0.00     0.035 H 
ATOM     99  H18 PRO d   1      76.482  56.891  61.250  0.00  0.00     0.036 H 
ATOM    100  H19 PRO d   1      75.588  57.211  59.725  0.00  0.00     0.036 H 
ATOM    101  H17 PRO d   1      77.624  55.280  59.962  0.00  0.00     0.087 H 
BRANCH  90 102
ATOM    102  CA  PRO d   1      81.105  57.169  58.632  0.00  0.00     0.092 C 
ATOM    103  N   PRO d   1      82.182  56.299  58.154  0.00  0.00    -0.337 N 
ATOM    104  C   PRO d   1      82.760  55.421  58.991  0.00  0.00     0.251 C 
ATOM    105  CD  PRO d   1      82.440  56.496  56.716  0.00  0.00    -0.001 C 
ATOM    106  O   PRO d   1      82.433  55.306  60.175  0.00  0.00    -0.271 OA
ATOM    107  CG  PRO d   1      81.241  57.262  56.264  0.00  0.00    -0.048 C 
ATOM    108  H15 PRO d   1      82.514  55.532  56.192  0.00  0.00     0.064 H 
ATOM    109  H16 PRO d   1      83.362  57.073  56.555  0.00  0.00     0.064 H 
ATOM    110  CB  PRO d   1      80.864  58.091  57.436  0.00  0.00    -0.036 C 
ATOM    111  H13 PRO d   1      81.489  57.898  55.402  0.00  0.00     0.035 H 
ATOM    112  H14 PRO d   1      80.423  56.578  55.992  0.00  0.00     0.035 H 
ATOM    113  H11 PRO d   1      81.497  58.989  57.500  0.00  0.00     0.036 H 
ATOM    114  H12 PRO d   1      79.807  58.391  57.380  0.00  0.00     0.036 H 
ATOM    115  H10 PRO d   1      81.394  57.726  59.535  0.00  0.00     0.087 H 
BRANCH 104 116
ATOM    116  CA  PRO d   1      83.874  54.535  58.435  0.00  0.00     0.178 C 
ATOM    117  N   PRO d   1      84.597  53.896  59.535  0.00  0.00    -0.062 N 
ATOM    118  CD  PRO d   1      84.081  52.542  59.811  0.00  0.00     0.083 C 
ATOM    119  H1  PRO d   1      84.495  54.460  60.364  0.00  0.00     0.278 HD
ATOM    120  H2  PRO d   1      85.573  53.831  59.291  0.00  0.00     0.278 HD
ATOM    121  CG  PRO d   1      83.015  52.348  58.760  0.00  0.00    -0.040 C 
ATOM    122  H8  PRO d   1      83.651  52.484  60.822  0.00  0.00     0.075 H 
ATOM    123  H9  PRO d   1      84.877  51.790  59.707  0.00  0.00     0.075 H 
ATOM    124  CB  PRO d   1      83.290  53.337  57.685  0.00  0.00    -0.028 C 
ATOM    125  H6  PRO d   1      83.062  51.326  58.356  0.00  0.00     0.035 H 
ATOM    126  H7  PRO d   1      82.019  52.525  59.193  0.00  0.00     0.035 H 
ATOM    127  H4  PRO d   1      84.014  52.937  56.960  0.00  0.00     0.036 H 
ATOM    128  H5  PRO d   1      82.363  53.615  57.162  0.00  0.00     0.036 H 
ATOM    129  H3  PRO d   1      84.544  55.127  57.794  0.00  0.00     0.099 H 
ENDBRANCH 104 116
ENDBRANCH  90 102
ENDBRANCH  76  88
ENDBRANCH   1  74
TORSDOF 9
