REMARK  13 active torsions:
REMARK  status: ('A' for Active; 'I' for Inactive)
REMARK    1  A    between atoms: C32_6  and  C31_7 
REMARK       I    between atoms: C31_7  and  N30_9 
REMARK    2  A    between atoms: N30_9  and  C22_10 
REMARK    3  A    between atoms: C22_10  and  C19_11 
REMARK    4  A    between atoms: C19_11  and  C20_12 
REMARK    5  A    between atoms: C19_11  and  N18_22 
REMARK       I    between atoms: C20_12  and  N21_14 
REMARK    6  A    between atoms: C24_18  and  N27_19 
REMARK    7  A    between atoms: N27_19  and  C29_20 
REMARK    8  A    between atoms: N27_19  and  C28_21 
REMARK    9  A    between atoms: N18_22  and  S17_23 
REMARK   10  A    between atoms: S17_23  and  C9_26 
REMARK   11  A    between atoms: C8_27  and  O13_28 
REMARK   12  A    between atoms: O13_28  and  C14_29 
REMARK   13  A    between atoms: C7_35  and  N3_36 
ROOT
ATOM      1  C19 7R9 d   1      36.137 -26.106 -39.224  0.00  0.00     0.112 C 
ATOM      2  H6  7R9 d   1      37.174 -26.474 -39.216  0.00  0.00     0.091 H 
ENDROOT
BRANCH   1   3
ATOM      3  C22 7R9 d   1      35.654 -25.992 -40.682  0.00  0.00     0.023 C 
ATOM      4  H4  7R9 d   1      36.377 -25.381 -41.243  0.00  0.00     0.068 H 
ATOM      5  H5  7R9 d   1      35.613 -27.002 -41.116  0.00  0.00     0.068 H 
BRANCH   3   6
ATOM      6  N30 7R9 d   1      34.316 -25.371 -40.807  0.00  0.00    -0.354 N 
ATOM      7  C31 7R9 d   1      34.197 -24.058 -41.031  0.00  0.00     0.258 C 
ATOM      8  O42 7R9 d   1      35.165 -23.302 -41.094  0.00  0.00    -0.267 OA
ATOM      9  H3  7R9 d   1      33.496 -25.937 -40.723  0.00  0.00     0.162 HD
BRANCH   7  10
ATOM     10  C32 7R9 d   1      32.792 -23.491 -41.199  0.00  0.00     0.074 A 
ATOM     11  C36 7R9 d   1      31.674 -24.175 -41.465  0.00  0.00    -0.059 A 
ATOM     12  C35 7R9 d   1      30.571 -23.402 -41.574  0.00  0.00    -0.054 A 
ATOM     13  H1  7R9 d   1      31.654 -25.257 -41.583  0.00  0.00     0.086 H 
ATOM     14  C34 7R9 d   1      30.799 -22.094 -41.408  0.00  0.00     0.075 A 
ATOM     15  H2  7R9 d   1      29.582 -23.808 -41.779  0.00  0.00     0.086 H 
ATOM     16 CL   7R9 d   1      29.607 -20.851 -41.484  0.00  0.00    -0.076 Cl
ATOM     17  S33 7R9 d   1      32.420 -21.845 -41.113  0.00  0.00    -0.072 SA
ENDBRANCH   7  10
ENDBRANCH   3   6
ENDBRANCH   1   3
BRANCH   1  18
ATOM     18  C20 7R9 d   1      36.096 -24.741 -38.532  0.00  0.00     0.244 C 
ATOM     19  O41 7R9 d   1      35.074 -24.341 -37.975  0.00  0.00    -0.271 OA
ATOM     20  N21 7R9 d   1      37.180 -23.967 -38.546  0.00  0.00    -0.348 N 
ATOM     21  C23 7R9 d   1      38.456 -24.329 -39.182  0.00  0.00     0.025 C 
ATOM     22  C26 7R9 d   1      37.258 -22.636 -37.923  0.00  0.00    -0.000 C 
ATOM     23  C24 7R9 d   1      39.454 -23.469 -38.419  0.00  0.00     0.120 C 
ATOM     24  H7  7R9 d   1      38.452 -24.079 -40.253  0.00  0.00     0.067 H 
ATOM     25  H8  7R9 d   1      38.675 -25.400 -39.056  0.00  0.00     0.067 H 
ATOM     26  C25 7R9 d   1      38.681 -22.169 -38.231  0.00  0.00    -0.022 C 
ATOM     27  H13 7R9 d   1      39.730 -23.921 -37.455  0.00  0.00     0.087 H 
ATOM     28  H11 7R9 d   1      39.092 -21.585 -37.394  0.00  0.00     0.038 H 
ATOM     29  H12 7R9 d   1      38.705 -21.562 -39.148  0.00  0.00     0.038 H 
ATOM     30  H9  7R9 d   1      37.094 -22.702 -36.837  0.00  0.00     0.064 H 
ATOM     31  H10 7R9 d   1      36.518 -21.953 -38.365  0.00  0.00     0.064 H 
BRANCH  23  32
ATOM     32  N27 7R9 d   1      40.659 -23.247 -39.237  0.00  0.00    -0.073 N 
ATOM     33  H14 7R9 d   1      40.378 -23.042 -40.183  0.00  0.00     0.279 HD
BRANCH  32  34
ATOM     34  C29 7R9 d   1      41.443 -22.119 -38.710  0.00  0.00     0.066 C 
ATOM     35  H15 7R9 d   1      42.337 -21.970 -39.334  0.00  0.00     0.068 H 
ATOM     36  H16 7R9 d   1      41.750 -22.337 -37.676  0.00  0.00     0.068 H 
ATOM     37  H17 7R9 d   1      40.829 -21.206 -38.726  0.00  0.00     0.068 H 
ENDBRANCH  32  34
BRANCH  32  38
ATOM     38  C28 7R9 d   1      41.504 -24.456 -39.231  0.00  0.00     0.066 C 
ATOM     39  H18 7R9 d   1      40.928 -25.308 -39.623  0.00  0.00     0.068 H 
ATOM     40  H19 7R9 d   1      41.825 -24.674 -38.202  0.00  0.00     0.068 H 
ATOM     41  H20 7R9 d   1      42.388 -24.288 -39.864  0.00  0.00     0.068 H 
ENDBRANCH  32  38
ENDBRANCH  23  32
ENDBRANCH   1  18
BRANCH   1  42
ATOM     42  N18 7R9 d   1      35.279 -27.071 -38.520  0.00  0.00    -0.300 N 
ATOM     43  H21 7R9 d   1      34.291 -27.140 -38.658  0.00  0.00     0.173 HD
BRANCH  42  44
ATOM     44  S17 7R9 d   1      36.116 -28.013 -37.492  0.00  0.00     0.262 S 
ATOM     45  O38 7R9 d   1      35.151 -28.965 -36.852  0.00  0.00    -0.200 OA
ATOM     46  O39 7R9 d   1      37.154 -28.787 -38.241  0.00  0.00    -0.200 OA
BRANCH  44  47
ATOM     47  C9  7R9 d   1      36.904 -27.013 -36.284  0.00  0.00     0.115 A 
ATOM     48  C8  7R9 d   1      36.166 -26.396 -35.274  0.00  0.00     0.125 A 
ATOM     49  C7  7R9 d   1      36.823 -25.599 -34.332  0.00  0.00     0.072 A 
ATOM     50  C12 7R9 d   1      38.203 -25.424 -34.397  0.00  0.00    -0.054 A 
ATOM     51  C11 7R9 d   1      38.938 -26.042 -35.405  0.00  0.00    -0.079 A 
ATOM     52  H25 7R9 d   1      38.706 -24.806 -33.662  0.00  0.00     0.087 H 
ATOM     53  C10 7R9 d   1      38.286 -26.833 -36.350  0.00  0.00    -0.057 A 
ATOM     54  H24 7R9 d   1      40.013 -25.909 -35.455  0.00  0.00     0.083 H 
ATOM     55  H23 7R9 d   1      38.855 -27.310 -37.139  0.00  0.00     0.086 H 
BRANCH  48  56
ATOM     56  O13 7R9 d   1      34.809 -26.562 -35.229  0.00  0.00    -0.286 OA
BRANCH  56  57
ATOM     57  C14 7R9 d   1      34.336 -27.415 -34.178  0.00  0.00     0.310 C 
ATOM     58  F16 7R9 d   1      33.007 -27.332 -34.182  0.00  0.00    -0.184 F 
ATOM     59  F15 7R9 d   1      34.588 -28.712 -34.408  0.00  0.00    -0.184 F 
ATOM     60  H22 7R9 d   1      34.764 -27.102 -33.214  0.00  0.00     0.195 H 
ENDBRANCH  56  57
ENDBRANCH  48  56
BRANCH  49  61
ATOM     61  N3  7R9 d   1      36.112 -24.958 -33.306  0.00  0.00    -0.315 N 
ATOM     62  C2  7R9 d   1      35.311 -23.761 -33.653  0.00  0.00     0.003 C 
ATOM     63  C1  7R9 d   1      35.147 -22.850 -32.448  0.00  0.00    -0.049 C 
ATOM     64  H26 7R9 d   1      34.318 -24.081 -34.000  0.00  0.00     0.065 H 
ATOM     65  H27 7R9 d   1      35.820 -23.208 -34.456  0.00  0.00     0.065 H 
ATOM     66  C6  7R9 d   1      34.512 -23.635 -31.310  0.00  0.00    -0.056 C 
ATOM     67  H28 7R9 d   1      34.501 -22.000 -32.714  0.00  0.00     0.035 H 
ATOM     68  H29 7R9 d   1      36.132 -22.477 -32.132  0.00  0.00     0.035 H 
ATOM     69  C5  7R9 d   1      35.427 -24.775 -30.840  0.00  0.00     0.010 C 
ATOM     70  H30 7R9 d   1      33.559 -24.061 -31.656  0.00  0.00     0.033 H 
ATOM     71  H31 7R9 d   1      34.325 -22.955 -30.466  0.00  0.00     0.033 H 
ATOM     72  C4  7R9 d   1      36.173 -25.451 -31.992  0.00  0.00     0.224 C 
ATOM     73  H32 7R9 d   1      34.813 -25.530 -30.328  0.00  0.00     0.047 H 
ATOM     74  H33 7R9 d   1      36.166 -24.365 -30.136  0.00  0.00     0.047 H 
ATOM     75  O40 7R9 d   1      36.855 -26.441 -31.745  0.00  0.00    -0.273 OA
ENDBRANCH  49  61
ENDBRANCH  44  47
ENDBRANCH  42  44
ENDBRANCH   1  42
TORSDOF 13
