REMARK  12 active torsions:
REMARK  status: ('A' for Active; 'I' for Inactive)
REMARK    1  A    between atoms: C03_4  and  S02_3 
REMARK    2  A    between atoms: S02_3  and  N20_20 
REMARK    3  A    between atoms: O09_10  and  C08_9 
REMARK    4  A    between atoms: C10_11  and  O09_10 
REMARK    5  A    between atoms: C11_12  and  N12_13 
REMARK    6  A    between atoms: N20_20  and  C21_21 
REMARK    7  A    between atoms: C21_21  and  C22_22 
REMARK    8  A    between atoms: C22_22  and  N23_23 
REMARK    9  A    between atoms: N23_23  and  C24_24 
REMARK   10  A    between atoms: N23_23  and  C26_26 
REMARK   11  A    between atoms: C24_24  and  C25_25 
REMARK   12  A    between atoms: C26_26  and  C27_27 
ROOT
ATOM      1  O01 5GZ d   1      27.623  18.960  11.765  0.00  0.00    -0.201 OA
ATOM      2  S02 5GZ d   1      29.021  18.892  12.020  0.00  0.00     0.258 S 
ATOM      3  O28 5GZ d   1      29.628  17.616  11.970  0.00  0.00    -0.201 OA
ENDROOT
BRANCH   2   4
ATOM      4  C03 5GZ d   1      29.795  19.915  10.899  0.00  0.00     0.079 A 
ATOM      5  C04 5GZ d   1      31.169  19.996  10.722  0.00  0.00    -0.058 A 
ATOM      6  C05 5GZ d   1      31.798  20.830   9.828  0.00  0.00    -0.049 A 
ATOM      7  H1  5GZ d   1      31.793  19.354  11.334  0.00  0.00     0.086 H 
ATOM      8  C08 5GZ d   1      31.050  21.687   9.047  0.00  0.00     0.076 A 
ATOM      9  H2  5GZ d   1      32.878  20.814   9.737  0.00  0.00     0.087 H 
ATOM     10  C07 5GZ d   1      29.658  21.669   9.180  0.00  0.00    -0.049 A 
ATOM     11  C06 5GZ d   1      29.068  20.793  10.101  0.00  0.00    -0.058 A 
ATOM     12  H4  5GZ d   1      29.042  22.326   8.577  0.00  0.00     0.087 H 
ATOM     13  H3  5GZ d   1      27.988  20.800  10.197  0.00  0.00     0.086 H 
BRANCH   8  14
ATOM     14  O09 5GZ d   1      31.656  22.516   8.158  0.00  0.00    -0.307 OA
BRANCH  14  15
ATOM     15  C10 5GZ d   1      32.997  22.822   8.235  0.00  0.00     0.130 A 
ATOM     16  C11 5GZ d   1      33.891  22.436   7.243  0.00  0.00     0.138 A 
ATOM     17  C15 5GZ d   1      35.242  22.790   7.288  0.00  0.00    -0.048 A 
ATOM     18  C16 5GZ d   1      35.717  23.561   8.341  0.00  0.00    -0.079 A 
ATOM     19  H5  5GZ d   1      35.916  22.464   6.504  0.00  0.00     0.087 H 
ATOM     20  C17 5GZ d   1      34.848  23.976   9.341  0.00  0.00    -0.059 A 
ATOM     21  H6  5GZ d   1      36.764  23.838   8.382  0.00  0.00     0.083 H 
ATOM     22  C18 5GZ d   1      33.513  23.614   9.269  0.00  0.00     0.070 A 
ATOM     23  H7  5GZ d   1      35.210  24.576  10.168  0.00  0.00     0.086 H 
ATOM     24 CL   5GZ d   1      32.509  24.139  10.494  0.00  0.00    -0.081 Cl
BRANCH  16  25
ATOM     25  N12 5GZ d   1      33.487  21.547   6.148  0.00  0.00    -0.113 N 
ATOM     26  O13 5GZ d   1      34.156  21.586   5.128  0.00  0.00    -0.532 OA
ATOM     27  O14 5GZ d   1      32.538  20.795   6.320  0.00  0.00    -0.532 OA
ENDBRANCH  16  25
ENDBRANCH  14  15
ENDBRANCH   8  14
ENDBRANCH   2   4
BRANCH   2  28
ATOM     28  N20 5GZ d   1      29.234  19.502  13.548  0.00  0.00    -0.314 N 
ATOM     29  H8  5GZ d   1      29.852  19.035  14.181  0.00  0.00     0.172 HD
BRANCH  28  30
ATOM     30  C21 5GZ d   1      28.518  20.741  14.000  0.00  0.00     0.025 C 
ATOM     31  H9  5GZ d   1      28.391  21.383  13.116  0.00  0.00     0.067 H 
ATOM     32  H10 5GZ d   1      29.170  21.245  14.729  0.00  0.00     0.067 H 
BRANCH  30  33
ATOM     33  C22 5GZ d   1      27.106  20.591  14.669  0.00  0.00     0.098 C 
ATOM     34  H11 5GZ d   1      26.501  21.472  14.409  0.00  0.00     0.078 H 
ATOM     35  H12 5GZ d   1      27.239  20.547  15.760  0.00  0.00     0.078 H 
BRANCH  33  36
ATOM     36  N23 5GZ d   1      26.351  19.328  14.217  0.00  0.00    -0.070 N 
ATOM     37  H13 5GZ d   1      26.860  18.859  13.485  0.00  0.00     0.279 HD
BRANCH  36  38
ATOM     38  C24 5GZ d   1      26.176  18.417  15.401  0.00  0.00     0.080 C 
ATOM     39  H14 5GZ d   1      25.248  17.844  15.256  0.00  0.00     0.075 H 
ATOM     40  H15 5GZ d   1      26.084  19.042  16.301  0.00  0.00     0.075 H 
BRANCH  38  41
ATOM     41  C25 5GZ d   1      27.304  17.433  15.626  0.00  0.00    -0.053 C 
ATOM     42  H16 5GZ d   1      27.082  16.817  16.510  0.00  0.00     0.029 H 
ATOM     43  H17 5GZ d   1      28.243  17.983  15.789  0.00  0.00     0.029 H 
ATOM     44  H18 5GZ d   1      27.407  16.785  14.743  0.00  0.00     0.029 H 
ENDBRANCH  38  41
ENDBRANCH  36  38
BRANCH  36  45
ATOM     45  C26 5GZ d   1      24.990  19.734  13.732  0.00  0.00     0.080 C 
ATOM     46  H19 5GZ d   1      24.467  20.251  14.550  0.00  0.00     0.075 H 
ATOM     47  H20 5GZ d   1      24.432  18.827  13.455  0.00  0.00     0.075 H 
BRANCH  45  48
ATOM     48  C27 5GZ d   1      25.038  20.660  12.526  0.00  0.00    -0.053 C 
ATOM     49  H21 5GZ d   1      24.013  20.919  12.222  0.00  0.00     0.029 H 
ATOM     50  H22 5GZ d   1      25.550  20.153  11.695  0.00  0.00     0.029 H 
ATOM     51  H23 5GZ d   1      25.585  21.577  12.790  0.00  0.00     0.029 H 
ENDBRANCH  45  48
ENDBRANCH  36  45
ENDBRANCH  33  36
ENDBRANCH  30  33
ENDBRANCH  28  30
ENDBRANCH   2  28
TORSDOF 12
