REMARK  5 active torsions:
REMARK  status: ('A' for Active; 'I' for Inactive)
REMARK    1  A    between atoms: O2_3  and  C1_2 
REMARK    2  A    between atoms: C3_4  and  O2_3 
REMARK    3  A    between atoms: C5_6  and  C3_4 
REMARK    4  A    between atoms: C7_8  and  N12_12 
REMARK    5  A    between atoms: N12_12  and  C13_13 
ROOT
ATOM      1 BR   F8E d   1      -7.255   9.783 -32.219  0.00  0.00    -0.050 Br
ATOM      2  C5  F8E d   1      -5.083   7.875 -31.680  0.00  0.00     0.059 A 
ATOM      3  C6  F8E d   1      -4.298   6.811 -32.086  0.00  0.00    -0.040 A 
ATOM      4  C7  F8E d   1      -4.470   6.242 -33.333  0.00  0.00     0.034 A 
ATOM      5  C8  F8E d   1      -5.412   6.753 -34.199  0.00  0.00    -0.056 A 
ATOM      6  C9  F8E d   1      -6.207   7.797 -33.812  0.00  0.00    -0.063 A 
ATOM      7  C10 F8E d   1      -6.046   8.356 -32.562  0.00  0.00     0.027 A 
ATOM      8  H4  F8E d   1      -3.539   6.419 -31.418  0.00  0.00     0.088 H 
ATOM      9  H5  F8E d   1      -5.524   6.327 -35.189  0.00  0.00     0.087 H 
ATOM     10  H6  F8E d   1      -6.962   8.184 -34.487  0.00  0.00     0.085 H 
ENDROOT
BRANCH   4  11
ATOM     11  N12 F8E d   1      -3.648   5.180 -33.717  0.00  0.00    -0.340 N 
ATOM     12  H7  F8E d   1      -2.708   5.133 -33.299  0.00  0.00     0.167 HD
BRANCH  11  13
ATOM     13  C13 F8E d   1      -4.003   4.167 -34.632  0.00  0.00     0.143 A 
ATOM     14  C14 F8E d   1      -3.066   3.183 -34.906  0.00  0.00     0.057 A 
ATOM     15  C15 F8E d   1      -1.742   2.901 -34.474  0.00  0.00    -0.051 A 
ATOM     16  C19 F8E d   1      -3.429   2.192 -35.798  0.00  0.00     0.142 A 
ATOM     17  C16 F8E d   1      -1.342   1.751 -35.116  0.00  0.00    -0.020 A 
ATOM     18  H8  F8E d   1      -1.154   3.485 -33.767  0.00  0.00     0.087 H 
ATOM     19  N17 F8E d   1      -2.371   1.328 -35.914  0.00  0.00    -0.350 N 
ATOM     20  H9  F8E d   1      -0.375   1.262 -35.008  0.00  0.00     0.111 H 
ATOM     21  H10 F8E d   1      -2.353   0.488 -36.511  0.00  0.00     0.166 HD
ATOM     22  N20 F8E d   1      -4.609   2.085 -36.423  0.00  0.00    -0.223 NA
ATOM     23  C21 F8E d   1      -5.438   3.076 -36.090  0.00  0.00     0.091 A 
ATOM     24  N22 F8E d   1      -5.199   4.084 -35.250  0.00  0.00    -0.223 NA
ATOM     25  H11 F8E d   1      -6.417   3.060 -36.555  0.00  0.00     0.146 H 
ENDBRANCH  11  13
ENDBRANCH   4  11
BRANCH   2  26
ATOM     26  C3  F8E d   1      -4.845   8.466 -30.335  0.00  0.00     0.294 C 
ATOM     27  O4  F8E d   1      -5.388   9.472 -29.905  0.00  0.00    -0.259 OA
BRANCH  26  28
ATOM     28  O2  F8E d   1      -3.896   7.747 -29.661  0.00  0.00    -0.322 OA
BRANCH  28  29
ATOM     29  C1  F8E d   1      -3.357   8.487 -28.563  0.00  0.00     0.013 C 
ATOM     30  H1  F8E d   1      -2.600   7.878 -28.047  0.00  0.00     0.067 H 
ATOM     31  H2  F8E d   1      -4.164   8.741 -27.860  0.00  0.00     0.067 H 
ATOM     32  H3  F8E d   1      -2.892   9.411 -28.937  0.00  0.00     0.067 H 
ENDBRANCH  28  29
ENDBRANCH  26  28
ENDBRANCH   2  26
TORSDOF 5
