REMARK  12 active torsions:
REMARK  status: ('A' for Active; 'I' for Inactive)
REMARK    1  A    between atoms: C33_6  and  C31_7 
REMARK    2  A    between atoms: C28_11  and  C27_12 
REMARK    3  A    between atoms: C27_12  and  C17_13 
REMARK    4  A    between atoms: C17_13  and  C18_14 
REMARK    5  A    between atoms: C17_13  and  N16_24 
REMARK       I    between atoms: C18_14  and  N19_16 
REMARK    6  A    between atoms: C22_19  and  O25_20 
REMARK    7  A    between atoms: O25_20  and  C26_21 
REMARK    8  A    between atoms: N16_24  and  S15_25 
REMARK    9  A    between atoms: S15_25  and  C9_28 
REMARK   10  A    between atoms: C8_29  and  C13_30 
REMARK   11  A    between atoms: C13_30  and  C14_31 
REMARK   12  A    between atoms: C7_35  and  N3_36 
ROOT
ATOM      1  C17 VYR d   1      36.674 -26.825 -39.809  0.00  0.00     0.102 C 
ATOM      2  H6  VYR d   1      37.661 -27.304 -39.730  0.00  0.00     0.089 H 
ENDROOT
BRANCH   1   3
ATOM      3  C27 VYR d   1      36.302 -26.808 -41.307  0.00  0.00     0.005 C 
ATOM      4  H4  VYR d   1      37.198 -27.078 -41.886  0.00  0.00     0.046 H 
ATOM      5  H5  VYR d   1      35.517 -27.560 -41.474  0.00  0.00     0.046 H 
BRANCH   3   6
ATOM      6  C28 VYR d   1      35.789 -25.461 -41.822  0.00  0.00     0.067 A 
ATOM      7  C32 VYR d   1      34.535 -25.009 -41.728  0.00  0.00    -0.021 A 
ATOM      8  C31 VYR d   1      34.474 -23.812 -42.303  0.00  0.00     0.120 A 
ATOM      9  H3  VYR d   1      33.703 -25.533 -41.259  0.00  0.00     0.091 H 
ATOM     10  O30 VYR d   1      35.711 -23.464 -42.743  0.00  0.00    -0.212 OA
ATOM     11  N29 VYR d   1      36.541 -24.546 -42.428  0.00  0.00    -0.133 NA
BRANCH   8  12
ATOM     12  C33 VYR d   1      33.400 -22.939 -42.404  0.00  0.00     0.042 A 
ATOM     13  C34 VYR d   1      33.396 -21.636 -42.105  0.00  0.00    -0.061 A 
ATOM     14  C35 VYR d   1      32.211 -21.020 -42.249  0.00  0.00    -0.054 A 
ATOM     15  H1  VYR d   1      34.289 -21.112 -41.769  0.00  0.00     0.085 H 
ATOM     16  C36 VYR d   1      31.248 -21.799 -42.734  0.00  0.00     0.075 A 
ATOM     17  H2  VYR d   1      32.053 -19.974 -41.991  0.00  0.00     0.086 H 
ATOM     18 CL   VYR d   1      29.640 -21.261 -43.058  0.00  0.00    -0.076 Cl
ATOM     19  S37 VYR d   1      31.854 -23.352 -42.936  0.00  0.00    -0.075 SA
ENDBRANCH   8  12
ENDBRANCH   3   6
ENDBRANCH   1   3
BRANCH   1  20
ATOM     20  C18 VYR d   1      36.804 -25.424 -39.152  0.00  0.00     0.243 C 
ATOM     21  O43 VYR d   1      35.786 -24.877 -38.721  0.00  0.00    -0.271 OA
ATOM     22  N19 VYR d   1      38.006 -24.831 -38.949  0.00  0.00    -0.350 N 
ATOM     23  C20 VYR d   1      38.089 -23.504 -38.257  0.00  0.00    -0.000 C 
ATOM     24  C24 VYR d   1      39.298 -25.441 -39.405  0.00  0.00    -0.000 C 
ATOM     25  C21 VYR d   1      38.747 -22.446 -39.163  0.00  0.00    -0.026 C 
ATOM     26  H7  VYR d   1      38.687 -23.614 -37.340  0.00  0.00     0.064 H 
ATOM     27  H8  VYR d   1      37.074 -23.171 -37.995  0.00  0.00     0.064 H 
ATOM     28  C22 VYR d   1      39.901 -23.002 -40.058  0.00  0.00     0.041 C 
ATOM     29  H9  VYR d   1      39.158 -21.651 -38.524  0.00  0.00     0.039 H 
ATOM     30  H10 VYR d   1      37.972 -22.024 -39.820  0.00  0.00     0.039 H 
ATOM     31  C23 VYR d   1      40.003 -24.519 -40.419  0.00  0.00    -0.026 C 
ATOM     32  H11 VYR d   1      39.650 -22.563 -41.035  0.00  0.00     0.083 H 
ATOM     33  H15 VYR d   1      41.067 -24.796 -40.461  0.00  0.00     0.039 H 
ATOM     34  H16 VYR d   1      39.545 -24.673 -41.407  0.00  0.00     0.039 H 
ATOM     35  H17 VYR d   1      39.092 -26.411 -39.880  0.00  0.00     0.064 H 
ATOM     36  H18 VYR d   1      39.954 -25.591 -38.535  0.00  0.00     0.064 H 
BRANCH  28  37
ATOM     37  O25 VYR d   1      41.179 -22.412 -39.753  0.00  0.00    -0.391 OA
BRANCH  37  38
ATOM     38  C26 VYR d   1      41.561 -21.490 -40.790  0.00  0.00     0.004 C 
ATOM     39  H12 VYR d   1      42.538 -21.047 -40.545  0.00  0.00     0.066 H 
ATOM     40  H13 VYR d   1      40.806 -20.694 -40.869  0.00  0.00     0.066 H 
ATOM     41  H14 VYR d   1      41.631 -22.025 -41.749  0.00  0.00     0.066 H 
ENDBRANCH  37  38
ENDBRANCH  28  37
ENDBRANCH   1  20
BRANCH   1  42
ATOM     42  N16 VYR d   1      35.708 -27.659 -39.069  0.00  0.00    -0.301 N 
ATOM     43  H19 VYR d   1      34.726 -27.670 -39.257  0.00  0.00     0.173 HD
BRANCH  42  44
ATOM     44  S15 VYR d   1      36.425 -28.570 -37.900  0.00  0.00     0.260 S 
ATOM     45  O40 VYR d   1      35.406 -29.499 -37.308  0.00  0.00    -0.200 OA
ATOM     46  O41 VYR d   1      37.506 -29.418 -38.510  0.00  0.00    -0.200 OA
BRANCH  44  47
ATOM     47  C9  VYR d   1      37.118 -27.518 -36.636  0.00  0.00     0.088 A 
ATOM     48  C8  VYR d   1      36.328 -26.676 -35.811  0.00  0.00    -0.008 A 
ATOM     49  C7  VYR d   1      37.011 -25.865 -34.870  0.00  0.00     0.045 A 
ATOM     50  C12 VYR d   1      38.407 -25.902 -34.760  0.00  0.00    -0.056 A 
ATOM     51  C11 VYR d   1      39.165 -26.726 -35.587  0.00  0.00    -0.079 A 
ATOM     52  H27 VYR d   1      38.903 -25.282 -34.022  0.00  0.00     0.086 H 
ATOM     53  C10 VYR d   1      38.513 -27.525 -36.521  0.00  0.00    -0.060 A 
ATOM     54  H26 VYR d   1      40.246 -26.745 -35.505  0.00  0.00     0.083 H 
ATOM     55  H25 VYR d   1      39.097 -28.165 -37.172  0.00  0.00     0.085 H 
BRANCH  48  56
ATOM     56  C13 VYR d   1      34.788 -26.630 -35.938  0.00  0.00    -0.041 C 
ATOM     57  H20 VYR d   1      34.505 -26.959 -36.949  0.00  0.00     0.039 H 
ATOM     58  H21 VYR d   1      34.449 -25.596 -35.780  0.00  0.00     0.039 H 
BRANCH  56  59
ATOM     59  C14 VYR d   1      34.104 -27.536 -34.914  0.00  0.00    -0.072 C 
ATOM     60  H22 VYR d   1      33.013 -27.473 -35.039  0.00  0.00     0.028 H 
ATOM     61  H23 VYR d   1      34.376 -27.212 -33.898  0.00  0.00     0.028 H 
ATOM     62  H24 VYR d   1      34.431 -28.575 -35.067  0.00  0.00     0.028 H 
ENDBRANCH  56  59
ENDBRANCH  48  56
BRANCH  49  63
ATOM     63  N3  VYR d   1      36.325 -25.011 -33.970  0.00  0.00    -0.314 N 
ATOM     64  C2  VYR d   1      35.978 -23.617 -34.407  0.00  0.00     0.023 C 
ATOM     65  C1  VYR d   1      35.055 -22.872 -33.418  0.00  0.00     0.035 C 
ATOM     66  H28 VYR d   1      35.470 -23.674 -35.381  0.00  0.00     0.068 H 
ATOM     67  H29 VYR d   1      36.910 -23.043 -34.512  0.00  0.00     0.068 H 
ATOM     68  O6  VYR d   1      34.495 -23.623 -32.301  0.00  0.00    -0.380 OA
ATOM     69  H30 VYR d   1      34.211 -22.472 -33.998  0.00  0.00     0.076 H 
ATOM     70  H31 VYR d   1      35.636 -22.040 -32.993  0.00  0.00     0.076 H 
ATOM     71  C5  VYR d   1      35.392 -24.615 -31.757  0.00  0.00     0.093 C 
ATOM     72  C4  VYR d   1      36.057 -25.458 -32.645  0.00  0.00     0.248 C 
ATOM     73  H32 VYR d   1      34.803 -25.252 -31.081  0.00  0.00     0.089 H 
ATOM     74  H33 VYR d   1      36.159 -24.079 -31.179  0.00  0.00     0.089 H 
ATOM     75  O39 VYR d   1      36.346 -26.599 -32.283  0.00  0.00    -0.271 OA
ENDBRANCH  49  63
ENDBRANCH  44  47
ENDBRANCH  42  44
ENDBRANCH   1  42
TORSDOF 12
