REMARK  9 active torsions:
REMARK  status: ('A' for Active; 'I' for Inactive)
REMARK    1  A    between atoms: C29_6  and  C28_7 
REMARK       I    between atoms: C28_7  and  N27_9 
REMARK    2  A    between atoms: N27_9  and  C26_10 
REMARK    3  A    between atoms: C26_10  and  C17_11 
REMARK    4  A    between atoms: C17_11  and  C18_12 
REMARK    5  A    between atoms: C17_11  and  N16_21 
REMARK       I    between atoms: C18_12  and  N19_14 
REMARK    6  A    between atoms: N22_17  and  C25_18 
REMARK    7  A    between atoms: N16_21  and  S15_22 
REMARK    8  A    between atoms: S15_22  and  C9_25 
REMARK    9  A    between atoms: C7_32  and  N3_33 
ROOT
ATOM      1  C17 6XS d   1     -12.832  -7.708 -19.102  0.00  0.00     0.112 C 
ATOM      2  H6  6XS d   1     -13.632  -6.955 -19.163  0.00  0.00     0.091 H 
ENDROOT
BRANCH   1   3
ATOM      3  C26 6XS d   1     -12.732  -8.208 -17.657  0.00  0.00     0.023 C 
ATOM      4  H4  6XS d   1     -12.722  -7.343 -16.978  0.00  0.00     0.068 H 
ATOM      5  H5  6XS d   1     -13.605  -8.839 -17.435  0.00  0.00     0.068 H 
BRANCH   3   6
ATOM      6  N27 6XS d   1     -11.506  -8.995 -17.449  0.00  0.00    -0.354 N 
ATOM      7  C28 6XS d   1     -10.336  -8.419 -17.181  0.00  0.00     0.258 C 
ATOM      8  O39 6XS d   1     -10.174  -7.203 -17.099  0.00  0.00    -0.267 OA
ATOM      9  H3  6XS d   1     -11.553  -9.992 -17.511  0.00  0.00     0.162 HD
BRANCH   7  10
ATOM     10  C29 6XS d   1      -9.166  -9.382 -16.963  0.00  0.00     0.074 A 
ATOM     11  C33 6XS d   1      -9.263 -10.704 -16.770  0.00  0.00    -0.059 A 
ATOM     12  C32 6XS d   1      -8.075 -11.327 -16.597  0.00  0.00    -0.054 A 
ATOM     13  H1  6XS d   1     -10.216 -11.231 -16.754  0.00  0.00     0.086 H 
ATOM     14  C31 6XS d   1      -7.016 -10.509 -16.643  0.00  0.00     0.075 A 
ATOM     15  H2  6XS d   1      -7.987 -12.400 -16.434  0.00  0.00     0.086 H 
ATOM     16 CL3  6XS d   1      -5.361 -10.981 -16.457  0.00  0.00    -0.076 Cl
ATOM     17  S30 6XS d   1      -7.547  -8.943 -16.911  0.00  0.00    -0.072 SA
ENDBRANCH   7  10
ENDBRANCH   3   6
ENDBRANCH   1   3
BRANCH   1  18
ATOM     18  C18 6XS d   1     -11.514  -7.069 -19.541  0.00  0.00     0.244 C 
ATOM     19  O38 6XS d   1     -10.625  -7.745 -20.058  0.00  0.00    -0.271 OA
ATOM     20  N19 6XS d   1     -11.342  -5.763 -19.367  0.00  0.00    -0.347 N 
ATOM     21  C20 6XS d   1     -12.413  -4.949 -18.761  0.00  0.00     0.020 C 
ATOM     22  C24 6XS d   1     -10.092  -5.101 -19.791  0.00  0.00     0.020 C 
ATOM     23  C21 6XS d   1     -12.667  -3.736 -19.655  0.00  0.00     0.098 C 
ATOM     24  H7  6XS d   1     -12.103  -4.614 -17.760  0.00  0.00     0.066 H 
ATOM     25  H8  6XS d   1     -13.332  -5.548 -18.678  0.00  0.00     0.066 H 
ATOM     26  N22 6XS d   1     -11.404  -3.018 -19.890  0.00  0.00    -0.072 N 
ATOM     27  H9  6XS d   1     -13.384  -3.063 -19.162  0.00  0.00     0.078 H 
ATOM     28  H10 6XS d   1     -13.081  -4.072 -20.617  0.00  0.00     0.078 H 
ATOM     29  C23 6XS d   1     -10.450  -3.868 -20.623  0.00  0.00     0.098 C 
ATOM     30  H11 6XS d   1     -11.001  -2.754 -19.005  0.00  0.00     0.279 HD
ATOM     31  H15 6XS d   1      -9.536  -3.292 -20.831  0.00  0.00     0.078 H 
ATOM     32  H16 6XS d   1     -10.905  -4.189 -21.572  0.00  0.00     0.078 H 
ATOM     33  H17 6XS d   1      -9.492  -5.796 -20.397  0.00  0.00     0.066 H 
ATOM     34  H18 6XS d   1      -9.516  -4.796 -18.905  0.00  0.00     0.066 H 
BRANCH  26  35
ATOM     35  C25 6XS d   1     -11.684  -1.814 -20.683  0.00  0.00     0.066 C 
ATOM     36  H12 6XS d   1     -10.746  -1.269 -20.865  0.00  0.00     0.068 H 
ATOM     37  H13 6XS d   1     -12.383  -1.167 -20.133  0.00  0.00     0.068 H 
ATOM     38  H14 6XS d   1     -12.132  -2.104 -21.645  0.00  0.00     0.068 H 
ENDBRANCH  26  35
ENDBRANCH   1  18
BRANCH   1  39
ATOM     39  N16 6XS d   1     -13.157  -8.826 -19.997  0.00  0.00    -0.300 N 
ATOM     40  H19 6XS d   1     -12.772  -9.747 -19.939  0.00  0.00     0.173 HD
BRANCH  39  41
ATOM     41  S15 6XS d   1     -14.242  -8.326 -21.097  0.00  0.00     0.261 S 
ATOM     42  O36 6XS d   1     -14.775  -9.512 -21.847  0.00  0.00    -0.200 OA
ATOM     43  O37 6XS d   1     -15.370  -7.626 -20.398  0.00  0.00    -0.200 OA
BRANCH  41  44
ATOM     44  C9  6XS d   1     -13.478  -7.216 -22.215  0.00  0.00     0.106 A 
ATOM     45  C8  6XS d   1     -12.753  -7.705 -23.295  0.00  0.00     0.084 A 
ATOM     46 CL4  6XS d   1     -12.610  -9.413 -23.527  0.00  0.00    -0.080 Cl
ATOM     47  C7  6XS d   1     -12.144  -6.822 -24.181  0.00  0.00     0.063 A 
ATOM     48  C12 6XS d   1     -12.265  -5.451 -23.989  0.00  0.00    -0.018 A 
ATOM     49  C11 6XS d   1     -12.989  -4.962 -22.909  0.00  0.00     0.120 A 
ATOM     50  H21 6XS d   1     -11.794  -4.763 -24.682  0.00  0.00     0.091 H 
ATOM     51  C10 6XS d   1     -13.595  -5.844 -22.022  0.00  0.00    -0.021 A 
ATOM     52  F13 6XS d   1     -13.103  -3.633 -22.724  0.00  0.00    -0.206 F 
ATOM     53  H20 6XS d   1     -14.159  -5.462 -21.179  0.00  0.00     0.090 H 
BRANCH  47  54
ATOM     54  N3  6XS d   1     -11.416  -7.306 -25.275  0.00  0.00    -0.316 N 
ATOM     55  C2  6XS d   1     -10.550  -8.495 -25.100  0.00  0.00     0.003 C 
ATOM     56  C1  6XS d   1      -9.493  -8.556 -26.200  0.00  0.00    -0.049 C 
ATOM     57  H22 6XS d   1     -11.169  -9.403 -25.143  0.00  0.00     0.065 H 
ATOM     58  H23 6XS d   1     -10.051  -8.438 -24.122  0.00  0.00     0.065 H 
ATOM     59  C6  6XS d   1     -10.153  -8.487 -27.571  0.00  0.00    -0.056 C 
ATOM     60  H24 6XS d   1      -8.933  -9.499 -26.114  0.00  0.00     0.035 H 
ATOM     61  H25 6XS d   1      -8.802  -7.708 -26.087  0.00  0.00     0.035 H 
ATOM     62  C5  6XS d   1     -10.800  -7.118 -27.768  0.00  0.00     0.010 C 
ATOM     63  H26 6XS d   1     -10.924  -9.268 -27.645  0.00  0.00     0.033 H 
ATOM     64  H27 6XS d   1      -9.393  -8.647 -28.350  0.00  0.00     0.033 H 
ATOM     65  C4  6XS d   1     -11.551  -6.654 -26.515  0.00  0.00     0.224 C 
ATOM     66  H28 6XS d   1     -11.510  -7.178 -28.606  0.00  0.00     0.047 H 
ATOM     67  H29 6XS d   1     -10.015  -6.385 -28.004  0.00  0.00     0.047 H 
ATOM     68  O35 6XS d   1     -12.290  -5.674 -26.594  0.00  0.00    -0.273 OA
ENDBRANCH  47  54
ENDBRANCH  41  44
ENDBRANCH  39  41
ENDBRANCH   1  39
TORSDOF 9
