REMARK  4 active torsions:
REMARK  status: ('A' for Active; 'I' for Inactive)
REMARK    1  A    between atoms: CAX_6  and  NAQ_7 
REMARK    2  A    between atoms: CAW_10  and  OAA_11 
REMARK    3  A    between atoms: NAY_12  and  CAS_13 
REMARK    4  A    between atoms: CAV_20  and  CAU_21 
ROOT
ATOM      1  NAQ JW7 d   1      17.841 144.404  34.234  0.00  0.00    -0.282 NA
ATOM      2  CAT JW7 d   1      19.173 144.162  34.108  0.00  0.00     0.090 A 
ATOM      3  CAH JW7 d   1      19.639 143.017  33.443  0.00  0.00    -0.002 A 
ATOM      4  CAW JW7 d   1      20.985 142.723  33.333  0.00  0.00     0.166 A 
ATOM      5  NAY JW7 d   1      21.886 143.565  33.885  0.00  0.00    -0.211 N 
ATOM      6  NAP JW7 d   1      21.412 144.707  34.541  0.00  0.00    -0.159 NA
ATOM      7  CAV JW7 d   1      20.109 145.026  34.663  0.00  0.00     0.155 A 
ATOM      8  H12 JW7 d   1      18.915 142.336  32.998  0.00  0.00     0.093 H 
ENDROOT
BRANCH   1   9
ATOM      9  CAX JW7 d   1      16.836 143.434  33.836  0.00  0.00     0.033 C 
ATOM     10  CAL JW7 d   1      16.431 143.657  32.377  0.00  0.00    -0.044 C 
ATOM     11  CAJ JW7 d   1      15.574 142.480  31.926  0.00  0.00    -0.063 C 
ATOM     12  H1  JW7 d   1      15.855 144.590  32.291  0.00  0.00     0.036 H 
ATOM     13  H2  JW7 d   1      17.331 143.723  31.748  0.00  0.00     0.036 H 
ATOM     14  CAI JW7 d   1      14.316 142.348  32.792  0.00  0.00    -0.065 C 
ATOM     15  H3  JW7 d   1      16.164 141.555  32.006  0.00  0.00     0.033 H 
ATOM     16  H4  JW7 d   1      15.274 142.634  30.879  0.00  0.00     0.033 H 
ATOM     17  CAK JW7 d   1      14.601 142.403  34.304  0.00  0.00    -0.063 C 
ATOM     18  H5  JW7 d   1      13.836 141.385  32.563  0.00  0.00     0.033 H 
ATOM     19  H6  JW7 d   1      13.630 143.170  32.537  0.00  0.00     0.033 H 
ATOM     20  CAM JW7 d   1      15.606 143.479  34.736  0.00  0.00    -0.044 C 
ATOM     21  H7  JW7 d   1      14.996 141.424  34.613  0.00  0.00     0.033 H 
ATOM     22  H8  JW7 d   1      13.651 142.595  34.824  0.00  0.00     0.033 H 
ATOM     23  H9  JW7 d   1      15.910 143.297  35.777  0.00  0.00     0.036 H 
ATOM     24  H10 JW7 d   1      15.134 144.470  34.659  0.00  0.00     0.036 H 
ATOM     25  H11 JW7 d   1      17.281 142.432  33.921  0.00  0.00     0.075 H 
ENDBRANCH   1   9
BRANCH   7  26
ATOM     26  CAU JW7 d   1      19.783 146.196  35.353  0.00  0.00     0.203 A 
ATOM     27  NAN JW7 d   1      20.645 147.068  35.915  0.00  0.00    -0.219 NA
ATOM     28  CAG JW7 d   1      19.964 148.083  36.504  0.00  0.00     0.082 A 
ATOM     29  NAR JW7 d   1      18.668 147.875  36.316  0.00  0.00    -0.270 N 
ATOM     30  H19 JW7 d   1      20.405 148.923  37.038  0.00  0.00     0.145 H 
ATOM     31  NAO JW7 d   1      18.567 146.681  35.588  0.00  0.00    -0.151 NA
ATOM     32  H20 JW7 d   1      17.892 148.470  36.639  0.00  0.00     0.190 HD
ENDBRANCH   7  26
BRANCH   4  33
ATOM     33  OAA JW7 d   1      21.282 141.575  32.660  0.00  0.00    -0.345 OA
ATOM     34  H13 JW7 d   1      21.753 140.984  33.236  0.00  0.00     0.219 HD
ENDBRANCH   4  33
BRANCH   5  35
ATOM     35  CAS JW7 d   1      23.223 143.434  33.870  0.00  0.00     0.061 A 
ATOM     36  CAE JW7 d   1      23.871 142.404  33.242  0.00  0.00    -0.055 A 
ATOM     37  CAC JW7 d   1      25.250 142.311  33.256  0.00  0.00    -0.081 A 
ATOM     38  H14 JW7 d   1      23.292 141.648  32.724  0.00  0.00     0.087 H 
ATOM     39  CAB JW7 d   1      26.019 143.259  33.889  0.00  0.00    -0.083 A 
ATOM     40  H15 JW7 d   1      25.733 141.477  32.760  0.00  0.00     0.083 H 
ATOM     41  CAD JW7 d   1      25.382 144.299  34.515  0.00  0.00    -0.081 A 
ATOM     42  H16 JW7 d   1      27.101 143.186  33.893  0.00  0.00     0.083 H 
ATOM     43  CAF JW7 d   1      24.002 144.386  34.499  0.00  0.00    -0.055 A 
ATOM     44  H17 JW7 d   1      25.964 145.058  35.026  0.00  0.00     0.083 H 
ATOM     45  H18 JW7 d   1      23.519 145.222  34.992  0.00  0.00     0.087 H 
ENDBRANCH   5  35
TORSDOF 4
