REMARK  6 active torsions:
REMARK  status: ('A' for Active; 'I' for Inactive)
REMARK    1  A    between atoms: NBE_3  and  CAA_4 
REMARK    2  A    between atoms: NBF_7  and  CAY_8 
REMARK    3  A    between atoms: CAX_13  and  NAU_14 
REMARK    4  A    between atoms: NAU_14  and  CBA_15 
REMARK    5  A    between atoms: NBG_19  and  CAZ_20 
REMARK    6  A    between atoms: CBC_28  and  CBB_29 
ROOT
ATOM      1  CAY JWF d   1      98.787  54.019  33.076  0.00  0.00     0.030 A 
ATOM      2  CAI JWF d   1      98.455  54.057  34.447  0.00  0.00    -0.055 A 
ATOM      3  CAG JWF d   1      97.431  53.270  34.986  0.00  0.00    -0.053 A 
ATOM      4  CAH JWF d   1      98.032  53.133  32.276  0.00  0.00    -0.055 A 
ATOM      5  CAF JWF d   1      97.008  52.340  32.805  0.00  0.00    -0.053 A 
ATOM      6  CAX JWF d   1      96.692  52.417  34.163  0.00  0.00     0.057 A 
ATOM      7  H13 JWF d   1      99.011  54.717  35.103  0.00  0.00     0.087 H 
ATOM      8  H14 JWF d   1      97.210  53.323  36.046  0.00  0.00     0.087 H 
ATOM      9  H15 JWF d   1      98.253  53.065  31.217  0.00  0.00     0.087 H 
ATOM     10  H16 JWF d   1      96.459  51.664  32.159  0.00  0.00     0.087 H 
ENDROOT
BRANCH   6  11
ATOM     11  NAU JWF d   1      95.729  51.656  34.720  0.00  0.00    -0.251 NA
BRANCH  11  12
ATOM     12  CBA JWF d   1      94.434  51.867  34.472  0.00  0.00     0.078 A 
ATOM     13  CAM JWF d   1      93.986  53.042  33.895  0.00  0.00     0.054 A 
ATOM     14  CBD JWF d   1      92.638  53.237  33.690  0.00  0.00     0.250 A 
ATOM     15  H17 JWF d   1      94.471  53.118  32.911  0.00  0.00     0.057 H 
ATOM     16  H18 JWF d   1      94.332  53.864  34.539  0.00  0.00     0.057 H 
ATOM     17  OAB JWF d   1      92.284  54.305  33.176  0.00  0.00    -0.271 OA
ATOM     18  NBG JWF d   1      91.789  52.258  34.040  0.00  0.00    -0.200 N 
ATOM     19  NAT JWF d   1      92.190  51.256  34.552  0.00  0.00    -0.159 NA
ATOM     20  CBC JWF d   1      93.473  50.918  34.815  0.00  0.00     0.150 A 
BRANCH  18  21
ATOM     21  CAZ JWF d   1      90.464  52.417  33.861  0.00  0.00     0.062 A 
ATOM     22  CAJ JWF d   1      89.879  52.738  32.615  0.00  0.00    -0.053 A 
ATOM     23  CAD JWF d   1      88.498  52.930  32.491  0.00  0.00    -0.060 A 
ATOM     24  H19 JWF d   1      90.511  52.837  31.740  0.00  0.00     0.087 H 
ATOM     25  CAW JWF d   1      87.696  52.776  33.635  0.00  0.00     0.034 A 
ATOM     26  H20 JWF d   1      88.058  53.191  31.536  0.00  0.00     0.086 H 
ATOM     27 CLAC JWF d   1      85.932  53.017  33.605  0.00  0.00    -0.084 Cl
ATOM     28  CAE JWF d   1      88.297  52.434  34.848  0.00  0.00    -0.060 A 
ATOM     29  CAK JWF d   1      89.663  52.274  34.978  0.00  0.00    -0.053 A 
ATOM     30  H21 JWF d   1      87.669  52.289  35.719  0.00  0.00     0.086 H 
ATOM     31  H22 JWF d   1      90.100  52.040  35.942  0.00  0.00     0.087 H 
ENDBRANCH  18  21
BRANCH  20  32
ATOM     32  CBB JWF d   1      93.649  49.712  35.408  0.00  0.00     0.183 A 
ATOM     33  NAR JWF d   1      92.623  48.905  35.688  0.00  0.00    -0.331 N 
ATOM     34  CAL JWF d   1      93.174  47.863  36.289  0.00  0.00     0.087 A 
ATOM     35  H23 JWF d   1      91.626  49.059  35.482  0.00  0.00     0.168 HD
ATOM     36  NAV JWF d   1      94.481  48.082  36.356  0.00  0.00    -0.143 NA
ATOM     37  H24 JWF d   1      92.650  46.984  36.661  0.00  0.00     0.146 H 
ATOM     38  NAS JWF d   1      94.751  49.122  35.868  0.00  0.00    -0.128 NA
ENDBRANCH  20  32
ENDBRANCH  11  12
ENDBRANCH   6  11
BRANCH   1  39
ATOM     39  NBF JWF d   1      99.790  54.811  32.569  0.00  0.00    -0.378 N 
ATOM     40  CAP JWF d   1     100.337  55.969  33.367  0.00  0.00     0.018 C 
ATOM     41  CAN JWF d   1     101.287  56.698  32.491  0.00  0.00     0.098 C 
ATOM     42  H1  JWF d   1      99.518  56.637  33.672  0.00  0.00     0.066 H 
ATOM     43  H2  JWF d   1     100.859  55.597  34.261  0.00  0.00     0.066 H 
ATOM     44  NBE JWF d   1     100.574  57.000  31.207  0.00  0.00    -0.072 N 
ATOM     45  H3  JWF d   1     102.170  56.073  32.292  0.00  0.00     0.078 H 
ATOM     46  H4  JWF d   1     101.602  57.634  32.975  0.00  0.00     0.078 H 
ATOM     47  CAO JWF d   1     100.443  55.830  30.340  0.00  0.00     0.098 C 
ATOM     48  H5  JWF d   1      99.650  57.326  31.442  0.00  0.00     0.279 HD
ATOM     49  CAQ JWF d   1     100.405  54.559  31.215  0.00  0.00     0.018 C 
ATOM     50  H9  JWF d   1     101.302  55.781  29.655  0.00  0.00     0.078 H 
ATOM     51  H10 JWF d   1      99.513  55.905  29.757  0.00  0.00     0.078 H 
ATOM     52  H11 JWF d   1     101.434  54.197  31.356  0.00  0.00     0.066 H 
ATOM     53  H12 JWF d   1      99.814  53.790  30.696  0.00  0.00     0.066 H 
BRANCH  44  54
ATOM     54  CAA JWF d   1     101.267  58.061  30.428  0.00  0.00     0.066 C 
ATOM     55  H6  JWF d   1     100.714  58.252  29.497  0.00  0.00     0.068 H 
ATOM     56  H7  JWF d   1     102.288  57.731  30.187  0.00  0.00     0.068 H 
ATOM     57  H8  JWF d   1     101.311  58.984  31.024  0.00  0.00     0.068 H 
ENDBRANCH  44  54
ENDBRANCH   1  39
TORSDOF 6
