REMARK  1 active torsions:
REMARK  status: ('A' for Active; 'I' for Inactive)
REMARK       I    between atoms: CAO_3  and  NAQ_1 
REMARK    1  A    between atoms: CAK_16  and  CAO_3 
ROOT
ATOM      1  NAG OCZ d   1       9.365 -13.946   2.300  0.00  0.00    -0.358 N 
ATOM      2  CAJ OCZ d   1       6.677 -12.590   4.403  0.00  0.00    -0.038 C 
ATOM      3  CAD OCZ d   1      11.391 -13.572   3.620  0.00  0.00    -0.055 A 
ATOM      4  CAC OCZ d   1      11.935 -13.010   4.749  0.00  0.00    -0.060 A 
ATOM      5  CAE OCZ d   1      10.073 -13.484   3.365  0.00  0.00     0.043 A 
ATOM      6 CL   OCZ d   1      11.833 -11.695   7.187  0.00  0.00    -0.084 Cl
ATOM      7  CAF OCZ d   1       9.216 -12.958   4.283  0.00  0.00     0.000 A 
ATOM      8  CAA OCZ d   1       9.698 -12.398   5.418  0.00  0.00    -0.049 A 
ATOM      9  CAH OCZ d   1       7.954 -13.092   3.818  0.00  0.00    -0.022 A 
ATOM     10  CAI OCZ d   1       8.045 -13.699   2.569  0.00  0.00     0.030 A 
ATOM     11  CAB OCZ d   1      11.086 -12.418   5.691  0.00  0.00     0.035 A 
ATOM     12  CAM OCZ d   1       5.404 -13.046   3.505  0.00  0.00    -0.060 C 
ATOM     13  CAK OCZ d   1       6.887 -13.951   1.702  0.00  0.00     0.064 C 
ATOM     14  CAL OCZ d   1       5.745 -12.884   2.034  0.00  0.00    -0.048 C 
ATOM     15  H3  OCZ d   1       9.747 -14.395   1.455  0.00  0.00     0.166 HD
ATOM     16  H4  OCZ d   1       6.710 -11.491   4.448  0.00  0.00     0.040 H 
ATOM     17  H5  OCZ d   1       6.563 -12.995   5.419  0.00  0.00     0.040 H 
ATOM     18  H6  OCZ d   1      12.035 -14.095   2.922  0.00  0.00     0.087 H 
ATOM     19  H7  OCZ d   1      13.007 -13.025   4.908  0.00  0.00     0.086 H 
ATOM     20  H8  OCZ d   1       9.017 -11.932   6.121  0.00  0.00     0.087 H 
ATOM     21  H9  OCZ d   1       4.536 -12.418   3.752  0.00  0.00     0.033 H 
ATOM     22  H10 OCZ d   1       5.166 -14.100   3.713  0.00  0.00     0.033 H 
ATOM     23  H11 OCZ d   1       7.220 -13.737   0.676  0.00  0.00     0.064 H 
ATOM     24  H12 OCZ d   1       6.112 -11.865   1.841  0.00  0.00     0.034 H 
ATOM     25  H13 OCZ d   1       4.856 -13.077   1.416  0.00  0.00     0.034 H 
ENDROOT
BRANCH  13  26
ATOM     26  CAO OCZ d   1       6.423 -15.348   1.673  0.00  0.00     0.225 C 
ATOM     27  NAQ OCZ d   1       5.373 -15.623   0.911  0.00  0.00    -0.370 N 
ATOM     28  H1  OCZ d   1       4.925 -14.893   0.395  0.00  0.00     0.159 HD
ATOM     29  H2  OCZ d   1       5.029 -16.560   0.853  0.00  0.00     0.159 HD
ATOM     30  OAP OCZ d   1       6.995 -16.225   2.320  0.00  0.00    -0.273 OA
ENDBRANCH  13  26
TORSDOF 1
