REMARK  10 active torsions:
REMARK  status: ('A' for Active; 'I' for Inactive)
REMARK    1  A    between atoms: C01_1  and  C02_2 
REMARK    2  A    between atoms: C03_5  and  C04_6 
REMARK    3  A    between atoms: C05_7  and  C06_8 
REMARK    4  A    between atoms: C10_12  and  N02_13 
REMARK    5  A    between atoms: N02_13  and  C11_14 
REMARK    6  A    between atoms: C16_19  and  C17_20 
REMARK    7  A    between atoms: C17_20  and  C18_21 
REMARK    8  A    between atoms: C17_20  and  C19_22 
REMARK    9  A    between atoms: C17_20  and  C20_23 
REMARK   10  A    between atoms: C21_24  and  C1_29 
ROOT
ATOM      1  C06 S5B d   1      13.895   4.939  11.048  0.00  0.00    -0.019 A 
ATOM      2  C07 S5B d   1      14.215   4.671   9.720  0.00  0.00    -0.071 A 
ATOM      3  C08 S5B d   1      14.809   3.500   9.364  0.00  0.00    -0.068 A 
ATOM      4  C09 S5B d   1      15.114   2.506  10.330  0.00  0.00     0.021 A 
ATOM      5  C10 S5B d   1      15.746   1.251  10.022  0.00  0.00     0.064 A 
ATOM      6  C21 S5B d   1      15.975   0.362  11.115  0.00  0.00     0.085 A 
ATOM      7  C22 S5B d   1      15.604   0.763  12.394  0.00  0.00     0.022 A 
ATOM      8  N1  S5B d   1      15.032   1.896  12.709  0.00  0.00    -0.259 NA
ATOM      9  C23 S5B d   1      14.785   2.777  11.689  0.00  0.00     0.070 A 
ATOM     10  C24 S5B d   1      14.173   4.007  12.018  0.00  0.00    -0.043 A 
ATOM     11  H7  S5B d   1      13.987   5.407   8.957  0.00  0.00     0.084 H 
ATOM     12  H8  S5B d   1      15.054   3.323   8.323  0.00  0.00     0.085 H 
ATOM     13  H23 S5B d   1      15.808   0.073  13.204  0.00  0.00     0.116 H 
ATOM     14  H24 S5B d   1      13.919   4.218  13.050  0.00  0.00     0.088 H 
ENDROOT
BRANCH   5  15
ATOM     15  N02 S5B d   1      16.092   0.842   8.735  0.00  0.00    -0.354 N 
ATOM     16  H9  S5B d   1      16.081  -0.174   8.567  0.00  0.00     0.166 HD
BRANCH  15  17
ATOM     17  C11 S5B d   1      16.457   1.651   7.627  0.00  0.00     0.039 A 
ATOM     18  C12 S5B d   1      17.714   2.253   7.641  0.00  0.00    -0.057 A 
ATOM     19  C13 S5B d   1      18.126   3.045   6.583  0.00  0.00    -0.081 A 
ATOM     20  H10 S5B d   1      18.374   2.100   8.487  0.00  0.00     0.086 H 
ATOM     21  C14 S5B d   1      17.303   3.247   5.499  0.00  0.00    -0.082 A 
ATOM     22  H11 S5B d   1      19.105   3.510   6.609  0.00  0.00     0.083 H 
ATOM     23  C15 S5B d   1      16.051   2.659   5.449  0.00  0.00    -0.074 A 
ATOM     24  H12 S5B d   1      17.638   3.871   4.678  0.00  0.00     0.083 H 
ATOM     25  C16 S5B d   1      15.590   1.860   6.492  0.00  0.00    -0.024 A 
ATOM     26  H13 S5B d   1      15.419   2.823   4.584  0.00  0.00     0.084 H 
BRANCH  25  27
ATOM     27  C17 S5B d   1      14.180   1.227   6.363  0.00  0.00    -0.022 C 
BRANCH  27  28
ATOM     28  C18 S5B d   1      13.246   2.134   5.556  0.00  0.00    -0.066 C 
ATOM     29  H14 S5B d   1      12.255   1.664   5.479  0.00  0.00     0.028 H 
ATOM     30  H15 S5B d   1      13.660   2.283   4.548  0.00  0.00     0.028 H 
ATOM     31  H16 S5B d   1      13.152   3.107   6.061  0.00  0.00     0.028 H 
ENDBRANCH  27  28
BRANCH  27  32
ATOM     32  C19 S5B d   1      14.266  -0.101   5.619  0.00  0.00    -0.066 C 
ATOM     33  H17 S5B d   1      14.930  -0.786   6.167  0.00  0.00     0.028 H 
ATOM     34  H18 S5B d   1      14.668   0.070   4.609  0.00  0.00     0.028 H 
ATOM     35  H19 S5B d   1      13.262  -0.545   5.544  0.00  0.00     0.028 H 
ENDBRANCH  27  32
BRANCH  27  36
ATOM     36  C20 S5B d   1      13.466   0.971   7.697  0.00  0.00    -0.066 C 
ATOM     37  H20 S5B d   1      13.389   1.914   8.258  0.00  0.00     0.028 H 
ATOM     38  H21 S5B d   1      14.040   0.240   8.286  0.00  0.00     0.028 H 
ATOM     39  H22 S5B d   1      12.458   0.576   7.503  0.00  0.00     0.028 H 
ENDBRANCH  27  36
ENDBRANCH  25  27
ENDBRANCH  15  17
ENDBRANCH   5  15
BRANCH   6  40
ATOM     40  C1  S5B d   1      16.630  -0.971  10.981  0.00  0.00     0.213 C 
ATOM     41  O02 S5B d   1      17.164  -1.200   9.817  0.00  0.00    -0.644 OA
ATOM     42  O1  S5B d   1      16.684  -1.767  11.912  0.00  0.00    -0.644 OA
ENDBRANCH   6  40
BRANCH   1  43
ATOM     43  C05 S5B d   1      13.257   6.224  11.421  0.00  0.00     0.032 A 
ATOM     44  C02 S5B d   1      12.039   6.431  12.103  0.00  0.00     0.071 A 
ATOM     45  N01 S5B d   1      11.800   7.705  12.246  0.00  0.00    -0.133 NA
ATOM     46  O01 S5B d   1      12.891   8.384  11.641  0.00  0.00    -0.217 OA
ATOM     47  C03 S5B d   1      13.738   7.465  11.163  0.00  0.00     0.088 A 
BRANCH  44  48
ATOM     48  C01 S5B d   1      11.065   5.442  12.642  0.00  0.00    -0.033 C 
ATOM     49  H1  S5B d   1      11.424   4.423  12.434  0.00  0.00     0.035 H 
ATOM     50  H2  S5B d   1      10.087   5.592  12.162  0.00  0.00     0.035 H 
ATOM     51  H3  S5B d   1      10.965   5.580  13.729  0.00  0.00     0.035 H 
ENDBRANCH  44  48
BRANCH  47  52
ATOM     52  C04 S5B d   1      14.955   7.980  10.491  0.00  0.00    -0.028 C 
ATOM     53  H4  S5B d   1      15.568   7.135  10.144  0.00  0.00     0.036 H 
ATOM     54  H5  S5B d   1      15.536   8.587  11.200  0.00  0.00     0.036 H 
ATOM     55  H6  S5B d   1      14.664   8.600   9.630  0.00  0.00     0.036 H 
ENDBRANCH  47  52
ENDBRANCH   1  43
TORSDOF 10
