REMARK  10 active torsions:
REMARK  status: ('A' for Active; 'I' for Inactive)
REMARK    1  A    between atoms: C01_1  and  C02_2 
REMARK    2  A    between atoms: C03_5  and  C04_6 
REMARK    3  A    between atoms: C05_7  and  C06_8 
REMARK    4  A    between atoms: C10_12  and  N02_13 
REMARK    5  A    between atoms: N02_13  and  C11_14 
REMARK    6  A    between atoms: C16_19  and  C17_20 
REMARK    7  A    between atoms: C17_20  and  C18_21 
REMARK    8  A    between atoms: C17_20  and  C19_22 
REMARK    9  A    between atoms: C17_20  and  C20_23 
REMARK   10  A    between atoms: C21_24  and  C1_28 
ROOT
ATOM      1  C06 UTH d   1      14.059   5.118  10.801  0.00  0.00     0.074 A 
ATOM      2  C07 UTH d   1      14.353   4.867   9.467  0.00  0.00    -0.053 A 
ATOM      3  C08 UTH d   1      14.854   3.655   9.123  0.00  0.00    -0.065 A 
ATOM      4  C09 UTH d   1      15.061   2.667  10.110  0.00  0.00     0.040 A 
ATOM      5  C10 UTH d   1      15.598   1.365   9.823  0.00  0.00     0.065 A 
ATOM      6  C21 UTH d   1      15.724   0.509  10.952  0.00  0.00     0.086 A 
ATOM      7  C22 UTH d   1      15.370   0.972  12.214  0.00  0.00     0.023 A 
ATOM      8  N1  UTH d   1      14.878   2.151  12.491  0.00  0.00    -0.239 NA
ATOM      9  C23 UTH d   1      14.729   3.013  11.444  0.00  0.00     0.162 A 
ATOM     10  N51 UTH d   1      14.223   4.234  11.788  0.00  0.00    -0.228 NA
ATOM     11  H7  UTH d   1      14.185   5.628   8.713  0.00  0.00     0.087 H 
ATOM     12  H8  UTH d   1      15.096   3.444   8.088  0.00  0.00     0.085 H 
ATOM     13  H23 UTH d   1      15.515   0.292  13.046  0.00  0.00     0.116 H 
ENDROOT
BRANCH   5  14
ATOM     14  N02 UTH d   1      15.919   0.899   8.544  0.00  0.00    -0.354 N 
ATOM     15  H9  UTH d   1      15.887  -0.123   8.419  0.00  0.00     0.166 HD
BRANCH  14  16
ATOM     16  C11 UTH d   1      16.289   1.663   7.376  0.00  0.00     0.039 A 
ATOM     17  C12 UTH d   1      17.569   2.213   7.344  0.00  0.00    -0.057 A 
ATOM     18  C13 UTH d   1      17.991   2.952   6.252  0.00  0.00    -0.081 A 
ATOM     19  H10 UTH d   1      18.240   2.061   8.181  0.00  0.00     0.086 H 
ATOM     20  C14 UTH d   1      17.154   3.154   5.179  0.00  0.00    -0.082 A 
ATOM     21  H11 UTH d   1      18.989   3.375   6.242  0.00  0.00     0.083 H 
ATOM     22  C15 UTH d   1      15.878   2.620   5.173  0.00  0.00    -0.074 A 
ATOM     23  H12 UTH d   1      17.497   3.736   4.332  0.00  0.00     0.083 H 
ATOM     24  C16 UTH d   1      15.404   1.876   6.249  0.00  0.00    -0.024 A 
ATOM     25  H13 UTH d   1      15.236   2.784   4.315  0.00  0.00     0.084 H 
BRANCH  24  26
ATOM     26  C17 UTH d   1      13.968   1.295   6.167  0.00  0.00    -0.022 C 
BRANCH  26  27
ATOM     27  C18 UTH d   1      13.134   2.001   5.080  0.00  0.00    -0.066 C 
ATOM     28  H14 UTH d   1      12.125   1.564   5.051  0.00  0.00     0.028 H 
ATOM     29  H15 UTH d   1      13.619   1.869   4.102  0.00  0.00     0.028 H 
ATOM     30  H16 UTH d   1      13.062   3.074   5.312  0.00  0.00     0.028 H 
ENDBRANCH  26  27
BRANCH  26  31
ATOM     31  C19 UTH d   1      13.166   1.428   7.464  0.00  0.00    -0.066 C 
ATOM     32  H17 UTH d   1      13.712   0.940   8.285  0.00  0.00     0.028 H 
ATOM     33  H18 UTH d   1      12.185   0.946   7.340  0.00  0.00     0.028 H 
ATOM     34  H19 UTH d   1      13.024   2.493   7.700  0.00  0.00     0.028 H 
ENDBRANCH  26  31
BRANCH  26  35
ATOM     35  C20 UTH d   1      14.017  -0.179   5.788  0.00  0.00    -0.066 C 
ATOM     36  H20 UTH d   1      14.590  -0.299   4.857  0.00  0.00     0.028 H 
ATOM     37  H21 UTH d   1      12.993  -0.554   5.640  0.00  0.00     0.028 H 
ATOM     38  H22 UTH d   1      14.503  -0.749   6.593  0.00  0.00     0.028 H 
ENDBRANCH  26  35
ENDBRANCH  24  26
ENDBRANCH  14  16
ENDBRANCH   5  14
BRANCH   6  39
ATOM     39  C1  UTH d   1      16.288  -0.868  10.876  0.00  0.00     0.213 C 
ATOM     40  O02 UTH d   1      16.676  -1.226   9.691  0.00  0.00    -0.644 OA
ATOM     41  O1  UTH d   1      16.447  -1.557  11.876  0.00  0.00    -0.644 OA
ENDBRANCH   6  39
BRANCH   1  42
ATOM     42  C05 UTH d   1      13.504   6.424  11.217  0.00  0.00     0.051 A 
ATOM     43  C02 UTH d   1      12.349   6.633  11.999  0.00  0.00     0.073 A 
ATOM     44  N01 UTH d   1      12.126   7.909  12.163  0.00  0.00    -0.132 NA
ATOM     45  O01 UTH d   1      13.170   8.585  11.477  0.00  0.00    -0.217 OA
ATOM     46  C03 UTH d   1      13.970   7.664  10.926  0.00  0.00     0.089 A 
BRANCH  43  47
ATOM     47  C01 UTH d   1      11.414   5.645  12.606  0.00  0.00    -0.033 C 
ATOM     48  H1  UTH d   1      11.753   4.626  12.369  0.00  0.00     0.035 H 
ATOM     49  H2  UTH d   1      10.403   5.799  12.200  0.00  0.00     0.035 H 
ATOM     50  H3  UTH d   1      11.396   5.780  13.697  0.00  0.00     0.035 H 
ENDBRANCH  43  47
BRANCH  46  51
ATOM     51  C04 UTH d   1      15.132   8.176  10.160  0.00  0.00    -0.028 C 
ATOM     52  H4  UTH d   1      15.709   7.329   9.759  0.00  0.00     0.036 H 
ATOM     53  H5  UTH d   1      15.773   8.775  10.823  0.00  0.00     0.036 H 
ATOM     54  H6  UTH d   1      14.776   8.803   9.329  0.00  0.00     0.036 H 
ENDBRANCH  46  51
ENDBRANCH   1  42
TORSDOF 10
