REMARK  12 active torsions:
REMARK  status: ('A' for Active; 'I' for Inactive)
REMARK    1  A    between atoms: C02_2  and  C01_1 
REMARK    2  A    between atoms: C03_5  and  C04_6 
REMARK    3  A    between atoms: C06_8  and  C05_7 
REMARK    4  A    between atoms: C07_9  and  O05_32 
REMARK    5  A    between atoms: C10_11  and  N02_12 
REMARK    6  A    between atoms: N02_12  and  C11_13 
REMARK    7  A    between atoms: C16_18  and  C17_19 
REMARK    8  A    between atoms: C17_19  and  C19_20 
REMARK    9  A    between atoms: C17_19  and  C18_21 
REMARK   10  A    between atoms: C17_19  and  C20_22 
REMARK   11  A    between atoms: C21_23  and  C1_28 
REMARK   12  A    between atoms: O05_32  and  C00_29 
ROOT
ATOM      1  C06 9BM d   1      12.892   4.653  10.852  0.00  0.00     0.034 A 
ATOM      2  C07 9BM d   1      13.256   4.323   9.537  0.00  0.00     0.176 A 
ATOM      3  C09 9BM d   1      14.212   2.374  10.107  0.00  0.00     0.116 A 
ATOM      4  C10 9BM d   1      14.914   1.183   9.755  0.00  0.00     0.083 A 
ATOM      5  C21 9BM d   1      15.229   0.290  10.800  0.00  0.00     0.087 A 
ATOM      6  C22 9BM d   1      14.857   0.638  12.106  0.00  0.00     0.022 A 
ATOM      7  N1  9BM d   1      14.221   1.725  12.469  0.00  0.00    -0.258 NA
ATOM      8  C23 9BM d   1      13.886   2.619  11.483  0.00  0.00     0.088 A 
ATOM      9  C24 9BM d   1      13.204   3.793  11.867  0.00  0.00    -0.038 A 
ATOM     10  N07 9BM d   1      13.883   3.262   9.115  0.00  0.00    -0.220 NA
ATOM     11  H21 9BM d   1      15.121  -0.060  12.892  0.00  0.00     0.116 H 
ATOM     12  H22 9BM d   1      12.945   3.999  12.899  0.00  0.00     0.088 H 
ENDROOT
BRANCH   4  13
ATOM     13  N02 9BM d   1      15.220   0.888   8.432  0.00  0.00    -0.353 N 
ATOM     14  H7  9BM d   1      15.280  -0.114   8.203  0.00  0.00     0.166 HD
BRANCH  13  15
ATOM     15  C11 9BM d   1      15.461   1.780   7.352  0.00  0.00     0.039 A 
ATOM     16  C12 9BM d   1      16.650   2.510   7.335  0.00  0.00    -0.057 A 
ATOM     17  C13 9BM d   1      16.926   3.374   6.290  0.00  0.00    -0.081 A 
ATOM     18  H8  9BM d   1      17.362   2.400   8.145  0.00  0.00     0.086 H 
ATOM     19  C14 9BM d   1      16.039   3.515   5.247  0.00  0.00    -0.082 A 
ATOM     20  H9  9BM d   1      17.848   3.944   6.293  0.00  0.00     0.083 H 
ATOM     21  C15 9BM d   1      14.856   2.795   5.229  0.00  0.00    -0.074 A 
ATOM     22  H10 9BM d   1      16.268   4.194   4.434  0.00  0.00     0.083 H 
ATOM     23  C16 9BM d   1      14.529   1.923   6.265  0.00  0.00    -0.024 A 
ATOM     24  H11 9BM d   1      14.173   2.912   4.395  0.00  0.00     0.084 H 
BRANCH  23  25
ATOM     25  C17 9BM d   1      13.195   1.137   6.176  0.00  0.00    -0.022 C 
BRANCH  25  26
ATOM     26  C19 9BM d   1      12.209   1.804   5.201  0.00  0.00    -0.066 C 
ATOM     27  H12 9BM d   1      11.278   1.220   5.165  0.00  0.00     0.028 H 
ATOM     28  H13 9BM d   1      12.656   1.843   4.197  0.00  0.00     0.028 H 
ATOM     29  H14 9BM d   1      11.988   2.825   5.545  0.00  0.00     0.028 H 
ENDBRANCH  25  26
BRANCH  25  30
ATOM     30  C18 9BM d   1      13.452  -0.281   5.669  0.00  0.00    -0.066 C 
ATOM     31  H15 9BM d   1      14.155  -0.790   6.344  0.00  0.00     0.028 H 
ATOM     32  H16 9BM d   1      13.882  -0.236   4.657  0.00  0.00     0.028 H 
ATOM     33  H17 9BM d   1      12.504  -0.838   5.640  0.00  0.00     0.028 H 
ENDBRANCH  25  30
BRANCH  25  34
ATOM     34  C20 9BM d   1      12.456   1.029   7.514  0.00  0.00    -0.066 C 
ATOM     35  H18 9BM d   1      12.256   2.038   7.905  0.00  0.00     0.028 H 
ATOM     36  H19 9BM d   1      13.077   0.474   8.232  0.00  0.00     0.028 H 
ATOM     37  H20 9BM d   1      11.504   0.498   7.365  0.00  0.00     0.028 H 
ENDBRANCH  25  34
ENDBRANCH  23  25
ENDBRANCH  13  15
ENDBRANCH   4  13
BRANCH   5  38
ATOM     38  C1  9BM d   1      15.962  -0.991  10.583  0.00  0.00     0.213 C 
ATOM     39  O1  9BM d   1      16.374  -1.306   9.473  0.00  0.00    -0.644 OA
ATOM     40  O02 9BM d   1      16.145  -1.723  11.644  0.00  0.00    -0.644 OA
ENDBRANCH   5  38
BRANCH   2  41
ATOM     41  O05 9BM d   1      12.879   5.253   8.637  0.00  0.00    -0.339 OA
BRANCH  41  42
ATOM     42  C00 9BM d   1      13.642   5.354   7.431  0.00  0.00     0.012 C 
ATOM     43  H23 9BM d   1      13.222   6.149   6.797  0.00  0.00     0.067 H 
ATOM     44  H24 9BM d   1      13.604   4.396   6.892  0.00  0.00     0.067 H 
ATOM     45  H25 9BM d   1      14.687   5.595   7.677  0.00  0.00     0.067 H 
ENDBRANCH  41  42
ENDBRANCH   2  41
BRANCH   1  46
ATOM     46  C05 9BM d   1      12.176   5.919  11.123  0.00  0.00     0.036 A 
ATOM     47  C02 9BM d   1      10.904   6.086  11.715  0.00  0.00     0.072 A 
ATOM     48  N01 9BM d   1      10.582   7.348  11.779  0.00  0.00    -0.133 NA
ATOM     49  O01 9BM d   1      11.672   8.062  11.216  0.00  0.00    -0.217 OA
ATOM     50  C03 9BM d   1      12.605   7.175  10.845  0.00  0.00     0.088 A 
BRANCH  47  51
ATOM     51  C01 9BM d   1       9.949   5.065  12.235  0.00  0.00    -0.033 C 
ATOM     52  H1  9BM d   1      10.378   4.061  12.103  0.00  0.00     0.035 H 
ATOM     53  H2  9BM d   1       9.001   5.134  11.682  0.00  0.00     0.035 H 
ATOM     54  H3  9BM d   1       9.764   5.247  13.304  0.00  0.00     0.035 H 
ENDBRANCH  47  51
BRANCH  50  55
ATOM     55  C04 9BM d   1      13.833   7.735  10.229  0.00  0.00    -0.028 C 
ATOM     56  H4  9BM d   1      14.519   6.915   9.969  0.00  0.00     0.036 H 
ATOM     57  H5  9BM d   1      14.325   8.412  10.943  0.00  0.00     0.036 H 
ATOM     58  H6  9BM d   1      13.566   8.292   9.319  0.00  0.00     0.036 H 
ENDBRANCH  50  55
ENDBRANCH   1  46
TORSDOF 12
