REMARK  8 active torsions:
REMARK  status: ('A' for Active; 'I' for Inactive)
REMARK    1  A    between atoms: C01_1  and  O05_2 
REMARK    2  A    between atoms: O05_2  and  C06_3 
REMARK    3  A    between atoms: N10_7  and  C11_8 
REMARK    4  A    between atoms: C20_13  and  O21_14 
REMARK    5  A    between atoms: O21_14  and  C22_15 
REMARK    6  A    between atoms: C37_27  and  C38_28 
REMARK    7  A    between atoms: C39_29  and  C40_30 
REMARK    8  A    between atoms: C46_33  and  C47_34 
ROOT
ATOM      1  C06 9B6 d   1      13.169   3.884   9.600  0.00  0.00     0.176 A 
ATOM      2  N07 9B6 d   1      13.789   2.794   9.249  0.00  0.00    -0.219 NA
ATOM      3  C08 9B6 d   1      14.043   1.932  10.286  0.00  0.00     0.118 A 
ATOM      4  C09 9B6 d   1      14.720   0.701  10.028  0.00  0.00     0.103 A 
ATOM      5  N10 9B6 d   1      15.225   0.103   8.882  0.00  0.00    -0.257 N 
ATOM      6  C26 9B6 d   1      15.776  -1.064   9.216  0.00  0.00     0.332 A 
ATOM      7  O27 9B6 d   1      16.316  -1.824   8.430  0.00  0.00    -0.246 OA
ATOM      8  N28 9B6 d   1      15.622  -1.234  10.564  0.00  0.00    -0.305 N 
ATOM      9  C30 9B6 d   1      14.959  -0.148  11.111  0.00  0.00     0.084 A 
ATOM     10  C31 9B6 d   1      14.529   0.234  12.378  0.00  0.00     0.031 A 
ATOM     11  N33 9B6 d   1      13.903   1.352  12.663  0.00  0.00    -0.256 NA
ATOM     12  C34 9B6 d   1      13.646   2.224  11.630  0.00  0.00     0.088 A 
ATOM     13  C35 9B6 d   1      12.976   3.425  11.942  0.00  0.00    -0.038 A 
ATOM     14  C37 9B6 d   1      12.743   4.260  10.886  0.00  0.00     0.034 A 
ATOM     15  H8  9B6 d   1      15.942  -2.028  11.081  0.00  0.00     0.171 HD
ATOM     16  H9  9B6 d   1      14.727  -0.448  13.197  0.00  0.00     0.118 H 
ATOM     17  H10 9B6 d   1      12.667   3.669  12.952  0.00  0.00     0.088 H 
ENDROOT
BRANCH   5  18
ATOM     18  C11 9B6 d   1      15.197   0.672   7.555  0.00  0.00     0.078 A 
ATOM     19  C12 9B6 d   1      16.400   1.177   7.071  0.00  0.00    -0.054 A 
ATOM     20  C14 9B6 d   1      16.441   1.758   5.816  0.00  0.00    -0.081 A 
ATOM     21  H4  9B6 d   1      17.299   1.116   7.673  0.00  0.00     0.087 H 
ATOM     22  C16 9B6 d   1      15.300   1.856   5.054  0.00  0.00    -0.080 A 
ATOM     23  H5  9B6 d   1      17.380   2.139   5.430  0.00  0.00     0.083 H 
ATOM     24  C18 9B6 d   1      14.094   1.365   5.526  0.00  0.00    -0.048 A 
ATOM     25  H6  9B6 d   1      15.345   2.321   4.076  0.00  0.00     0.083 H 
ATOM     26  C20 9B6 d   1      14.034   0.778   6.785  0.00  0.00     0.105 A 
ATOM     27  H7  9B6 d   1      13.201   1.438   4.916  0.00  0.00     0.087 H 
BRANCH  26  28
ATOM     28  O21 9B6 d   1      12.892   0.251   7.387  0.00  0.00    -0.253 OA
BRANCH  28  29
ATOM     29  C22 9B6 d   1      11.750   0.319   6.704  0.00  0.00     0.530 C 
ATOM     30  F23 9B6 d   1      11.375   1.549   6.384  0.00  0.00    -0.144 F 
ATOM     31  F24 9B6 d   1      10.797  -0.182   7.464  0.00  0.00    -0.144 F 
ATOM     32  F25 9B6 d   1      11.761  -0.412   5.605  0.00  0.00    -0.144 F 
ENDBRANCH  28  29
ENDBRANCH  26  28
ENDBRANCH   5  18
BRANCH   1  33
ATOM     33  O05 9B6 d   1      12.867   4.793   8.648  0.00  0.00    -0.339 OA
BRANCH  33  34
ATOM     34  C01 9B6 d   1      13.440   4.607   7.346  0.00  0.00     0.012 C 
ATOM     35  H1  9B6 d   1      13.108   5.417   6.680  0.00  0.00     0.067 H 
ATOM     36  H2  9B6 d   1      13.114   3.639   6.937  0.00  0.00     0.067 H 
ATOM     37  H3  9B6 d   1      14.537   4.622   7.423  0.00  0.00     0.067 H 
ENDBRANCH  33  34
ENDBRANCH   1  33
BRANCH  14  38
ATOM     38  C38 9B6 d   1      12.056   5.554  11.095  0.00  0.00     0.036 A 
ATOM     39  C39 9B6 d   1      10.792   5.794  11.675  0.00  0.00     0.072 A 
ATOM     40  N44 9B6 d   1      10.518   7.071  11.679  0.00  0.00    -0.133 NA
ATOM     41  O45 9B6 d   1      11.637   7.716  11.090  0.00  0.00    -0.217 OA
ATOM     42  C46 9B6 d   1      12.535   6.778  10.764  0.00  0.00     0.088 A 
BRANCH  39  43
ATOM     43  C40 9B6 d   1       9.797   4.834  12.236  0.00  0.00    -0.033 C 
ATOM     44  H11 9B6 d   1       8.920   5.388  12.603  0.00  0.00     0.035 H 
ATOM     45  H12 9B6 d   1      10.253   4.277  13.067  0.00  0.00     0.035 H 
ATOM     46  H13 9B6 d   1       9.484   4.130  11.451  0.00  0.00     0.035 H 
ENDBRANCH  39  43
BRANCH  42  47
ATOM     47  C47 9B6 d   1      13.791   7.263  10.137  0.00  0.00    -0.028 C 
ATOM     48  H14 9B6 d   1      13.760   8.360  10.055  0.00  0.00     0.036 H 
ATOM     49  H15 9B6 d   1      13.894   6.823   9.134  0.00  0.00     0.036 H 
ATOM     50  H16 9B6 d   1      14.649   6.966  10.758  0.00  0.00     0.036 H 
ENDBRANCH  42  47
ENDBRANCH  14  38
TORSDOF 8
