REMARK  15 active torsions:
REMARK  status: ('A' for Active; 'I' for Inactive)
REMARK    1  A    between atoms: CBB_5  and  CAP_6 
REMARK    2  A    between atoms: CAP_6  and  CBE_7 
REMARK    3  A    between atoms: CBE_7  and  NAD_8 
REMARK    4  A    between atoms: CBE_7  and  CAZ_9 
REMARK       I    between atoms: CAZ_9  and  NAV_11 
REMARK    5  A    between atoms: NAV_11  and  CBF_12 
REMARK    6  A    between atoms: CBF_12  and  CAO_13 
REMARK    7  A    between atoms: CBF_12  and  PBG_20 
REMARK    8  A    between atoms: CAO_13  and  CBA_14 
REMARK    9  A    between atoms: PBG_20  and  CAQ_23 
REMARK   10  A    between atoms: CAQ_23  and  CBC_24 
REMARK   11  A    between atoms: CBC_24  and  CAA_25 
REMARK   12  A    between atoms: CBC_24  and  CAY_26 
REMARK       I    between atoms: CAY_26  and  N_28 
REMARK   13  A    between atoms: N_28  and  CA_29 
REMARK   14  A    between atoms: CA_29  and  CB_30 
REMARK   15  A    between atoms: CA_29  and  C_31 
REMARK       I    between atoms: C_31  and  NAC_33 
ROOT
ATOM      1  CBF 1IU d   1      -2.198 -16.925 -23.294  0.00  0.00     0.091 C 
ATOM      2  H9  1IU d   1      -2.333 -16.921 -24.386  0.00  0.00     0.089 H 
ENDROOT
BRANCH   1   3
ATOM      3  NAV 1IU d   1      -3.082 -17.940 -22.694  0.00  0.00    -0.345 N 
ATOM      4  CAZ 1IU d   1      -3.780 -18.783 -23.491  0.00  0.00     0.249 C 
ATOM      5  OAG 1IU d   1      -3.796 -18.691 -24.709  0.00  0.00    -0.271 OA
ATOM      6  H8  1IU d   1      -3.166 -18.006 -21.700  0.00  0.00     0.163 HD
BRANCH   4   7
ATOM      7  CBE 1IU d   1      -4.610 -19.936 -22.893  0.00  0.00     0.182 C 
ATOM      8  H4  1IU d   1      -4.348 -20.856 -23.437  0.00  0.00     0.099 H 
BRANCH   7   9
ATOM      9  CAP 1IU d   1      -4.307 -20.199 -21.428  0.00  0.00     0.028 C 
ATOM     10  H2  1IU d   1      -3.236 -20.422 -21.316  0.00  0.00     0.048 H 
ATOM     11  H3  1IU d   1      -4.559 -19.303 -20.841  0.00  0.00     0.048 H 
BRANCH   9  12
ATOM     12  CBB 1IU d   1      -5.120 -21.380 -20.912  0.00  0.00     0.148 A 
ATOM     13  NAS 1IU d   1      -5.747 -22.302 -21.634  0.00  0.00    -0.243 N 
ATOM     14  NAR 1IU d   1      -6.288 -23.036 -20.813  0.00  0.00    -0.047 NA
ATOM     15  H1  1IU d   1      -5.773 -22.383 -22.660  0.00  0.00     0.192 HD
ATOM     16  NAW 1IU d   1      -6.047 -22.628 -19.619  0.00  0.00    -0.023 NA
ATOM     17  NAT 1IU d   1      -5.349 -21.628 -19.629  0.00  0.00    -0.114 NA
ENDBRANCH   9  12
ENDBRANCH   7   9
BRANCH   7  18
ATOM     18  NAD 1IU d   1      -6.017 -19.647 -23.162  0.00  0.00    -0.066 N 
ATOM     19  H5  1IU d   1      -6.144 -19.484 -24.149  0.00  0.00     0.275 HD
ATOM     20  H6  1IU d   1      -6.296 -18.827 -22.647  0.00  0.00     0.275 HD
ATOM     21  H7  1IU d   1      -6.582 -20.431 -22.876  0.00  0.00     0.275 HD
ENDBRANCH   7  18
ENDBRANCH   4   7
ENDBRANCH   1   3
BRANCH   1  22
ATOM     22  CAO 1IU d   1      -2.458 -15.523 -22.781  0.00  0.00    -0.013 C 
ATOM     23  H10 1IU d   1      -1.712 -14.832 -23.201  0.00  0.00     0.044 H 
ATOM     24  H11 1IU d   1      -2.390 -15.513 -21.683  0.00  0.00     0.044 H 
BRANCH  22  25
ATOM     25  CBA 1IU d   1      -3.760 -15.121 -23.182  0.00  0.00    -0.056 A 
ATOM     26  CAM 1IU d   1      -4.808 -15.044 -22.263  0.00  0.00    -0.077 A 
ATOM     27  CAK 1IU d   1      -6.082 -14.638 -22.673  0.00  0.00    -0.082 A 
ATOM     28  H12 1IU d   1      -4.633 -15.301 -21.224  0.00  0.00     0.084 H 
ATOM     29  CAJ 1IU d   1      -6.337 -14.292 -23.998  0.00  0.00    -0.083 A 
ATOM     30  H13 1IU d   1      -6.885 -14.592 -21.947  0.00  0.00     0.083 H 
ATOM     31  CAL 1IU d   1      -5.288 -14.361 -24.909  0.00  0.00    -0.082 A 
ATOM     32  H14 1IU d   1      -7.326 -13.977 -24.311  0.00  0.00     0.083 H 
ATOM     33  CAN 1IU d   1      -4.017 -14.764 -24.504  0.00  0.00    -0.077 A 
ATOM     34  H15 1IU d   1      -5.461 -14.098 -25.946  0.00  0.00     0.083 H 
ATOM     35  H16 1IU d   1      -3.214 -14.800 -25.231  0.00  0.00     0.084 H 
ENDBRANCH  22  25
ENDBRANCH   1  22
BRANCH   1  36
ATOM     36  PBG 1IU d   1      -0.456 -17.496 -22.868  0.00  0.00     0.130 P 
ATOM     37  OAI 1IU d   1      -0.301 -18.909 -23.551  0.00  0.00    -0.666 OA
ATOM     38  OAH 1IU d   1      -0.275 -17.643 -21.402  0.00  0.00    -0.666 OA
BRANCH  36  39
ATOM     39  CAQ 1IU d   1       0.595 -16.389 -23.748  0.00  0.00     0.020 C 
ATOM     40  H17 1IU d   1       0.124 -15.396 -23.805  0.00  0.00     0.050 H 
ATOM     41  H18 1IU d   1       0.768 -16.771 -24.765  0.00  0.00     0.050 H 
BRANCH  39  42
ATOM     42  CBC 1IU d   1       1.939 -16.286 -22.994  0.00  0.00     0.029 C 
ATOM     43  H19 1IU d   1       2.135 -17.247 -22.496  0.00  0.00     0.054 H 
BRANCH  42  44
ATOM     44  CAA 1IU d   1       3.083 -15.970 -23.999  0.00  0.00    -0.064 C 
ATOM     45  H20 1IU d   1       4.037 -15.898 -23.457  0.00  0.00     0.028 H 
ATOM     46  H21 1IU d   1       2.875 -15.015 -24.503  0.00  0.00     0.028 H 
ATOM     47  H22 1IU d   1       3.146 -16.774 -24.747  0.00  0.00     0.028 H 
ENDBRANCH  42  44
BRANCH  42  48
ATOM     48  CAY 1IU d   1       1.954 -15.154 -21.938  0.00  0.00     0.222 C 
ATOM     49  OAF 1IU d   1       1.142 -14.221 -21.962  0.00  0.00    -0.273 OA
ATOM     50  N   1IU d   1       2.983 -15.251 -21.080  0.00  0.00    -0.348 N 
ATOM     51  H23 1IU d   1       3.616 -16.018 -21.187  0.00  0.00     0.163 HD
BRANCH  50  52
ATOM     52  CA  1IU d   1       3.231 -14.291 -19.990  0.00  0.00     0.086 C 
ATOM     53  H24 1IU d   1       2.300 -14.167 -19.417  0.00  0.00     0.086 H 
BRANCH  52  54
ATOM     54  CB  1IU d   1       4.323 -14.832 -19.050  0.00  0.00    -0.049 C 
ATOM     55  H25 1IU d   1       4.501 -14.109 -18.240  0.00  0.00     0.030 H 
ATOM     56  H26 1IU d   1       5.253 -14.983 -19.617  0.00  0.00     0.030 H 
ATOM     57  H27 1IU d   1       3.995 -15.790 -18.620  0.00  0.00     0.030 H 
ENDBRANCH  52  54
BRANCH  52  58
ATOM     58  C   1IU d   1       3.654 -12.908 -20.544  0.00  0.00     0.237 C 
ATOM     59  O   1IU d   1       3.354 -11.886 -19.924  0.00  0.00    -0.271 OA
ATOM     60  NAC 1IU d   1       4.312 -12.887 -21.710  0.00  0.00    -0.368 N 
ATOM     61  H28 1IU d   1       4.604 -12.015 -22.104  0.00  0.00     0.159 HD
ATOM     62  H29 1IU d   1       4.512 -13.743 -22.187  0.00  0.00     0.159 HD
ENDBRANCH  52  58
ENDBRANCH  50  52
ENDBRANCH  42  48
ENDBRANCH  39  42
ENDBRANCH  36  39
ENDBRANCH   1  36
TORSDOF 15
