REMARK WARNING: 32 MAX_TORS EXCEEDED!!!
REMARK  68 active torsions:
REMARK  status: ('A' for Active; 'I' for Inactive)
REMARK    1  A    between atoms: N_1  and  CA_2 
REMARK    2  A    between atoms: CA_2  and  C_3 
REMARK    3  A    between atoms: CA_2  and  CB_5 
REMARK       I    between atoms: C_3  and  N_6 
REMARK    4  A    between atoms: N_6  and  CA_7 
REMARK    5  A    between atoms: CA_7  and  C_8 
REMARK    6  A    between atoms: CA_7  and  CB_10 
REMARK       I    between atoms: C_8  and  N_12 
REMARK    7  A    between atoms: CB_10  and  OG_11 
REMARK    8  A    between atoms: N_12  and  CA_13 
REMARK    9  A    between atoms: CA_13  and  C_14 
REMARK   10  A    between atoms: CA_13  and  CB_16 
REMARK       I    between atoms: C_14  and  N_21 
REMARK   11  A    between atoms: CB_16  and  CG_17 
REMARK   12  A    between atoms: CG_17  and  CD_18 
REMARK   13  A    between atoms: N_21  and  CA_22 
REMARK   14  A    between atoms: CA_22  and  C_23 
REMARK   15  A    between atoms: CA_22  and  CB_25 
REMARK       I    between atoms: C_23  and  N_29 
REMARK   16  A    between atoms: CB_25  and  CG_26 
REMARK   17  A    between atoms: N_29  and  CA_30 
REMARK   18  A    between atoms: CA_30  and  C_31 
REMARK   19  A    between atoms: CA_30  and  CB_33 
REMARK       I    between atoms: C_31  and  N_38 
REMARK   20  A    between atoms: CB_33  and  CG_34 
REMARK   21  A    between atoms: CG_34  and  CD_35 
REMARK   22  A    between atoms: N_38  and  CA_39 
REMARK   23  A    between atoms: CA_39  and  C_40 
REMARK   24  A    between atoms: CA_39  and  CB_42 
REMARK       I    between atoms: C_40  and  N_46 
REMARK   25  A    between atoms: CB_42  and  CG_43 
REMARK   26  A    between atoms: CG_43  and  CD1_44 
REMARK   27  A    between atoms: CG_43  and  CD2_45 
REMARK   28  A    between atoms: N_46  and  CA_47 
REMARK   29  A    between atoms: CA_47  and  C_48 
REMARK   30  A    between atoms: CA_47  and  CB_50 
REMARK       I    between atoms: C_48  and  N_53 
REMARK   31  A    between atoms: CB_50  and  CG1_51 
REMARK   32  A    between atoms: CB_50  and  CG2_52 
REMARK   33  A    between atoms: N_53  and  CA_54 
REMARK   34  A    between atoms: CA_54  and  C_55 
REMARK   35  A    between atoms: CA_54  and  CB_57 
REMARK       I    between atoms: C_55  and  N_58 
REMARK   36  A    between atoms: N_58  and  CA_59 
REMARK   37  A    between atoms: CA_59  and  C_60 
REMARK   38  A    between atoms: CA_59  and  CB_62 
REMARK       I    between atoms: C_60  and  N_67 
REMARK   39  A    between atoms: CB_62  and  CG_63 
REMARK   40  A    between atoms: CG_63  and  CD_64 
REMARK   41  A    between atoms: N_67  and  CA_68 
REMARK   42  A    between atoms: CA_68  and  C_69 
REMARK   43  A    between atoms: CA_68  and  CB_71 
REMARK       I    between atoms: C_69  and  N_78 
REMARK   44  A    between atoms: CB_71  and  CG_72 
REMARK   45  A    between atoms: N_78  and  CA_79 
REMARK   46  A    between atoms: CA_79  and  C_80 
REMARK   47  A    between atoms: CA_79  and  CB_82 
REMARK       I    between atoms: C_80  and  N_86 
REMARK   48  A    between atoms: CB_82  and  CG_83 
REMARK   49  A    between atoms: CG_83  and  CD1_84 
REMARK   50  A    between atoms: CG_83  and  CD2_85 
REMARK   51  A    between atoms: N_86  and  CA_87 
REMARK   52  A    between atoms: CA_87  and  C_88 
REMARK   53  A    between atoms: CA_87  and  CB_90 
REMARK       I    between atoms: C_88  and  N_95 
REMARK   54  A    between atoms: CB_90  and  CG_91 
REMARK   55  A    between atoms: CG_91  and  CD_92 
REMARK       I    between atoms: CD_92  and  NE2_94 
REMARK   56  A    between atoms: N_95  and  CA_96 
REMARK   57  A    between atoms: CA_96  and  C_97 
REMARK   58  A    between atoms: CA_96  and  CB_99 
REMARK       I    between atoms: C_97  and  N_103 
REMARK   59  A    between atoms: CB_99  and  CG_100 
REMARK   60  A    between atoms: N_103  and  CA_104 
REMARK   61  A    between atoms: CA_104  and  C_105 
REMARK   62  A    between atoms: CA_104  and  CB_107 
REMARK       I    between atoms: C_105  and  N_112 
REMARK   63  A    between atoms: CB_107  and  CG_108 
REMARK   64  A    between atoms: CG_108  and  CD_109 
REMARK       I    between atoms: CD_109  and  NE2_111 
REMARK   65  A    between atoms: N_112  and  CA_113 
REMARK   66  A    between atoms: CA_113  and  C_114 
REMARK   67  A    between atoms: CA_113  and  CB_116 
REMARK   68  A    between atoms: CB_116  and  CG_117 
REMARK       I    between atoms: CG_117  and  ND2_119 
ROOT
ATOM      1  CA  GLU d   1      23.371  -2.334  -1.338  0.00  0.00     0.090 C 
ATOM      2  H55 GLU d   1      24.468  -2.401  -1.305  0.00  0.00     0.087 H 
ENDROOT
BRANCH   1   3
ATOM      3  N   GLU d   1      22.832  -2.688  -0.028  0.00  0.00    -0.346 N 
ATOM      4  C   ALA d   1      23.098  -1.962   1.057  0.00  0.00     0.240 C 
ATOM      5  O   ALA d   1      23.858  -0.998   1.046  0.00  0.00    -0.271 OA
ATOM      6  H54 GLU d   1      22.248  -3.496   0.057  0.00  0.00     0.163 HD
BRANCH   4   7
ATOM      7  CA  ALA d   1      22.381  -2.363   2.341  0.00  0.00     0.086 C 
ATOM      8  H50 ALA d   1      22.475  -1.532   3.055  0.00  0.00     0.086 H 
BRANCH   7   9
ATOM      9  N   ALA d   1      20.978  -2.596   2.095  0.00  0.00    -0.346 N 
ATOM     10  C   VAL d   1      20.167  -1.627   1.708  0.00  0.00     0.241 C 
ATOM     11  O   VAL d   1      20.561  -0.490   1.445  0.00  0.00    -0.271 OA
ATOM     12  H49 ALA d   1      20.609  -3.517   2.221  0.00  0.00     0.163 HD
BRANCH  10  13
ATOM     13  CA  VAL d   1      18.701  -2.022   1.520  0.00  0.00     0.092 C 
ATOM     14  H41 VAL d   1      18.205  -1.235   0.932  0.00  0.00     0.088 H 
BRANCH  13  15
ATOM     15  N   VAL d   1      18.613  -3.266   0.767  0.00  0.00    -0.346 N 
ATOM     16  C   LEU d   1      19.189  -3.385  -0.426  0.00  0.00     0.241 C 
ATOM     17  O   LEU d   1      19.843  -2.486  -0.941  0.00  0.00    -0.271 OA
ATOM     18  H40 VAL d   1      18.113  -4.041   1.152  0.00  0.00     0.163 HD
BRANCH  16  19
ATOM     19  CA  LEU d   1      19.013  -4.705  -1.149  0.00  0.00     0.089 C 
ATOM     20  H30 LEU d   1      19.681  -4.708  -2.023  0.00  0.00     0.087 H 
BRANCH  19  21
ATOM     21  N   LEU d   1      19.384  -5.832  -0.305  0.00  0.00    -0.346 N 
ATOM     22  C   GLU d   1      20.653  -6.081   0.000  0.00  0.00     0.241 C 
ATOM     23  O   GLU d   1      21.586  -5.371  -0.380  0.00  0.00    -0.271 OA
ATOM     24  H29 LEU d   1      18.668  -6.432   0.053  0.00  0.00     0.163 HD
BRANCH  22  25
ATOM     25  CA  GLU d   1      20.908  -7.295   0.892  0.00  0.00     0.090 C 
ATOM     26  H24 GLU d   1      21.884  -7.165   1.383  0.00  0.00     0.087 H 
BRANCH  25  27
ATOM     27  N   GLU d   1      19.884  -7.405   1.926  0.00  0.00    -0.346 N 
ATOM     28  C   ASP d   1      19.666  -6.424   2.792  0.00  0.00     0.241 C 
ATOM     29  O   ASP d   1      20.308  -5.374   2.784  0.00  0.00    -0.271 OA
ATOM     30  H23 GLU d   1      19.334  -8.239   1.983  0.00  0.00     0.163 HD
BRANCH  28  31
ATOM     31  CA  ASP d   1      18.559  -6.651   3.817  0.00  0.00     0.098 C 
ATOM     32  H20 ASP d   1      18.315  -5.685   4.282  0.00  0.00     0.088 H 
BRANCH  31  33
ATOM     33  N   ASP d   1      17.343  -7.176   3.191  0.00  0.00    -0.346 N 
ATOM     34  C   GLU d   1      16.713  -6.536   2.208  0.00  0.00     0.241 C 
ATOM     35  O   GLU d   1      17.133  -5.494   1.705  0.00  0.00    -0.271 OA
ATOM     36  H19 ASP d   1      16.973  -8.047   3.514  0.00  0.00     0.163 HD
BRANCH  34  37
ATOM     37  CA  GLU d   1      15.414  -7.170   1.714  0.00  0.00     0.090 C 
ATOM     38  H14 GLU d   1      15.480  -7.291   0.623  0.00  0.00     0.087 H 
BRANCH  37  39
ATOM     39  N   GLU d   1      15.211  -8.485   2.311  0.00  0.00    -0.346 N 
ATOM     40  C   SER d   1      15.784  -9.569   1.818  0.00  0.00     0.243 C 
ATOM     41  O   SER d   1      16.567  -9.536   0.866  0.00  0.00    -0.271 OA
ATOM     42  H13 GLU d   1      14.622  -8.569   3.115  0.00  0.00     0.163 HD
BRANCH  40  43
ATOM     43  CA  SER d   1      15.416 -10.892   2.483  0.00  0.00     0.109 C 
ATOM     44  H9  SER d   1      14.331 -10.902   2.662  0.00  0.00     0.090 H 
BRANCH  43  45
ATOM     45  N   SER d   1      15.751 -12.001   1.611  0.00  0.00    -0.344 N 
ATOM     46  C   ALA d   1      14.822 -12.647   0.930  0.00  0.00     0.248 C 
ATOM     47  O   ALA d   1      13.621 -12.377   1.008  0.00  0.00    -0.271 OA
ATOM     48  H8  SER d   1      16.706 -12.283   1.523  0.00  0.00     0.163 HD
BRANCH  46  49
ATOM     49  CA  ALA d   1      15.305 -13.776   0.031  0.00  0.00     0.172 C 
ATOM     50  H4  ALA d   1      16.174 -14.255   0.506  0.00  0.00     0.098 H 
BRANCH  49  51
ATOM     51  N   ALA d   1      14.261 -14.770  -0.133  0.00  0.00    -0.067 N 
ATOM     52  H1  ALA d   1      14.594 -15.511  -0.730  0.00  0.00     0.275 HD
ATOM     53  H2  ALA d   1      13.450 -14.340  -0.551  0.00  0.00     0.275 HD
ATOM     54  H3  ALA d   1      14.014 -15.149   0.768  0.00  0.00     0.275 HD
ENDBRANCH  49  51
BRANCH  49  55
ATOM     55  CB  ALA d   1      15.732 -13.234  -1.323  0.00  0.00    -0.042 C 
ATOM     56  H5  ALA d   1      16.523 -12.482  -1.184  0.00  0.00     0.030 H 
ATOM     57  H6  ALA d   1      14.868 -12.770  -1.821  0.00  0.00     0.030 H 
ATOM     58  H7  ALA d   1      16.114 -14.058  -1.944  0.00  0.00     0.030 H 
ENDBRANCH  49  55
ENDBRANCH  46  49
ENDBRANCH  43  45
BRANCH  43  59
ATOM     59  CB  SER d   1      16.130 -11.045   3.827  0.00  0.00     0.044 C 
ATOM     60  H10 SER d   1      15.845 -10.210   4.483  0.00  0.00     0.077 H 
ATOM     61  H11 SER d   1      17.217 -11.027   3.661  0.00  0.00     0.077 H 
BRANCH  59  62
ATOM     62  OG  SER d   1      15.776 -12.268   4.452  0.00  0.00    -0.398 OA
ATOM     63  H12 SER d   1      16.230 -12.341   5.283  0.00  0.00     0.209 HD
ENDBRANCH  59  62
ENDBRANCH  43  59
ENDBRANCH  40  43
ENDBRANCH  37  39
BRANCH  37  64
ATOM     64  CB  GLU d   1      14.229  -6.259   2.033  0.00  0.00    -0.029 C 
ATOM     65  H15 GLU d   1      14.301  -5.361   1.401  0.00  0.00     0.037 H 
ATOM     66  H16 GLU d   1      14.290  -5.968   3.092  0.00  0.00     0.037 H 
BRANCH  64  67
ATOM     67  CG  GLU d   1      12.874  -6.911   1.790  0.00  0.00     0.018 C 
ATOM     68  H17 GLU d   1      12.088  -6.174   2.013  0.00  0.00     0.049 H 
ATOM     69  H18 GLU d   1      12.774  -7.770   2.469  0.00  0.00     0.049 H 
BRANCH  67  70
ATOM     70  CD  GLU d   1      12.685  -7.400   0.365  0.00  0.00     0.172 C 
ATOM     71  OE1 GLU d   1      12.235  -6.611  -0.486  0.00  0.00    -0.648 OA
ATOM     72  OE2 GLU d   1      12.967  -8.588   0.094  0.00  0.00    -0.648 OA
ENDBRANCH  67  70
ENDBRANCH  64  67
ENDBRANCH  37  64
ENDBRANCH  34  37
ENDBRANCH  31  33
BRANCH  31  73
ATOM     73  CB  ASP d   1      19.055  -7.604   4.906  0.00  0.00     0.043 C 
ATOM     74  H21 ASP d   1      19.215  -8.597   4.459  0.00  0.00     0.052 H 
ATOM     75  H22 ASP d   1      18.286  -7.674   5.690  0.00  0.00     0.052 H 
BRANCH  73  76
ATOM     76  CG  ASP d   1      20.354  -7.142   5.540  0.00  0.00     0.175 C 
ATOM     77  OD1 ASP d   1      20.304  -6.317   6.478  0.00  0.00    -0.648 OA
ATOM     78  OD2 ASP d   1      21.432  -7.616   5.116  0.00  0.00    -0.648 OA
ENDBRANCH  73  76
ENDBRANCH  31  73
ENDBRANCH  28  31
ENDBRANCH  25  27
BRANCH  25  79
ATOM     79  CB  GLU d   1      20.956  -8.571   0.050  0.00  0.00    -0.029 C 
ATOM     80  H25 GLU d   1      21.733  -8.453  -0.719  0.00  0.00     0.037 H 
ATOM     81  H26 GLU d   1      19.978  -8.707  -0.435  0.00  0.00     0.037 H 
BRANCH  79  82
ATOM     82  CG  GLU d   1      21.268  -9.816   0.864  0.00  0.00     0.018 C 
ATOM     83  H27 GLU d   1      20.502  -9.925   1.646  0.00  0.00     0.049 H 
ATOM     84  H28 GLU d   1      22.255  -9.691   1.333  0.00  0.00     0.049 H 
BRANCH  82  85
ATOM     85  CD  GLU d   1      21.287 -11.075   0.028  0.00  0.00     0.172 C 
ATOM     86  OE1 GLU d   1      20.227 -11.448  -0.522  0.00  0.00    -0.648 OA
ATOM     87  OE2 GLU d   1      22.356 -11.709  -0.073  0.00  0.00    -0.648 OA
ENDBRANCH  82  85
ENDBRANCH  79  82
ENDBRANCH  25  79
ENDBRANCH  22  25
ENDBRANCH  19  21
BRANCH  19  88
ATOM     88  CB  LEU d   1      17.580  -4.826  -1.648  0.00  0.00    -0.035 C 
ATOM     89  H31 LEU d   1      17.207  -3.816  -1.871  0.00  0.00     0.037 H 
ATOM     90  H32 LEU d   1      16.973  -5.272  -0.847  0.00  0.00     0.037 H 
BRANCH  88  91
ATOM     91  CG  LEU d   1      17.420  -5.680  -2.898  0.00  0.00    -0.059 C 
ATOM     92  H33 LEU d   1      18.289  -5.502  -3.548  0.00  0.00     0.038 H 
BRANCH  91  93
ATOM     93  CD1 LEU d   1      17.399  -7.156  -2.545  0.00  0.00    -0.073 C 
ATOM     94  H34 LEU d   1      17.283  -7.751  -3.463  0.00  0.00     0.028 H 
ATOM     95  H35 LEU d   1      16.557  -7.359  -1.867  0.00  0.00     0.028 H 
ATOM     96  H36 LEU d   1      18.342  -7.428  -2.049  0.00  0.00     0.028 H 
ENDBRANCH  91  93
BRANCH  91  97
ATOM     97  CD2 LEU d   1      16.176  -5.267  -3.658  0.00  0.00    -0.073 C 
ATOM     98  H37 LEU d   1      16.230  -4.194  -3.894  0.00  0.00     0.028 H 
ATOM     99  H38 LEU d   1      15.287  -5.462  -3.040  0.00  0.00     0.028 H 
ATOM    100  H39 LEU d   1      16.108  -5.845  -4.591  0.00  0.00     0.028 H 
ENDBRANCH  91  97
ENDBRANCH  88  91
ENDBRANCH  19  88
ENDBRANCH  16  19
ENDBRANCH  13  15
BRANCH  13 101
ATOM    101  CB  VAL d   1      17.980  -2.114   2.893  0.00  0.00    -0.033 C 
ATOM    102  H42 VAL d   1      16.978  -2.531   2.712  0.00  0.00     0.042 H 
BRANCH 101 103
ATOM    103  CG1 VAL d   1      18.693  -3.048   3.865  0.00  0.00    -0.071 C 
ATOM    104  H43 VAL d   1      18.143  -3.076   4.817  0.00  0.00     0.028 H 
ATOM    105  H44 VAL d   1      19.715  -2.682   4.043  0.00  0.00     0.028 H 
ATOM    106  H45 VAL d   1      18.736  -4.060   3.436  0.00  0.00     0.028 H 
ENDBRANCH 101 103
BRANCH 101 107
ATOM    107  CG2 VAL d   1      17.804  -0.731   3.499  0.00  0.00    -0.071 C 
ATOM    108  H46 VAL d   1      17.288  -0.078   2.779  0.00  0.00     0.028 H 
ATOM    109  H47 VAL d   1      18.791  -0.307   3.737  0.00  0.00     0.028 H 
ATOM    110  H48 VAL d   1      17.206  -0.807   4.419  0.00  0.00     0.028 H 
ENDBRANCH 101 107
ENDBRANCH  13 101
ENDBRANCH  10  13
ENDBRANCH   7   9
BRANCH   7 111
ATOM    111  CB  ALA d   1      22.995  -3.596   2.968  0.00  0.00    -0.049 C 
ATOM    112  H51 ALA d   1      24.064  -3.418   3.155  0.00  0.00     0.030 H 
ATOM    113  H52 ALA d   1      22.880  -4.451   2.285  0.00  0.00     0.030 H 
ATOM    114  H53 ALA d   1      22.488  -3.815   3.919  0.00  0.00     0.030 H 
ENDBRANCH   7 111
ENDBRANCH   4   7
ENDBRANCH   1   3
BRANCH   1 115
ATOM    115  C   GLU d   1      22.973  -0.904  -1.696  0.00  0.00     0.241 C 
ATOM    116  O   GLU d   1      23.781  -0.122  -2.196  0.00  0.00    -0.271 OA
ATOM    117  N   PHE d   1      21.724  -0.579  -1.395  0.00  0.00    -0.346 N 
ATOM    118  H60 PHE d   1      21.147  -1.267  -0.954  0.00  0.00     0.163 HD
BRANCH 117 119
ATOM    119  CA  PHE d   1      21.150   0.728  -1.674  0.00  0.00     0.093 C 
ATOM    120  H61 PHE d   1      21.128   0.870  -2.764  0.00  0.00     0.088 H 
BRANCH 119 121
ATOM    121  C   PHE d   1      21.981   1.859  -1.069  0.00  0.00     0.241 C 
ATOM    122  O   PHE d   1      22.641   2.606  -1.797  0.00  0.00    -0.271 OA
ATOM    123  N   LEU d   1      21.974   1.987   0.257  0.00  0.00    -0.346 N 
ATOM    124  H69 LEU d   1      21.517   1.302   0.824  0.00  0.00     0.163 HD
BRANCH 123 125
ATOM    125  CA  LEU d   1      22.637   3.133   0.881  0.00  0.00     0.089 C 
ATOM    126  H70 LEU d   1      22.387   3.996   0.246  0.00  0.00     0.087 H 
BRANCH 125 127
ATOM    127  C   LEU d   1      24.160   3.025   0.869  0.00  0.00     0.241 C 
ATOM    128  O   LEU d   1      24.841   4.037   0.976  0.00  0.00    -0.271 OA
ATOM    129  N   GLN d   1      24.709   1.817   0.752  0.00  0.00    -0.346 N 
ATOM    130  H80 GLN d   1      24.127   1.004   0.732  0.00  0.00     0.163 HD
BRANCH 129 131
ATOM    131  CA  GLN d   1      26.161   1.678   0.653  0.00  0.00     0.090 C 
ATOM    132  H81 GLN d   1      26.614   2.307   1.433  0.00  0.00     0.087 H 
BRANCH 131 133
ATOM    133  C   GLN d   1      26.657   2.163  -0.703  0.00  0.00     0.241 C 
ATOM    134  O   GLN d   1      27.718   2.780  -0.800  0.00  0.00    -0.271 OA
ATOM    135  N   ASP d   1      25.890   1.883  -1.750  0.00  0.00    -0.346 N 
ATOM    136  H88 ASP d   1      25.043   1.369  -1.613  0.00  0.00     0.163 HD
BRANCH 135 137
ATOM    137  CA  ASP d   1      26.256   2.309  -3.098  0.00  0.00     0.098 C 
ATOM    138  H89 ASP d   1      27.334   2.136  -3.236  0.00  0.00     0.088 H 
BRANCH 137 139
ATOM    139  C   ASP d   1      25.976   3.794  -3.296  0.00  0.00     0.241 C 
ATOM    140  O   ASP d   1      26.724   4.496  -3.978  0.00  0.00    -0.271 OA
ATOM    141  N   GLN d   1      24.902   4.274  -2.685  0.00  0.00    -0.346 N 
ATOM    142  H92 GLN d   1      24.348   3.663  -2.120  0.00  0.00     0.163 HD
BRANCH 141 143
ATOM    143  CA  GLN d   1      24.510   5.672  -2.817  0.00  0.00     0.090 C 
ATOM    144  H93 GLN d   1      24.938   6.069  -3.749  0.00  0.00     0.087 H 
BRANCH 143 145
ATOM    145  C   GLN d   1      25.051   6.504  -1.647  0.00  0.00     0.241 C 
ATOM    146  O   GLN d   1      24.629   7.639  -1.420  0.00  0.00    -0.271 OA
ATOM    147  N   ASN d   1      26.010   5.947  -0.924  0.00  0.00    -0.344 N 
ATOM    148 0H10 ASN d   1      26.348   5.040  -1.175  0.00  0.00     0.163 HD
BRANCH 147 149
ATOM    149  CA  ASN d   1      26.584   6.629   0.232  0.00  0.00     0.104 C 
ATOM    150 1H10 ASN d   1      25.761   6.973   0.875  0.00  0.00     0.090 H 
BRANCH 149 151
ATOM    151  C   ASN d   1      27.392   7.845  -0.208  0.00  0.00     0.197 C 
ATOM    152  O   ASN d   1      27.188   8.971   0.320  0.00  0.00    -0.646 OA
ATOM    153  O   ASN d   1      28.269   7.723  -1.105  0.00  0.00    -0.646 OA
ENDBRANCH 149 151
BRANCH 149 154
ATOM    154  CB  ASN d   1      27.464   5.670   1.042  0.00  0.00     0.037 C 
ATOM    155 2H10 ASN d   1      28.301   5.342   0.409  0.00  0.00     0.051 H 
ATOM    156 3H10 ASN d   1      26.860   4.798   1.332  0.00  0.00     0.051 H 
BRANCH 154 157
ATOM    157  CG  ASN d   1      28.027   6.309   2.298  0.00  0.00     0.217 C 
ATOM    158  OD1 ASN d   1      27.370   6.341   3.339  0.00  0.00    -0.274 OA
ATOM    159  ND2 ASN d   1      29.254   6.797   2.218  0.00  0.00    -0.370 N 
ATOM    160 4H10 ASN d   1      29.673   7.229   3.017  0.00  0.00     0.159 HD
ATOM    161 5H10 ASN d   1      29.762   6.734   1.359  0.00  0.00     0.159 HD
ENDBRANCH 154 157
ENDBRANCH 149 154
ENDBRANCH 147 149
ENDBRANCH 143 145
BRANCH 143 162
ATOM    162  CB  GLN d   1      22.981   5.768  -2.902  0.00  0.00    -0.030 C 
ATOM    163  H94 GLN d   1      22.562   5.456  -1.934  0.00  0.00     0.037 H 
ATOM    164  H95 GLN d   1      22.636   5.081  -3.689  0.00  0.00     0.037 H 
BRANCH 162 165
ATOM    165  CG  GLN d   1      22.455   7.161  -3.222  0.00  0.00     0.011 C 
ATOM    166  H96 GLN d   1      22.691   7.827  -2.379  0.00  0.00     0.047 H 
ATOM    167  H97 GLN d   1      21.364   7.103  -3.350  0.00  0.00     0.047 H 
BRANCH 165 168
ATOM    168  CD  GLN d   1      23.059   7.745  -4.483  0.00  0.00     0.215 C 
ATOM    169  OE1 GLN d   1      22.533   7.563  -5.582  0.00  0.00    -0.274 OA
ATOM    170  NE2 GLN d   1      24.161   8.463  -4.328  0.00  0.00    -0.370 N 
ATOM    171  H98 GLN d   1      24.606   8.874  -5.124  0.00  0.00     0.159 HD
ATOM    172  H99 GLN d   1      24.548   8.594  -3.415  0.00  0.00     0.159 HD
ENDBRANCH 165 168
ENDBRANCH 162 165
ENDBRANCH 143 162
ENDBRANCH 141 143
ENDBRANCH 137 139
BRANCH 137 173
ATOM    173  CB  ASP d   1      25.493   1.488  -4.140  0.00  0.00     0.043 C 
ATOM    174  H90 ASP d   1      24.416   1.576  -3.937  0.00  0.00     0.052 H 
ATOM    175  H91 ASP d   1      25.798   0.435  -4.050  0.00  0.00     0.052 H 
BRANCH 173 176
ATOM    176  CG  ASP d   1      25.757   1.949  -5.558  0.00  0.00     0.175 C 
ATOM    177  OD1 ASP d   1      26.848   1.658  -6.091  0.00  0.00    -0.648 OA
ATOM    178  OD2 ASP d   1      24.865   2.588  -6.154  0.00  0.00    -0.648 OA
ENDBRANCH 173 176
ENDBRANCH 137 173
ENDBRANCH 135 137
ENDBRANCH 131 133
BRANCH 131 179
ATOM    179  CB  GLN d   1      26.618   0.236   0.881  0.00  0.00    -0.030 C 
ATOM    180  H82 GLN d   1      27.673   0.156   0.582  0.00  0.00     0.037 H 
ATOM    181  H83 GLN d   1      26.006  -0.425   0.249  0.00  0.00     0.037 H 
BRANCH 179 182
ATOM    182  CG  GLN d   1      26.493  -0.229   2.321  0.00  0.00     0.011 C 
ATOM    183  H84 GLN d   1      25.429  -0.235   2.600  0.00  0.00     0.047 H 
ATOM    184  H85 GLN d   1      27.038   0.474   2.969  0.00  0.00     0.047 H 
BRANCH 182 185
ATOM    185  CD  GLN d   1      27.059  -1.619   2.526  0.00  0.00     0.215 C 
ATOM    186  OE1 GLN d   1      28.238  -1.782   2.844  0.00  0.00    -0.274 OA
ATOM    187  NE2 GLN d   1      26.231  -2.628   2.329  0.00  0.00    -0.370 N 
ATOM    188  H86 GLN d   1      26.550  -3.568   2.450  0.00  0.00     0.159 HD
ATOM    189  H87 GLN d   1      25.284  -2.453   2.059  0.00  0.00     0.159 HD
ENDBRANCH 182 185
ENDBRANCH 179 182
ENDBRANCH 131 179
ENDBRANCH 129 131
ENDBRANCH 125 127
BRANCH 125 190
ATOM    190  CB  LEU d   1      22.120   3.486   2.296  0.00  0.00    -0.035 C 
ATOM    191  H71 LEU d   1      21.284   4.189   2.167  0.00  0.00     0.037 H 
ATOM    192  H72 LEU d   1      22.944   3.988   2.824  0.00  0.00     0.037 H 
BRANCH 190 193
ATOM    193  CG  LEU d   1      21.623   2.361   3.207  0.00  0.00    -0.059 C 
ATOM    194  H73 LEU d   1      21.595   2.750   4.235  0.00  0.00     0.038 H 
BRANCH 193 195
ATOM    195  CD1 LEU d   1      20.211   1.965   2.820  0.00  0.00    -0.073 C 
ATOM    196  H74 LEU d   1      19.863   1.157   3.480  0.00  0.00     0.028 H 
ATOM    197  H75 LEU d   1      20.201   1.617   1.777  0.00  0.00     0.028 H 
ATOM    198  H76 LEU d   1      19.545   2.834   2.923  0.00  0.00     0.028 H 
ENDBRANCH 193 195
BRANCH 193 199
ATOM    199  CD2 LEU d   1      22.559   1.160   3.199  0.00  0.00    -0.073 C 
ATOM    200  H77 LEU d   1      23.572   1.482   3.483  0.00  0.00     0.028 H 
ATOM    201  H78 LEU d   1      22.584   0.721   2.191  0.00  0.00     0.028 H 
ATOM    202  H79 LEU d   1      22.198   0.409   3.917  0.00  0.00     0.028 H 
ENDBRANCH 193 199
ENDBRANCH 190 193
ENDBRANCH 125 190
ENDBRANCH 123 125
ENDBRANCH 119 121
BRANCH 119 203
ATOM    203  CB  PHE d   1      19.708   0.762  -1.149  0.00  0.00    -0.014 C 
ATOM    204  H62 PHE d   1      19.722   0.449  -0.095  0.00  0.00     0.043 H 
ATOM    205  H63 PHE d   1      19.115   0.045  -1.736  0.00  0.00     0.043 H 
BRANCH 203 206
ATOM    206  CG  PHE d   1      19.030   2.099  -1.227  0.00  0.00    -0.056 A 
ATOM    207  CD1 PHE d   1      18.422   2.520  -2.393  0.00  0.00    -0.077 A 
ATOM    208  CE1 PHE d   1      17.785   3.739  -2.455  0.00  0.00    -0.082 A 
ATOM    209  H64 PHE d   1      18.447   1.883  -3.270  0.00  0.00     0.084 H 
ATOM    210  CZ  PHE d   1      17.748   4.550  -1.342  0.00  0.00    -0.083 A 
ATOM    211  H66 PHE d   1      17.314   4.060  -3.377  0.00  0.00     0.083 H 
ATOM    212  CE2 PHE d   1      18.352   4.139  -0.174  0.00  0.00    -0.082 A 
ATOM    213  H68 PHE d   1      17.245   5.509  -1.385  0.00  0.00     0.083 H 
ATOM    214  CD2 PHE d   1      18.987   2.924  -0.121  0.00  0.00    -0.077 A 
ATOM    215  H67 PHE d   1      18.326   4.776   0.703  0.00  0.00     0.083 H 
ATOM    216  H65 PHE d   1      19.461   2.608   0.801  0.00  0.00     0.084 H 
ENDBRANCH 203 206
ENDBRANCH 119 203
ENDBRANCH 117 119
ENDBRANCH   1 115
BRANCH   1 217
ATOM    217  CB  GLU d   1      22.843  -3.311  -2.393  0.00  0.00    -0.029 C 
ATOM    218  H56 GLU d   1      21.745  -3.242  -2.405  0.00  0.00     0.037 H 
ATOM    219  H57 GLU d   1      23.143  -4.328  -2.100  0.00  0.00     0.037 H 
BRANCH 217 220
ATOM    220  CG  GLU d   1      23.350  -3.055  -3.803  0.00  0.00     0.018 C 
ATOM    221  H58 GLU d   1      24.450  -3.074  -3.793  0.00  0.00     0.049 H 
ATOM    222  H59 GLU d   1      23.003  -2.064  -4.130  0.00  0.00     0.049 H 
BRANCH 220 223
ATOM    223  CD  GLU d   1      22.853  -4.095  -4.787  0.00  0.00     0.172 C 
ATOM    224  OE1 GLU d   1      23.482  -5.171  -4.890  0.00  0.00    -0.648 OA
ATOM    225  OE2 GLU d   1      21.831  -3.856  -5.458  0.00  0.00    -0.648 OA
ENDBRANCH 220 223
ENDBRANCH 217 220
ENDBRANCH   1 217
TORSDOF 68
