REMARK  7 active torsions:
REMARK  status: ('A' for Active; 'I' for Inactive)
REMARK    1  A    between atoms: C07_7  and  C08_8 
REMARK    2  A    between atoms: N10_10  and  C11_11 
REMARK    3  A    between atoms: C13_13  and  C14_14 
REMARK    4  A    between atoms: C17_17  and  N18_18 
REMARK    5  A    between atoms: C20_20  and  C21_21 
REMARK    6  A    between atoms: C21_21  and  N22_22 
REMARK       I    between atoms: N22_22  and  C23_23 
REMARK    7  A    between atoms: C23_23  and  C24_24 
ROOT
ATOM      1 CL   FH3 d   1       5.017 -28.370  -8.767  0.00  0.00    -0.080 Cl
ATOM      2  C02 FH3 d   1       4.052 -29.717  -8.166  0.00  0.00     0.080 A 
ATOM      3  C03 FH3 d   1       3.323 -30.502  -9.099  0.00  0.00     0.028 A 
ATOM      4  N04 FH3 d   1       2.564 -31.548  -8.671  0.00  0.00    -0.239 NA
ATOM      5  C05 FH3 d   1       2.486 -31.883  -7.333  0.00  0.00     0.160 A 
ATOM      6  N06 FH3 d   1       1.791 -32.891  -6.687  0.00  0.00    -0.323 N 
ATOM      7  C07 FH3 d   1       2.047 -32.798  -5.321  0.00  0.00     0.143 A 
ATOM      8  N15 FH3 d   1       2.892 -31.746  -5.128  0.00  0.00    -0.224 NA
ATOM      9  C16 FH3 d   1       3.188 -31.151  -6.362  0.00  0.00     0.133 A 
ATOM     10  C17 FH3 d   1       3.998 -30.025  -6.778  0.00  0.00     0.086 A 
ATOM     11  H1  FH3 d   1       3.371 -30.267 -10.156  0.00  0.00     0.117 H 
ATOM     12  H2  FH3 d   1       1.187 -33.591  -7.140  0.00  0.00     0.169 HD
ENDROOT
BRANCH  10  13
ATOM     13  N18 FH3 d   1       4.760 -29.231  -5.826  0.00  0.00    -0.377 N 
ATOM     14  C19 FH3 d   1       6.111 -28.852  -5.561  0.00  0.00     0.000 C 
ATOM     15  C20 FH3 d   1       6.196 -28.655  -4.112  0.00  0.00    -0.022 C 
ATOM     16  H10 FH3 d   1       6.357 -27.919  -6.089  0.00  0.00     0.065 H 
ATOM     17  H11 FH3 d   1       6.801 -29.647  -5.880  0.00  0.00     0.065 H 
ATOM     18  C26 FH3 d   1       4.874 -28.259  -3.677  0.00  0.00    -0.044 C 
ATOM     19  H12 FH3 d   1       6.936 -27.878  -3.868  0.00  0.00     0.045 H 
ATOM     20  C27 FH3 d   1       3.931 -28.770  -4.701  0.00  0.00    -0.004 C 
ATOM     21  H19 FH3 d   1       4.807 -27.163  -3.610  0.00  0.00     0.036 H 
ATOM     22  H20 FH3 d   1       4.647 -28.701  -2.696  0.00  0.00     0.036 H 
ATOM     23  H21 FH3 d   1       3.341 -29.605  -4.294  0.00  0.00     0.064 H 
ATOM     24  H22 FH3 d   1       3.253 -27.968  -5.030  0.00  0.00     0.064 H 
BRANCH  15  25
ATOM     25  C21 FH3 d   1       6.561 -29.926  -3.458  0.00  0.00    -0.000 C 
ATOM     26  H13 FH3 d   1       7.122 -30.522  -4.193  0.00  0.00     0.064 H 
ATOM     27  H14 FH3 d   1       5.624 -30.443  -3.204  0.00  0.00     0.064 H 
BRANCH  25  28
ATOM     28  N22 FH3 d   1       7.363 -29.868  -2.248  0.00  0.00    -0.361 N 
ATOM     29  C23 FH3 d   1       6.697 -29.816  -0.905  0.00  0.00     0.213 C 
ATOM     30  O25 FH3 d   1       5.528 -29.817  -0.826  0.00  0.00    -0.274 OA
ATOM     31  H15 FH3 d   1       8.361 -29.863  -2.311  0.00  0.00     0.162 HD
BRANCH  29  32
ATOM     32  C24 FH3 d   1       7.522 -29.760   0.310  0.00  0.00    -0.003 C 
ATOM     33  H16 FH3 d   1       6.870 -29.727   1.195  0.00  0.00     0.040 H 
ATOM     34  H17 FH3 d   1       8.151 -28.858   0.285  0.00  0.00     0.040 H 
ATOM     35  H18 FH3 d   1       8.163 -30.653   0.360  0.00  0.00     0.040 H 
ENDBRANCH  29  32
ENDBRANCH  25  28
ENDBRANCH  15  25
ENDBRANCH  10  13
BRANCH   7  36
ATOM     36  C08 FH3 d   1       1.488 -33.711  -4.192  0.00  0.00     0.053 A 
ATOM     37  C09 FH3 d   1       1.825 -33.623  -2.856  0.00  0.00     0.013 A 
ATOM     38  N10 FH3 d   1       1.144 -34.553  -2.212  0.00  0.00    -0.284 N 
ATOM     39  H3  FH3 d   1       2.525 -32.916  -2.414  0.00  0.00     0.115 H 
ATOM     40  N12 FH3 d   1       0.375 -35.244  -3.065  0.00  0.00    -0.177 NA
ATOM     41  C13 FH3 d   1       0.577 -34.728  -4.303  0.00  0.00     0.066 A 
BRANCH  38  42
ATOM     42  C11 FH3 d   1       1.212 -34.804  -0.773  0.00  0.00     0.002 C 
ATOM     43  H4  FH3 d   1       0.540 -35.636  -0.514  0.00  0.00     0.059 H 
ATOM     44  H5  FH3 d   1       0.903 -33.900  -0.228  0.00  0.00     0.059 H 
ATOM     45  H6  FH3 d   1       2.244 -35.066  -0.495  0.00  0.00     0.059 H 
ENDBRANCH  38  42
BRANCH  41  46
ATOM     46  C14 FH3 d   1      -0.108 -35.225  -5.570  0.00  0.00    -0.033 C 
ATOM     47  H7  FH3 d   1      -0.784 -36.056  -5.319  0.00  0.00     0.035 H 
ATOM     48  H8  FH3 d   1       0.652 -35.574  -6.285  0.00  0.00     0.035 H 
ATOM     49  H9  FH3 d   1      -0.686 -34.404  -6.020  0.00  0.00     0.035 H 
ENDBRANCH  41  46
ENDBRANCH   7  36
TORSDOF 7
