REMARK  6 active torsions:
REMARK  status: ('A' for Active; 'I' for Inactive)
REMARK    1  A    between atoms: C07_7  and  C08_8 
REMARK    2  A    between atoms: N10_10  and  C11_11 
REMARK    3  A    between atoms: C13_13  and  C14_14 
REMARK    4  A    between atoms: C17_17  and  N18_18 
REMARK    5  A    between atoms: C20_20  and  N21_21 
REMARK       I    between atoms: N21_21  and  C22_22 
REMARK    6  A    between atoms: C22_22  and  C23_23 
ROOT
ATOM      1 CL   FH5 d   1       3.499 -28.182  -8.724  0.00  0.00    -0.080 Cl
ATOM      2  C02 FH5 d   1       2.528 -29.492  -8.116  0.00  0.00     0.080 A 
ATOM      3  C03 FH5 d   1       1.723 -30.197  -9.023  0.00  0.00     0.028 A 
ATOM      4  N04 FH5 d   1       0.950 -31.221  -8.607  0.00  0.00    -0.239 NA
ATOM      5  C05 FH5 d   1       0.927 -31.612  -7.280  0.00  0.00     0.160 A 
ATOM      6  N06 FH5 d   1       0.230 -32.617  -6.611  0.00  0.00    -0.323 N 
ATOM      7  C07 FH5 d   1       0.572 -32.576  -5.289  0.00  0.00     0.143 A 
ATOM      8  N15 FH5 d   1       1.467 -31.569  -5.125  0.00  0.00    -0.224 NA
ATOM      9  C16 FH5 d   1       1.694 -30.960  -6.348  0.00  0.00     0.133 A 
ATOM     10  C17 FH5 d   1       2.524 -29.865  -6.741  0.00  0.00     0.086 A 
ATOM     11  H1  FH5 d   1       1.722 -29.916 -10.070  0.00  0.00     0.117 H 
ATOM     12  H2  FH5 d   1      -0.431 -33.279  -7.041  0.00  0.00     0.169 HD
ENDROOT
BRANCH  10  13
ATOM     13  N18 FH5 d   1       3.320 -29.240  -5.717  0.00  0.00    -0.375 N 
ATOM     14  C19 FH5 d   1       3.138 -27.821  -5.426  0.00  0.00     0.014 C 
ATOM     15  C20 FH5 d   1       4.531 -27.411  -5.049  0.00  0.00     0.029 C 
ATOM     16  H10 FH5 d   1       2.435 -27.669  -4.594  0.00  0.00     0.067 H 
ATOM     17  H11 FH5 d   1       2.783 -27.272  -6.311  0.00  0.00     0.067 H 
ATOM     18  C25 FH5 d   1       5.026 -28.543  -4.296  0.00  0.00    -0.030 C 
ATOM     19  H12 FH5 d   1       5.138 -27.267  -5.955  0.00  0.00     0.075 H 
ATOM     20  C26 FH5 d   1       4.511 -29.705  -5.035  0.00  0.00    -0.003 C 
ATOM     21  H17 FH5 d   1       4.638 -28.529  -3.267  0.00  0.00     0.038 H 
ATOM     22  H18 FH5 d   1       6.126 -28.549  -4.273  0.00  0.00     0.038 H 
ATOM     23  H19 FH5 d   1       5.257 -30.058  -5.763  0.00  0.00     0.064 H 
ATOM     24  H20 FH5 d   1       4.261 -30.521  -4.341  0.00  0.00     0.064 H 
BRANCH  15  25
ATOM     25  N21 FH5 d   1       4.562 -26.199  -4.293  0.00  0.00    -0.355 N 
ATOM     26  C22 FH5 d   1       5.547 -25.192  -4.658  0.00  0.00     0.213 C 
ATOM     27  O24 FH5 d   1       6.321 -25.403  -5.586  0.00  0.00    -0.274 OA
ATOM     28  H13 FH5 d   1       3.926 -26.047  -3.536  0.00  0.00     0.162 HD
BRANCH  26  29
ATOM     29  C23 FH5 d   1       5.623 -23.894  -3.906  0.00  0.00    -0.003 C 
ATOM     30  H14 FH5 d   1       6.425 -23.271  -4.329  0.00  0.00     0.040 H 
ATOM     31  H15 FH5 d   1       5.837 -24.096  -2.846  0.00  0.00     0.040 H 
ATOM     32  H16 FH5 d   1       4.663 -23.364  -3.992  0.00  0.00     0.040 H 
ENDBRANCH  26  29
ENDBRANCH  15  25
ENDBRANCH  10  13
BRANCH   7  33
ATOM     33  C08 FH5 d   1       0.106 -33.436  -4.182  0.00  0.00     0.053 A 
ATOM     34  C09 FH5 d   1       0.586 -33.363  -2.892  0.00  0.00     0.013 A 
ATOM     35  N10 FH5 d   1      -0.048 -34.274  -2.177  0.00  0.00    -0.284 N 
ATOM     36  H3  FH5 d   1       1.350 -32.678  -2.528  0.00  0.00     0.115 H 
ATOM     37  N12 FH5 d   1      -0.947 -34.959  -2.960  0.00  0.00    -0.177 NA
ATOM     38  C13 FH5 d   1      -0.865 -34.454  -4.207  0.00  0.00     0.066 A 
BRANCH  35  39
ATOM     39  C11 FH5 d   1       0.161 -34.512  -0.810  0.00  0.00     0.002 C 
ATOM     40  H4  FH5 d   1      -0.500 -35.324  -0.474  0.00  0.00     0.059 H 
ATOM     41  H5  FH5 d   1      -0.063 -33.598  -0.240  0.00  0.00     0.059 H 
ATOM     42  H6  FH5 d   1       1.210 -34.800  -0.644  0.00  0.00     0.059 H 
ENDBRANCH  35  39
BRANCH  38  43
ATOM     43  C14 FH5 d   1      -1.685 -34.919  -5.392  0.00  0.00    -0.033 C 
ATOM     44  H7  FH5 d   1      -2.354 -35.733  -5.078  0.00  0.00     0.035 H 
ATOM     45  H8  FH5 d   1      -1.013 -35.282  -6.183  0.00  0.00     0.035 H 
ATOM     46  H9  FH5 d   1      -2.284 -34.080  -5.776  0.00  0.00     0.035 H 
ENDBRANCH  38  43
ENDBRANCH   7  33
TORSDOF 6
