REMARK  8 active torsions:
REMARK  status: ('A' for Active; 'I' for Inactive)
REMARK       I    between atoms: C12_2  and  N14_3 
REMARK    1  A    between atoms: C12_2  and  C11_9 
REMARK    2  A    between atoms: N14_3  and  C21_4 
REMARK    3  A    between atoms: C21_4  and  C15_5 
REMARK    4  A    between atoms: C15_5  and  C24_6 
REMARK    5  A    between atoms: C15_5  and  C23_7 
REMARK    6  A    between atoms: C15_5  and  C22_8 
REMARK    7  A    between atoms: C11_9  and  C6_10 
REMARK    8  A    between atoms: C3_19  and  C16_20 
ROOT
ATOM      1  C6  UGX d   1      21.327 -31.917   2.713  0.00  0.00     0.040 C 
ATOM      2  N5  UGX d   1      21.694 -32.761   1.521  0.00  0.00    -0.345 N 
ATOM      3  C1  UGX d   1      22.032 -34.051   1.489  0.00  0.00    -0.009 A 
ATOM      4  C7  UGX d   1      21.645 -30.428   2.440  0.00  0.00     0.015 C 
ATOM      5  N8  UGX d   1      21.230 -30.070   1.081  0.00  0.00    -0.354 N 
ATOM      6  C9  UGX d   1      21.356 -30.841  -0.001  0.00  0.00     0.268 C 
ATOM      7  O10 UGX d   1      21.201 -30.425  -1.143  0.00  0.00    -0.266 OA
ATOM      8  C4  UGX d   1      21.694 -32.266   0.264  0.00  0.00     0.104 A 
ATOM      9  C2  UGX d   1      22.054 -33.245  -0.659  0.00  0.00    -0.040 A 
ATOM     10  C3  UGX d   1      22.243 -34.340   0.153  0.00  0.00    -0.007 A 
ATOM     11  H15 UGX d   1      20.246 -32.027   2.884  0.00  0.00     0.076 H 
ATOM     12  H16 UGX d   1      22.122 -34.731   2.334  0.00  0.00     0.113 H 
ATOM     13  H17 UGX d   1      22.727 -30.261   2.547  0.00  0.00     0.067 H 
ATOM     14  H18 UGX d   1      21.104 -29.801   3.164  0.00  0.00     0.067 H 
ATOM     15  H19 UGX d   1      20.816 -29.169   0.953  0.00  0.00     0.162 HD
ATOM     16  H20 UGX d   1      22.159 -33.165  -1.740  0.00  0.00     0.088 H 
ENDROOT
BRANCH   1  17
ATOM     17  C11 UGX d   1      22.065 -32.323   3.998  0.00  0.00     0.030 C 
ATOM     18  H13 UGX d   1      23.140 -32.391   3.775  0.00  0.00     0.050 H 
ATOM     19  H14 UGX d   1      21.896 -31.545   4.757  0.00  0.00     0.050 H 
BRANCH  17  20
ATOM     20  C12 UGX d   1      21.607 -33.651   4.563  0.00  0.00     0.219 C 
ATOM     21  O13 UGX d   1      20.484 -34.091   4.333  0.00  0.00    -0.274 OA
ATOM     22  N14 UGX d   1      22.498 -34.327   5.283  0.00  0.00    -0.360 N 
ATOM     23  H1  UGX d   1      23.403 -33.915   5.386  0.00  0.00     0.162 HD
BRANCH  22  24
ATOM     24  C21 UGX d   1      22.278 -35.619   5.939  0.00  0.00     0.001 C 
ATOM     25  H2  UGX d   1      21.249 -35.941   5.722  0.00  0.00     0.065 H 
ATOM     26  H3  UGX d   1      22.396 -35.476   7.023  0.00  0.00     0.065 H 
BRANCH  24  27
ATOM     27  C15 UGX d   1      23.220 -36.728   5.505  0.00  0.00    -0.035 C 
BRANCH  27  28
ATOM     28  C24 UGX d   1      24.657 -36.285   5.773  0.00  0.00    -0.068 C 
ATOM     29  H4  UGX d   1      25.350 -37.081   5.462  0.00  0.00     0.028 H 
ATOM     30  H5  UGX d   1      24.785 -36.086   6.847  0.00  0.00     0.028 H 
ATOM     31  H6  UGX d   1      24.871 -35.369   5.202  0.00  0.00     0.028 H 
ENDBRANCH  27  28
BRANCH  27  32
ATOM     32  C23 UGX d   1      23.092 -37.034   4.021  0.00  0.00    -0.068 C 
ATOM     33  H7  UGX d   1      22.064 -37.356   3.800  0.00  0.00     0.028 H 
ATOM     34  H8  UGX d   1      23.794 -37.837   3.750  0.00  0.00     0.028 H 
ATOM     35  H9  UGX d   1      23.326 -36.130   3.439  0.00  0.00     0.028 H 
ENDBRANCH  27  32
BRANCH  27  36
ATOM     36  C22 UGX d   1      22.914 -37.991   6.329  0.00  0.00    -0.068 C 
ATOM     37  H10 UGX d   1      23.009 -37.761   7.401  0.00  0.00     0.028 H 
ATOM     38  H11 UGX d   1      23.625 -38.786   6.060  0.00  0.00     0.028 H 
ATOM     39  H12 UGX d   1      21.889 -38.329   6.115  0.00  0.00     0.028 H 
ENDBRANCH  27  36
ENDBRANCH  24  27
ENDBRANCH  22  24
ENDBRANCH  17  20
ENDBRANCH   1  17
BRANCH  10  40
ATOM     40  C16 UGX d   1      22.692 -35.683  -0.351  0.00  0.00    -0.018 A 
ATOM     41  C18 UGX d   1      22.697 -36.791   0.481  0.00  0.00    -0.034 A 
ATOM     42  S20 UGX d   1      23.348 -38.111  -0.447  0.00  0.00    -0.113 SA
ATOM     43  H21 UGX d   1      22.359 -36.828   1.516  0.00  0.00     0.096 H 
ATOM     44  C19 UGX d   1      23.576 -37.144  -1.874  0.00  0.00    -0.044 A 
ATOM     45  C17 UGX d   1      23.174 -35.838  -1.650  0.00  0.00    -0.065 A 
ATOM     46  H22 UGX d   1      23.980 -37.515  -2.815  0.00  0.00     0.095 H 
ATOM     47  H23 UGX d   1      23.227 -35.040  -2.389  0.00  0.00     0.085 H 
ENDBRANCH  10  40
TORSDOF 8
