REMARK  7 active torsions:
REMARK  status: ('A' for Active; 'I' for Inactive)
REMARK       I    between atoms: C19_2  and  N20_3 
REMARK    1  A    between atoms: C19_2  and  C11_13 
REMARK    2  A    between atoms: N20_3  and  C22_4 
REMARK    3  A    between atoms: C22_4  and  C24_5 
REMARK    4  A    between atoms: C22_4  and  C23_11 
REMARK    5  A    between atoms: C23_11  and  N30_12 
REMARK    6  A    between atoms: C11_13  and  C6_14 
REMARK    7  A    between atoms: C3_23  and  C12_24 
ROOT
ATOM      1  C11 676 d   1      22.376 -32.593   4.099  0.00  0.00     0.030 C 
ATOM      2  H13 676 d   1      23.454 -32.613   3.879  0.00  0.00     0.050 H 
ATOM      3  H14 676 d   1      22.156 -31.758   4.780  0.00  0.00     0.050 H 
ENDROOT
BRANCH   1   4
ATOM      4  C19 676 d   1      22.005 -33.893   4.799  0.00  0.00     0.220 C 
ATOM      5  O21 676 d   1      20.897 -34.399   4.609  0.00  0.00    -0.274 OA
ATOM      6  N20 676 d   1      22.942 -34.468   5.575  0.00  0.00    -0.351 N 
ATOM      7  H1  676 d   1      23.837 -34.027   5.632  0.00  0.00     0.163 HD
BRANCH   6   8
ATOM      8  C22 676 d   1      22.733 -35.707   6.346  0.00  0.00     0.060 C 
ATOM      9  H2  676 d   1      21.658 -35.818   6.549  0.00  0.00     0.082 H 
BRANCH   8  10
ATOM     10  C24 676 d   1      23.228 -36.971   5.719  0.00  0.00    -0.034 A 
ATOM     11  C29 676 d   1      24.080 -36.972   4.614  0.00  0.00    -0.075 A 
ATOM     12  C28 676 d   1      24.523 -38.179   4.071  0.00  0.00    -0.082 A 
ATOM     13  H3  676 d   1      24.399 -36.033   4.176  0.00  0.00     0.084 H 
ATOM     14  C27 676 d   1      24.134 -39.411   4.635  0.00  0.00    -0.083 A 
ATOM     15  H4  676 d   1      25.174 -38.169   3.205  0.00  0.00     0.083 H 
ATOM     16  C26 676 d   1      23.281 -39.420   5.747  0.00  0.00    -0.082 A 
ATOM     17  H5  676 d   1      24.491 -40.343   4.212  0.00  0.00     0.083 H 
ATOM     18  C25 676 d   1      22.834 -38.202   6.283  0.00  0.00    -0.075 A 
ATOM     19  H6  676 d   1      22.969 -40.359   6.189  0.00  0.00     0.083 H 
ATOM     20  H7  676 d   1      22.175 -38.208   7.144  0.00  0.00     0.084 H 
ENDBRANCH   8  10
BRANCH   8  21
ATOM     21  C23 676 d   1      23.518 -35.515   7.665  0.00  0.00     0.102 C 
ATOM     22  H8  676 d   1      24.550 -35.215   7.429  0.00  0.00     0.079 H 
ATOM     23  H9  676 d   1      23.530 -36.466   8.218  0.00  0.00     0.079 H 
BRANCH  21  24
ATOM     24  N30 676 d   1      22.900 -34.486   8.498  0.00  0.00    -0.077 N 
ATOM     25  H10 676 d   1      23.429 -34.380   9.349  0.00  0.00     0.274 HD
ATOM     26  H11 676 d   1      21.955 -34.757   8.721  0.00  0.00     0.274 HD
ATOM     27  H12 676 d   1      22.889 -33.611   7.998  0.00  0.00     0.274 HD
ENDBRANCH  21  24
ENDBRANCH   8  21
ENDBRANCH   6   8
ENDBRANCH   1   4
BRANCH   1  28
ATOM     28  C6  676 d   1      21.614 -32.354   2.775  0.00  0.00     0.040 C 
ATOM     29  N5  676 d   1      22.232 -33.106   1.658  0.00  0.00    -0.345 N 
ATOM     30  C1  676 d   1      22.514 -34.509   1.691  0.00  0.00    -0.009 A 
ATOM     31  C4  676 d   1      22.002 -32.741   0.284  0.00  0.00     0.104 A 
ATOM     32  C3  676 d   1      22.597 -34.908   0.349  0.00  0.00    -0.008 A 
ATOM     33  H16 676 d   1      22.638 -35.135   2.573  0.00  0.00     0.113 H 
ATOM     34  C2  676 d   1      22.301 -33.834  -0.501  0.00  0.00    -0.040 A 
ATOM     35  H20 676 d   1      22.306 -33.858  -1.590  0.00  0.00     0.088 H 
ATOM     36  C9  676 d   1      21.639 -31.324   0.038  0.00  0.00     0.268 C 
ATOM     37  N8  676 d   1      21.483 -30.540   1.114  0.00  0.00    -0.354 N 
ATOM     38  O10 676 d   1      21.488 -30.923  -1.113  0.00  0.00    -0.266 OA
ATOM     39  C7  676 d   1      21.849 -30.865   2.488  0.00  0.00     0.015 C 
ATOM     40  H19 676 d   1      21.074 -29.641   0.959  0.00  0.00     0.162 HD
ATOM     41  H17 676 d   1      22.913 -30.631   2.643  0.00  0.00     0.067 H 
ATOM     42  H18 676 d   1      21.237 -30.264   3.176  0.00  0.00     0.067 H 
ATOM     43  H15 676 d   1      20.547 -32.601   2.872  0.00  0.00     0.076 H 
BRANCH  32  44
ATOM     44  C12 676 d   1      23.022 -36.268  -0.115  0.00  0.00    -0.019 A 
ATOM     45  C14 676 d   1      23.108 -37.361   0.746  0.00  0.00    -0.016 A 
ATOM     46  C16 676 d   1      23.585 -38.577   0.238  0.00  0.00     0.210 A 
ATOM     47  H21 676 d   1      22.812 -37.272   1.785  0.00  0.00     0.092 H 
ATOM     48  F18 676 d   1      23.643 -39.658   1.036  0.00  0.00    -0.184 F 
ATOM     49  N17 676 d   1      24.004 -38.696  -1.057  0.00  0.00    -0.233 NA
ATOM     50  C15 676 d   1      23.959 -37.637  -1.894  0.00  0.00     0.006 A 
ATOM     51  C13 676 d   1      23.479 -36.416  -1.426  0.00  0.00    -0.055 A 
ATOM     52  H22 676 d   1      24.293 -37.736  -2.920  0.00  0.00     0.114 H 
ATOM     53  H23 676 d   1      23.460 -35.562  -2.094  0.00  0.00     0.087 H 
ENDBRANCH  32  44
ENDBRANCH   1  28
TORSDOF 7
