REMARK  17 active torsions:
REMARK  status: ('A' for Active; 'I' for Inactive)
REMARK    1  A    between atoms: CBD_3  and  OAI_4 
REMARK    2  A    between atoms: CBF_7  and  CAV_8 
REMARK    3  A    between atoms: CAV_8  and  CBI_9 
REMARK    4  A    between atoms: CBI_9  and  PBK_10 
REMARK    5  A    between atoms: CBI_9  and  NAY_14 
REMARK       I    between atoms: NAY_14  and  C_15 
REMARK    6  A    between atoms: C_15  and  CA_17 
REMARK    7  A    between atoms: CA_17  and  N_18 
REMARK    8  A    between atoms: CA_17  and  CB_30 
REMARK       I    between atoms: N_18  and  CBB_19 
REMARK    9  A    between atoms: CBB_19  and  CBJ_21 
REMARK   10  A    between atoms: CBJ_21  and  CBG_22 
REMARK   11  A    between atoms: CBJ_21  and  NAX_26 
REMARK   12  A    between atoms: CBG_22  and  CAC_23 
REMARK   13  A    between atoms: CBG_22  and  CAT_24 
REMARK   14  A    between atoms: CAT_24  and  CAA_25 
REMARK       I    between atoms: NAX_26  and  CAZ_27 
REMARK   15  A    between atoms: CAZ_27  and  CAB_28 
REMARK   16  A    between atoms: CB_30  and  CG_31 
REMARK   17  A    between atoms: CZ_34  and  OH_35 
ROOT
ATOM      1  CA  K26 d   1      27.488  12.006  11.987  0.00  0.00     0.093 C 
ATOM      2  H   K26 d   1      27.577  11.138  11.318  0.00  0.00     0.088 H 
ENDROOT
BRANCH   1   3
ATOM      3  C   K26 d   1      28.148  13.245  11.376  0.00  0.00     0.241 C 
ATOM      4  NAY K26 d   1      28.278  13.255  10.041  0.00  0.00    -0.342 N 
ATOM      5  H   K26 d   1      27.940  12.477   9.511  0.00  0.00     0.163 HD
ATOM      6  O   K26 d   1      28.555  14.146  12.109  0.00  0.00    -0.271 OA
BRANCH   4   7
ATOM      7  CBI K26 d   1      28.907  14.385   9.340  0.00  0.00     0.124 C 
ATOM      8  H   K26 d   1      29.335  15.081  10.077  0.00  0.00     0.095 H 
BRANCH   7   9
ATOM      9  CAV K26 d   1      30.040  13.849   8.444  0.00  0.00    -0.010 C 
ATOM     10  H   K26 d   1      29.607  13.222   7.651  0.00  0.00     0.044 H 
ATOM     11  H   K26 d   1      30.573  14.697   7.990  0.00  0.00     0.044 H 
BRANCH   9  12
ATOM     12  CBF K26 d   1      30.950  13.081   9.195  0.00  0.00    -0.055 A 
ATOM     13  CAR K26 d   1      32.099  13.660   9.745  0.00  0.00    -0.074 A 
ATOM     14  CAN K26 d   1      32.994  12.881  10.484  0.00  0.00    -0.051 A 
ATOM     15  H   K26 d   1      32.296  14.716   9.598  0.00  0.00     0.084 H 
ATOM     16  CBD K26 d   1      32.749  11.523  10.682  0.00  0.00     0.065 A 
ATOM     17  H   K26 d   1      33.883  13.335  10.905  0.00  0.00     0.087 H 
ATOM     18  CAO K26 d   1      31.605  10.946  10.138  0.00  0.00    -0.051 A 
ATOM     19  CAS K26 d   1      30.717  11.722   9.396  0.00  0.00    -0.074 A 
ATOM     20  H   K26 d   1      31.405   9.892  10.292  0.00  0.00     0.087 H 
ATOM     21  H   K26 d   1      29.833  11.262   8.969  0.00  0.00     0.084 H 
BRANCH  16  22
ATOM     22  OAI K26 d   1      33.616  10.757  11.406  0.00  0.00    -0.361 OA
ATOM     23  H   K26 d   1      33.295   9.863  11.439  0.00  0.00     0.217 HD
ENDBRANCH  16  22
ENDBRANCH   9  12
ENDBRANCH   7   9
BRANCH   7  24
ATOM     24  PBK K26 d   1      27.614  15.273   8.360  0.00  0.00     0.283 P 
ATOM     25  OAJ K26 d   1      28.374  16.058   7.393  0.00  0.00    -0.638 OA
ATOM     26  OAK K26 d   1      26.775  14.214   7.802  0.00  0.00    -0.638 OA
ATOM     27  OAG K26 d   1      26.947  16.089   9.387  0.00  0.00    -0.638 OA
ENDBRANCH   7  24
ENDBRANCH   4   7
ENDBRANCH   1   3
BRANCH   1  28
ATOM     28  N   K26 d   1      28.242  11.782  13.228  0.00  0.00    -0.346 N 
ATOM     29  CBB K26 d   1      28.905  10.643  13.486  0.00  0.00     0.241 C 
ATOM     30  OAF K26 d   1      28.914   9.659  12.749  0.00  0.00    -0.271 OA
ATOM     31  H   K26 d   1      28.262  12.511  13.912  0.00  0.00     0.163 HD
BRANCH  29  32
ATOM     32  CBJ K26 d   1      29.703  10.658  14.796  0.00  0.00     0.092 C 
ATOM     33  H   K26 d   1      29.470  11.580  15.348  0.00  0.00     0.088 H 
BRANCH  32  34
ATOM     34  CBG K26 d   1      31.204  10.638  14.466  0.00  0.00    -0.030 C 
ATOM     35  H   K26 d   1      31.380   9.991  13.594  0.00  0.00     0.043 H 
BRANCH  34  36
ATOM     36  CAC K26 d   1      31.648  12.070  14.140  0.00  0.00    -0.071 C 
ATOM     37  H   K26 d   1      32.722  12.075  13.901  0.00  0.00     0.028 H 
ATOM     38  H   K26 d   1      31.463  12.718  15.009  0.00  0.00     0.028 H 
ATOM     39  H   K26 d   1      31.078  12.443  13.276  0.00  0.00     0.028 H 
ENDBRANCH  34  36
BRANCH  34  40
ATOM     40  CAT K26 d   1      31.996  10.103  15.657  0.00  0.00    -0.063 C 
ATOM     41  H   K26 d   1      31.696   9.069  15.883  0.00  0.00     0.033 H 
ATOM     42  H   K26 d   1      31.831  10.735  16.542  0.00  0.00     0.033 H 
BRANCH  40  43
ATOM     43  CAA K26 d   1      33.472  10.152  15.233  0.00  0.00    -0.076 C 
ATOM     44  H   K26 d   1      34.102   9.777  16.053  0.00  0.00     0.027 H 
ATOM     45  H   K26 d   1      33.752  11.190  15.001  0.00  0.00     0.027 H 
ATOM     46  H   K26 d   1      33.618   9.524  14.342  0.00  0.00     0.027 H 
ENDBRANCH  40  43
ENDBRANCH  34  40
ENDBRANCH  32  34
BRANCH  32  47
ATOM     47  NAX K26 d   1      29.340   9.506  15.628  0.00  0.00    -0.348 N 
ATOM     48  CAZ K26 d   1      28.870   9.666  16.872  0.00  0.00     0.214 C 
ATOM     49  OAD K26 d   1      28.686  10.756  17.412  0.00  0.00    -0.274 OA
ATOM     50  H   K26 d   1      29.445   8.582  15.259  0.00  0.00     0.163 HD
BRANCH  48  51
ATOM     51  CAB K26 d   1      28.563   8.368  17.612  0.00  0.00    -0.003 C 
ATOM     52  H   K26 d   1      28.185   8.600  18.618  0.00  0.00     0.040 H 
ATOM     53  H   K26 d   1      29.481   7.767  17.695  0.00  0.00     0.040 H 
ATOM     54  H   K26 d   1      27.802   7.800  17.056  0.00  0.00     0.040 H 
ENDBRANCH  48  51
ENDBRANCH  32  47
ENDBRANCH  29  32
ENDBRANCH   1  28
BRANCH   1  55
ATOM     55  CB  K26 d   1      26.023  12.293  12.253  0.00  0.00    -0.014 C 
ATOM     56  H   K26 d   1      25.577  12.806  11.388  0.00  0.00     0.043 H 
ATOM     57  H   K26 d   1      25.920  12.925  13.147  0.00  0.00     0.043 H 
BRANCH  55  58
ATOM     58  CG  K26 d   1      25.382  11.054  12.462  0.00  0.00    -0.056 A 
ATOM     59  CD1 K26 d   1      24.521  10.516  11.501  0.00  0.00    -0.074 A 
ATOM     60  CE1 K26 d   1      23.882   9.295  11.718  0.00  0.00    -0.051 A 
ATOM     61  H   K26 d   1      24.348  11.054  10.576  0.00  0.00     0.084 H 
ATOM     62  CZ  K26 d   1      24.090   8.598  12.905  0.00  0.00     0.065 A 
ATOM     63  H   K26 d   1      23.222   8.888  10.960  0.00  0.00     0.087 H 
ATOM     64  CE2 K26 d   1      24.935   9.128  13.870  0.00  0.00    -0.051 A 
ATOM     65  CD2 K26 d   1      25.571  10.346  13.650  0.00  0.00    -0.074 A 
ATOM     66  H   K26 d   1      25.100   8.592  14.797  0.00  0.00     0.087 H 
ATOM     67  H   K26 d   1      26.224  10.752  14.414  0.00  0.00     0.084 H 
BRANCH  62  68
ATOM     68  OH  K26 d   1      23.476   7.405  13.129  0.00  0.00    -0.361 OA
ATOM     69  H   K26 d   1      23.731   7.074  13.982  0.00  0.00     0.217 HD
ENDBRANCH  62  68
ENDBRANCH  55  58
ENDBRANCH   1  55
TORSDOF 17
