REMARK  19 active torsions:
REMARK  status: ('A' for Active; 'I' for Inactive)
REMARK    1  A    between atoms: N2_2  and  CD1_1 
REMARK    2  A    between atoms: CA2_3  and  N2_2 
REMARK    3  A    between atoms: CA2_3  and  C2_4 
REMARK    4  A    between atoms: CB2_6  and  CA2_3 
REMARK       I    between atoms: C2_4  and  N3_8 
REMARK    5  A    between atoms: SG2_7  and  CB2_6 
REMARK    6  A    between atoms: SG5_23  and  SG2_7 
REMARK    7  A    between atoms: N3_8  and  CA3_9 
REMARK    8  A    between atoms: CA3_9  and  C3_10 
REMARK    9  A    between atoms: N4_13  and  CA4_14 
REMARK       I    between atoms: C5_18  and  N4_13 
REMARK   10  A    between atoms: CA4_14  and  C4_15 
REMARK   11  A    between atoms: CA5_20  and  C5_18 
REMARK   12  A    between atoms: N5_21  and  CA5_20 
REMARK   13  A    between atoms: CA5_20  and  CB5_22 
REMARK       I    between atoms: CD6_31  and  N5_21 
REMARK   14  A    between atoms: CB5_22  and  SG5_23 
REMARK   15  A    between atoms: CA6_24  and  C6_25 
REMARK   16  A    between atoms: CA6_24  and  N6_28 
REMARK   17  A    between atoms: CB6_29  and  CA6_24 
REMARK   18  A    between atoms: CG6_30  and  CB6_29 
REMARK   19  A    between atoms: CG6_30  and  CD6_31 
ROOT
ATOM      1  CA5 GDS d   1       5.533  -5.252  26.591  0.00  0.00     0.098 C 
ATOM      2  H15 GDS d   1       4.667  -4.576  26.647  0.00  0.00     0.088 H 
ENDROOT
BRANCH   1   3
ATOM      3  C5  GDS d   1       4.874  -6.543  26.784  0.00  0.00     0.241 C 
ATOM      4  N4  GDS d   1       5.652  -7.485  27.526  0.00  0.00    -0.349 N 
ATOM      5  H12 GDS d   1       6.522  -7.216  27.940  0.00  0.00     0.163 HD
ATOM      6  O5  GDS d   1       3.787  -6.878  26.316  0.00  0.00    -0.271 OA
BRANCH   4   7
ATOM      7  CA4 GDS d   1       5.154  -8.833  27.664  0.00  0.00     0.075 C 
ATOM      8  H13 GDS d   1       4.972  -9.256  26.665  0.00  0.00     0.080 H 
ATOM      9  H14 GDS d   1       4.212  -8.815  28.232  0.00  0.00     0.080 H 
BRANCH   7  10
ATOM     10  C4  GDS d   1       6.145  -9.680  28.383  0.00  0.00     0.191 C 
ATOM     11  OE5 GDS d   1       7.034  -9.169  29.131  0.00  0.00    -0.647 OA
ATOM     12  OE6 GDS d   1       6.017 -10.930  28.262  0.00  0.00    -0.647 OA
ENDBRANCH   7  10
ENDBRANCH   4   7
ENDBRANCH   1   3
BRANCH   1  13
ATOM     13  N5  GDS d   1       6.316  -4.723  27.630  0.00  0.00    -0.347 N 
ATOM     14  CD6 GDS d   1       5.857  -4.072  28.776  0.00  0.00     0.218 C 
ATOM     15  O6  GDS d   1       4.632  -3.897  28.848  0.00  0.00    -0.274 OA
ATOM     16  H16 GDS d   1       7.307  -4.823  27.539  0.00  0.00     0.163 HD
BRANCH  14  17
ATOM     17  CG6 GDS d   1       6.871  -3.612  29.802  0.00  0.00     0.012 C 
ATOM     18  H25 GDS d   1       7.877  -3.595  29.358  0.00  0.00     0.047 H 
ATOM     19  H26 GDS d   1       6.613  -2.606  30.165  0.00  0.00     0.047 H 
BRANCH  17  20
ATOM     20  CB6 GDS d   1       6.820  -4.627  30.966  0.00  0.00    -0.021 C 
ATOM     21  H23 GDS d   1       5.771  -4.839  31.222  0.00  0.00     0.037 H 
ATOM     22  H24 GDS d   1       7.318  -5.559  30.662  0.00  0.00     0.037 H 
BRANCH  20  23
ATOM     23  CA6 GDS d   1       7.514  -4.058  32.150  0.00  0.00     0.183 C 
ATOM     24  H19 GDS d   1       7.722  -4.880  32.851  0.00  0.00     0.101 H 
BRANCH  23  25
ATOM     25  C6  GDS d   1       8.826  -3.398  31.757  0.00  0.00     0.204 C 
ATOM     26  OE7 GDS d   1       9.759  -4.125  31.319  0.00  0.00    -0.646 OA
ATOM     27  OE8 GDS d   1       8.976  -2.156  31.849  0.00  0.00    -0.646 OA
ENDBRANCH  23  25
BRANCH  23  28
ATOM     28  N6  GDS d   1       6.698  -3.040  32.838  0.00  0.00    -0.065 N 
ATOM     29  H20 GDS d   1       5.817  -3.445  33.114  0.00  0.00     0.275 HD
ATOM     30  H21 GDS d   1       6.531  -2.266  32.215  0.00  0.00     0.275 HD
ATOM     31  H22 GDS d   1       7.188  -2.713  33.656  0.00  0.00     0.275 HD
ENDBRANCH  23  28
ENDBRANCH  20  23
ENDBRANCH  17  20
ENDBRANCH  14  17
ENDBRANCH   1  13
BRANCH   1  32
ATOM     32  CB5 GDS d   1       5.986  -5.008  25.189  0.00  0.00     0.013 C 
ATOM     33  H17 GDS d   1       6.224  -3.942  25.058  0.00  0.00     0.053 H 
ATOM     34  H18 GDS d   1       5.188  -5.295  24.488  0.00  0.00     0.053 H 
BRANCH  32  35
ATOM     35  SG5 GDS d   1       7.466  -6.006  24.868  0.00  0.00    -0.095 SA
BRANCH  35  36
ATOM     36  SG2 GDS d   1       6.731  -7.861  24.490  0.00  0.00    -0.095 SA
BRANCH  36  37
ATOM     37  CB2 GDS d   1       5.823  -7.757  22.963  0.00  0.00     0.021 C 
ATOM     38  H7  GDS d   1       4.768  -7.991  23.168  0.00  0.00     0.054 H 
ATOM     39  H8  GDS d   1       5.902  -6.729  22.579  0.00  0.00     0.054 H 
BRANCH  37  40
ATOM     40  CA2 GDS d   1       6.316  -8.686  21.921  0.00  0.00     0.186 C 
ATOM     41  H6  GDS d   1       5.726  -9.502  22.363  0.00  0.00     0.100 H 
BRANCH  40  42
ATOM     42  N2  GDS d   1       7.486  -9.478  22.039  0.00  0.00    -0.065 N 
ATOM     43  H4  GDS d   1       7.648  -9.651  23.019  0.00  0.00     0.277 HD
ATOM     44  H5  GDS d   1       7.320 -10.353  21.566  0.00  0.00     0.277 HD
BRANCH  42  45
ATOM     45  CD1 GDS d   1       8.704  -8.881  21.475  0.00  0.00     0.066 C 
ATOM     46  H1  GDS d   1       9.550  -9.570  21.617  0.00  0.00     0.067 H 
ATOM     47  H2  GDS d   1       8.916  -7.930  21.985  0.00  0.00     0.067 H 
ATOM     48  H3  GDS d   1       8.558  -8.696  20.401  0.00  0.00     0.067 H 
ENDBRANCH  42  45
ENDBRANCH  40  42
BRANCH  40  49
ATOM     49  C2  GDS d   1       5.522  -8.747  20.664  0.00  0.00     0.249 C 
ATOM     50  O2  GDS d   1       4.774  -7.802  20.336  0.00  0.00    -0.271 OA
ATOM     51  N3  GDS d   1       5.655  -9.935  19.847  0.00  0.00    -0.349 N 
ATOM     52  H9  GDS d   1       6.213 -10.703  20.162  0.00  0.00     0.163 HD
BRANCH  51  53
ATOM     53  CA3 GDS d   1       4.968 -10.005  18.558  0.00  0.00     0.075 C 
ATOM     54  H10 GDS d   1       4.209  -9.213  18.473  0.00  0.00     0.080 H 
ATOM     55  H11 GDS d   1       4.491 -10.986  18.420  0.00  0.00     0.080 H 
BRANCH  53  56
ATOM     56  C3  GDS d   1       6.090  -9.796  17.544  0.00  0.00     0.191 C 
ATOM     57  OE3 GDS d   1       6.098 -10.424  16.439  0.00  0.00    -0.647 OA
ATOM     58  OE4 GDS d   1       7.054  -9.007  17.766  0.00  0.00    -0.647 OA
ENDBRANCH  53  56
ENDBRANCH  51  53
ENDBRANCH  40  49
ENDBRANCH  37  40
ENDBRANCH  36  37
ENDBRANCH  35  36
ENDBRANCH  32  35
ENDBRANCH   1  32
TORSDOF 19
