REMARK  5 active torsions:
REMARK  status: ('A' for Active; 'I' for Inactive)
REMARK    1  A    between atoms: C4_2  and  C2_3 
REMARK       I    between atoms: C4_2  and  N_7 
REMARK    2  A    between atoms: C2_3  and  C1_4 
REMARK    3  A    between atoms: C2_3  and  C3_6 
REMARK    4  A    between atoms: C1_4  and  S_5 
REMARK    5  A    between atoms: C8_8  and  C9_9 
ROOT
ATOM      1  O1  X8Z d   1     -29.335  10.054  58.896  0.00  0.00    -0.273 OA
ATOM      2  C4  X8Z d   1     -28.353   9.869  59.555  0.00  0.00     0.225 C 
ATOM      3  N   X8Z d   1     -28.381   8.796  60.468  0.00  0.00    -0.337 N 
ATOM      4  C8  X8Z d   1     -29.523   8.009  60.584  0.00  0.00     0.098 C 
ATOM      5  C5  X8Z d   1     -27.321   8.492  61.281  0.00  0.00    -0.001 C 
ATOM      6  C6  X8Z d   1     -27.902   7.654  62.389  0.00  0.00    -0.048 C 
ATOM      7  C7  X8Z d   1     -29.144   7.011  61.702  0.00  0.00    -0.035 C 
ATOM      8  H8  X8Z d   1     -29.713   7.477  59.640  0.00  0.00     0.089 H 
ATOM      9  H9  X8Z d   1     -26.870   9.410  61.687  0.00  0.00     0.064 H 
ATOM     10  H10 X8Z d   1     -26.560   7.924  60.726  0.00  0.00     0.064 H 
ATOM     11  H11 X8Z d   1     -28.198   8.277  63.246  0.00  0.00     0.035 H 
ATOM     12  H12 X8Z d   1     -27.189   6.886  62.723  0.00  0.00     0.035 H 
ATOM     13  H13 X8Z d   1     -28.889   6.029  61.277  0.00  0.00     0.036 H 
ATOM     14  H14 X8Z d   1     -29.970   6.897  62.419  0.00  0.00     0.036 H 
ENDROOT
BRANCH   2  15
ATOM     15  C2  X8Z d   1     -27.149  10.764  59.451  0.00  0.00     0.028 C 
ATOM     16  H1  X8Z d   1     -26.227  10.204  59.666  0.00  0.00     0.055 H 
BRANCH  15  17
ATOM     17  C1  X8Z d   1     -27.067  11.398  58.089  0.00  0.00    -0.015 C 
ATOM     18  H2  X8Z d   1     -26.322  12.207  58.128  0.00  0.00     0.049 H 
ATOM     19  H3  X8Z d   1     -28.053  11.819  57.844  0.00  0.00     0.049 H 
BRANCH  17  20
ATOM     20  S   X8Z d   1     -26.597  10.260  56.778  0.00  0.00    -0.181 SA
ATOM     21  H4  X8Z d   1     -26.564  10.755  55.901  0.00  0.00     0.101 HD
ENDBRANCH  17  20
ENDBRANCH  15  17
BRANCH  15  22
ATOM     22  C3  X8Z d   1     -27.377  11.871  60.473  0.00  0.00    -0.064 C 
ATOM     23  H5  X8Z d   1     -27.441  11.433  61.480  0.00  0.00     0.028 H 
ATOM     24  H6  X8Z d   1     -28.315  12.396  60.242  0.00  0.00     0.028 H 
ATOM     25  H7  X8Z d   1     -26.539  12.583  60.435  0.00  0.00     0.028 H 
ENDBRANCH  15  22
ENDBRANCH   2  15
BRANCH   4  26
ATOM     26  C9  X8Z d   1     -30.770   8.806  60.949  0.00  0.00     0.196 C 
ATOM     27  O3  X8Z d   1     -31.909   8.417  60.556  0.00  0.00    -0.646 OA
ATOM     28  O2  X8Z d   1     -30.691   9.849  61.653  0.00  0.00    -0.646 OA
ENDBRANCH   4  26
TORSDOF 5
