REMARK  5 active torsions:
REMARK  status: ('A' for Active; 'I' for Inactive)
REMARK    1  A    between atoms: C9_2  and  C8_4 
REMARK       I    between atoms: N_8  and  C4_9 
REMARK    2  A    between atoms: C4_9  and  C2_11 
REMARK    3  A    between atoms: C2_11  and  C3_12 
REMARK    4  A    between atoms: C2_11  and  C1_13 
REMARK    5  A    between atoms: C1_13  and  S_14 
ROOT
ATOM      1  C8  MCO d   1      75.287   5.458  58.713  0.00  0.00     0.098 C 
ATOM      2  C7  MCO d   1      76.072   4.518  59.583  0.00  0.00    -0.035 C 
ATOM      3  C6  MCO d   1      77.460   4.991  59.520  0.00  0.00    -0.048 C 
ATOM      4  C5  MCO d   1      77.374   6.451  59.196  0.00  0.00    -0.001 C 
ATOM      5  N   MCO d   1      76.035   6.675  58.739  0.00  0.00    -0.337 N 
ATOM      6  C4  MCO d   1      75.532   7.947  58.357  0.00  0.00     0.225 C 
ATOM      7  O1  MCO d   1      74.430   8.034  57.999  0.00  0.00    -0.273 OA
ATOM      8  H1  MCO d   1      74.271   5.606  59.107  0.00  0.00     0.089 H 
ATOM      9  H2  MCO d   1      75.999   3.489  59.201  0.00  0.00     0.036 H 
ATOM     10  H3  MCO d   1      75.701   4.552  60.618  0.00  0.00     0.036 H 
ATOM     11  H4  MCO d   1      78.013   4.455  58.734  0.00  0.00     0.035 H 
ATOM     12  H5  MCO d   1      77.961   4.841  60.488  0.00  0.00     0.035 H 
ATOM     13  H6  MCO d   1      78.096   6.711  58.407  0.00  0.00     0.064 H 
ATOM     14  H7  MCO d   1      77.578   7.054  60.093  0.00  0.00     0.064 H 
ENDROOT
BRANCH   1  15
ATOM     15  C9  MCO d   1      75.225   4.957  57.352  0.00  0.00     0.196 C 
ATOM     16  O2  MCO d   1      75.753   5.613  56.437  0.00  0.00    -0.646 OA
ATOM     17  O3  MCO d   1      74.614   3.954  57.096  0.00  0.00    -0.646 OA
ENDBRANCH   1  15
BRANCH   6  18
ATOM     18  C2  MCO d   1      76.480   9.093  58.405  0.00  0.00     0.028 C 
ATOM     19  H8  MCO d   1      77.501   8.720  58.569  0.00  0.00     0.055 H 
BRANCH  18  20
ATOM     20  C3  MCO d   1      76.105  10.052  59.521  0.00  0.00    -0.064 C 
ATOM     21  H9  MCO d   1      76.817  10.890  59.539  0.00  0.00     0.028 H 
ATOM     22  H10 MCO d   1      76.137   9.523  60.485  0.00  0.00     0.028 H 
ATOM     23  H11 MCO d   1      75.089  10.437  59.347  0.00  0.00     0.028 H 
ENDBRANCH  18  20
BRANCH  18  24
ATOM     24  C1  MCO d   1      76.406   9.827  57.091  0.00  0.00    -0.015 C 
ATOM     25  H12 MCO d   1      77.047  10.718  57.164  0.00  0.00     0.049 H 
ATOM     26  H13 MCO d   1      75.362  10.138  56.935  0.00  0.00     0.049 H 
BRANCH  24  27
ATOM     27  S   MCO d   1      76.936   8.869  55.615  0.00  0.00    -0.181 SA
ATOM     28  H14 MCO d   1      76.849   9.446  54.793  0.00  0.00     0.101 HD
ENDBRANCH  24  27
ENDBRANCH  18  24
ENDBRANCH   6  18
TORSDOF 5
