REMARK  5 active torsions:
REMARK  status: ('A' for Active; 'I' for Inactive)
REMARK    1  A    between atoms: C4_2  and  C2_3 
REMARK       I    between atoms: C4_2  and  N_7 
REMARK    2  A    between atoms: C2_3  and  C1_4 
REMARK    3  A    between atoms: C2_3  and  C3_6 
REMARK    4  A    between atoms: C1_4  and  S_5 
REMARK    5  A    between atoms: C8_8  and  C9_9 
ROOT
ATOM      1  O1  X8Z d   1      16.948  14.444  10.135  0.00  0.00    -0.273 OA
ATOM      2  C4  X8Z d   1      16.760  13.762   9.149  0.00  0.00     0.225 C 
ATOM      3  N   X8Z d   1      17.832  12.967   8.646  0.00  0.00    -0.337 N 
ATOM      4  C8  X8Z d   1      17.723  12.166   7.538  0.00  0.00     0.098 C 
ATOM      5  C5  X8Z d   1      19.039  12.988   9.272  0.00  0.00    -0.001 C 
ATOM      6  C6  X8Z d   1      20.033  12.566   8.224  0.00  0.00    -0.048 C 
ATOM      7  C7  X8Z d   1      19.137  12.364   6.947  0.00  0.00    -0.035 C 
ATOM      8  H8  X8Z d   1      16.946  12.521   6.845  0.00  0.00     0.089 H 
ATOM      9  H9  X8Z d   1      19.048  12.284  10.117  0.00  0.00     0.064 H 
ATOM     10  H10 X8Z d   1      19.268  14.001   9.635  0.00  0.00     0.064 H 
ATOM     11  H11 X8Z d   1      20.533  11.628   8.508  0.00  0.00     0.035 H 
ATOM     12  H12 X8Z d   1      20.788  13.348   8.057  0.00  0.00     0.035 H 
ATOM     13  H13 X8Z d   1      19.172  13.250   6.296  0.00  0.00     0.036 H 
ATOM     14  H14 X8Z d   1      19.455  11.478   6.378  0.00  0.00     0.036 H 
ENDROOT
BRANCH   2  15
ATOM     15  C2  X8Z d   1      15.388  13.809   8.508  0.00  0.00     0.028 C 
ATOM     16  H1  X8Z d   1      15.441  13.398   7.489  0.00  0.00     0.055 H 
BRANCH  15  17
ATOM     17  C1  X8Z d   1      14.400  13.006   9.324  0.00  0.00    -0.015 C 
ATOM     18  H2  X8Z d   1      13.427  13.519   9.335  0.00  0.00     0.049 H 
ATOM     19  H3  X8Z d   1      14.771  12.901  10.354  0.00  0.00     0.049 H 
BRANCH  17  20
ATOM     20  S   X8Z d   1      14.220  11.404   8.590  0.00  0.00    -0.181 SA
ATOM     21  H4  X8Z d   1      13.563  10.861   9.128  0.00  0.00     0.101 HD
ENDBRANCH  17  20
ENDBRANCH  15  17
BRANCH  15  22
ATOM     22  C3  X8Z d   1      14.939  15.253   8.457  0.00  0.00    -0.064 C 
ATOM     23  H5  X8Z d   1      15.656  15.839   7.864  0.00  0.00     0.028 H 
ATOM     24  H6  X8Z d   1      14.890  15.658   9.479  0.00  0.00     0.028 H 
ATOM     25  H7  X8Z d   1      13.944  15.311   7.992  0.00  0.00     0.028 H 
ENDBRANCH  15  22
ENDBRANCH   2  15
BRANCH   4  26
ATOM     26  C9  X8Z d   1      17.414  10.745   7.944  0.00  0.00     0.196 C 
ATOM     27  O3  X8Z d   1      16.994   9.920   7.091  0.00  0.00    -0.646 OA
ATOM     28  O2  X8Z d   1      17.569  10.379   9.139  0.00  0.00    -0.646 OA
ENDBRANCH   4  26
TORSDOF 5
