REMARK  5 active torsions:
REMARK  status: ('A' for Active; 'I' for Inactive)
REMARK    1  A    between atoms: C9_2  and  C8_4 
REMARK       I    between atoms: N_8  and  C4_9 
REMARK    2  A    between atoms: C4_9  and  C2_11 
REMARK    3  A    between atoms: C2_11  and  C3_12 
REMARK    4  A    between atoms: C2_11  and  C1_13 
REMARK    5  A    between atoms: C1_13  and  S_14 
ROOT
ATOM      1  C8  MCO d   1      12.181  -8.377 -19.143  0.00  0.00     0.098 C 
ATOM      2  C7  MCO d   1      12.980  -7.727 -20.226  0.00  0.00    -0.035 C 
ATOM      3  C6  MCO d   1      13.728  -6.654 -19.533  0.00  0.00    -0.048 C 
ATOM      4  C5  MCO d   1      13.778  -7.070 -18.097  0.00  0.00    -0.001 C 
ATOM      5  N   MCO d   1      13.049  -8.305 -18.020  0.00  0.00    -0.337 N 
ATOM      6  C4  MCO d   1      13.184  -9.285 -16.956  0.00  0.00     0.225 C 
ATOM      7  O1  MCO d   1      12.534 -10.289 -16.980  0.00  0.00    -0.273 OA
ATOM      8  H1  MCO d   1      11.866  -9.403 -19.385  0.00  0.00     0.089 H 
ATOM      9  H2  MCO d   1      12.320  -7.306 -20.998  0.00  0.00     0.036 H 
ATOM     10  H3  MCO d   1      13.671  -8.448 -20.688  0.00  0.00     0.036 H 
ATOM     11  H4  MCO d   1      13.206  -5.691 -19.637  0.00  0.00     0.035 H 
ATOM     12  H5  MCO d   1      14.745  -6.566 -19.944  0.00  0.00     0.035 H 
ATOM     13  H6  MCO d   1      13.306  -6.307 -17.461  0.00  0.00     0.064 H 
ATOM     14  H7  MCO d   1      14.820  -7.220 -17.778  0.00  0.00     0.064 H 
ENDROOT
BRANCH   1  15
ATOM     15  C9  MCO d   1      11.063  -7.499 -18.878  0.00  0.00     0.196 C 
ATOM     16  O2  MCO d   1      10.062  -7.983 -18.264  0.00  0.00    -0.646 OA
ATOM     17  O3  MCO d   1      11.125  -6.326 -19.253  0.00  0.00    -0.646 OA
ENDBRANCH   1  15
BRANCH   6  18
ATOM     18  C2  MCO d   1      14.155  -9.047 -15.848  0.00  0.00     0.028 C 
ATOM     19  H8  MCO d   1      14.445  -7.986 -15.819  0.00  0.00     0.055 H 
BRANCH  18  20
ATOM     20  C3  MCO d   1      15.369  -9.917 -16.121  0.00  0.00    -0.064 C 
ATOM     21  H9  MCO d   1      16.112  -9.770 -15.323  0.00  0.00     0.028 H 
ATOM     22  H10 MCO d   1      15.810  -9.637 -17.089  0.00  0.00     0.028 H 
ATOM     23  H11 MCO d   1      15.064 -10.974 -16.148  0.00  0.00     0.028 H 
ENDBRANCH  18  20
BRANCH  18  24
ATOM     24  C1  MCO d   1      13.544  -9.440 -14.536  0.00  0.00    -0.015 C 
ATOM     25  H12 MCO d   1      14.202  -9.112 -13.717  0.00  0.00     0.049 H 
ATOM     26  H13 MCO d   1      13.433 -10.534 -14.501  0.00  0.00     0.049 H 
BRANCH  24  27
ATOM     27  S   MCO d   1      11.915  -8.668 -14.339  0.00  0.00    -0.181 SA
ATOM     28  H14 MCO d   1      12.014  -7.665 -14.368  0.00  0.00     0.101 HD
ENDBRANCH  24  27
ENDBRANCH  18  24
ENDBRANCH   6  18
TORSDOF 5
