REMARK  5 active torsions:
REMARK  status: ('A' for Active; 'I' for Inactive)
REMARK    1  A    between atoms: C4_2  and  C2_3 
REMARK       I    between atoms: C4_2  and  N_7 
REMARK    2  A    between atoms: C2_3  and  C1_4 
REMARK    3  A    between atoms: C2_3  and  C3_6 
REMARK    4  A    between atoms: C1_4  and  S_5 
REMARK    5  A    between atoms: C8_8  and  C9_9 
ROOT
ATOM      1  O1  X8Z d   1      13.505  13.250  42.017  0.00  0.00    -0.273 OA
ATOM      2  C4  X8Z d   1      12.942  13.341  43.098  0.00  0.00     0.225 C 
ATOM      3  N   X8Z d   1      11.533  13.480  43.145  0.00  0.00    -0.337 N 
ATOM      4  C8  X8Z d   1      10.858  13.536  41.939  0.00  0.00     0.098 C 
ATOM      5  C5  X8Z d   1      10.814  13.599  44.303  0.00  0.00    -0.001 C 
ATOM      6  C6  X8Z d   1       9.361  13.637  43.895  0.00  0.00    -0.048 C 
ATOM      7  C7  X8Z d   1       9.374  13.414  42.343  0.00  0.00    -0.035 C 
ATOM      8  H8  X8Z d   1      11.153  12.690  41.301  0.00  0.00     0.089 H 
ATOM      9  H9  X8Z d   1      11.087  14.526  44.828  0.00  0.00     0.064 H 
ATOM     10  H10 X8Z d   1      11.003  12.737  44.959  0.00  0.00     0.064 H 
ATOM     11  H11 X8Z d   1       8.915  14.611  44.143  0.00  0.00     0.035 H 
ATOM     12  H12 X8Z d   1       8.797  12.837  44.397  0.00  0.00     0.035 H 
ATOM     13  H13 X8Z d   1       8.985  12.416  42.092  0.00  0.00     0.036 H 
ATOM     14  H14 X8Z d   1       8.770  14.181  41.836  0.00  0.00     0.036 H 
ENDROOT
BRANCH   2  15
ATOM     15  C2  X8Z d   1      13.740  13.295  44.375  0.00  0.00     0.028 C 
ATOM     16  H1  X8Z d   1      13.064  13.118  45.225  0.00  0.00     0.055 H 
BRANCH  15  17
ATOM     17  C1  X8Z d   1      14.772  12.188  44.326  0.00  0.00    -0.015 C 
ATOM     18  H2  X8Z d   1      15.356  12.211  45.258  0.00  0.00     0.049 H 
ATOM     19  H3  X8Z d   1      15.439  12.367  43.470  0.00  0.00     0.049 H 
BRANCH  17  20
ATOM     20  S   X8Z d   1      14.045  10.575  44.151  0.00  0.00    -0.181 SA
ATOM     21  H4  X8Z d   1      14.775   9.880  44.124  0.00  0.00     0.101 HD
ENDBRANCH  17  20
ENDBRANCH  15  17
BRANCH  15  22
ATOM     22  C3  X8Z d   1      14.424  14.636  44.538  0.00  0.00    -0.064 C 
ATOM     23  H5  X8Z d   1      13.666  15.432  44.572  0.00  0.00     0.028 H 
ATOM     24  H6  X8Z d   1      15.099  14.809  43.687  0.00  0.00     0.028 H 
ATOM     25  H7  X8Z d   1      15.004  14.641  45.473  0.00  0.00     0.028 H 
ENDBRANCH  15  22
ENDBRANCH   2  15
BRANCH   4  26
ATOM     26  C9  X8Z d   1      11.115  14.823  41.185  0.00  0.00     0.196 C 
ATOM     27  O3  X8Z d   1      10.782  14.902  39.973  0.00  0.00    -0.646 OA
ATOM     28  O2  X8Z d   1      11.653  15.812  41.755  0.00  0.00    -0.646 OA
ENDBRANCH   4  26
TORSDOF 5
