REMARK  7 active torsions:
REMARK  status: ('A' for Active; 'I' for Inactive)
REMARK    1  A    between atoms: C2_2  and  N12_12 
REMARK    2  A    between atoms: C5_5  and  C7_7 
REMARK       I    between atoms: C7_7  and  N8_8 
REMARK    3  A    between atoms: N8_8  and  O11_11 
REMARK    4  A    between atoms: N12_12  and  C13_13 
REMARK    5  A    between atoms: C13_13  and  C14_14 
REMARK    6  A    between atoms: C16_16  and  C24_24 
REMARK    7  A    between atoms: C18_18  and  C20_20 
ROOT
ATOM      1  C13 NIH d   1      26.350   0.793  42.110  0.00  0.00     0.033 C 
ATOM      2  H7  NIH d   1      27.239   1.259  42.561  0.00  0.00     0.072 H 
ATOM      3  H8  NIH d   1      26.562  -0.264  41.890  0.00  0.00     0.072 H 
ENDROOT
BRANCH   1   4
ATOM      4  N12 NIH d   1      26.009   1.490  40.873  0.00  0.00    -0.222 N 
ATOM      5  H6  NIH d   1      25.671   0.957  40.059  0.00  0.00     0.178 HD
BRANCH   4   6
ATOM      6  C2  NIH d   1      26.137   2.846  40.794  0.00  0.00     0.681 A 
ATOM      7  N1  NIH d   1      26.145   3.424  39.569  0.00  0.00    -0.155 N 
ATOM      8  C6  NIH d   1      26.224   4.762  39.441  0.00  0.00     0.276 A 
ATOM      9  H1  NIH d   1      26.092   2.851  38.751  0.00  0.00     0.187 HD
ATOM     10  C5  NIH d   1      26.326   5.519  40.631  0.00  0.00     0.118 A 
ATOM     11  O10 NIH d   1      26.209   5.301  38.341  0.00  0.00    -0.267 OA
ATOM     12  C4  NIH d   1      26.326   4.864  41.862  0.00  0.00     0.015 A 
ATOM     13  N3  NIH d   1      26.229   3.553  41.899  0.00  0.00    -0.201 N 
ATOM     14  H3  NIH d   1      26.406   5.434  42.786  0.00  0.00     0.114 H 
ATOM     15  H2  NIH d   1      26.225   3.071  42.809  0.00  0.00     0.183 HD
BRANCH  10  16
ATOM     16  C7  NIH d   1      26.387   6.969  40.554  0.00  0.00     0.281 C 
ATOM     17  N8  NIH d   1      26.731   7.536  39.388  0.00  0.00    -0.233 N 
ATOM     18  H4  NIH d   1      26.963   6.968  38.598  0.00  0.00     0.197 HD
ATOM     19  O9  NIH d   1      26.063   7.639  41.522  0.00  0.00    -0.265 OA
BRANCH  17  20
ATOM     20  O11 NIH d   1      26.761   8.939  39.289  0.00  0.00    -0.287 OA
ATOM     21  H5  NIH d   1      25.897   9.287  39.476  0.00  0.00     0.244 HD
ENDBRANCH  17  20
ENDBRANCH  10  16
ENDBRANCH   4   6
ENDBRANCH   1   4
BRANCH   1  22
ATOM     22  C14 NIH d   1      25.195   0.884  43.069  0.00  0.00    -0.038 A 
ATOM     23  C15 NIH d   1      23.994   1.450  42.699  0.00  0.00    -0.061 A 
ATOM     24  C16 NIH d   1      22.938   1.515  43.606  0.00  0.00     0.049 A 
ATOM     25  H9  NIH d   1      23.870   1.847  41.698  0.00  0.00     0.085 H 
ATOM     26  C17 NIH d   1      23.079   1.001  44.888  0.00  0.00    -0.054 A 
ATOM     27  C18 NIH d   1      24.294   0.419  45.235  0.00  0.00     0.049 A 
ATOM     28  H10 NIH d   1      22.263   1.052  45.600  0.00  0.00     0.086 H 
ATOM     29  C19 NIH d   1      25.342   0.373  44.338  0.00  0.00    -0.061 A 
ATOM     30  H11 NIH d   1      26.287  -0.068  44.635  0.00  0.00     0.085 H 
BRANCH  24  31
ATOM     31  C24 NIH d   1      21.650   2.158  43.147  0.00  0.00     0.417 C 
ATOM     32  F25 NIH d   1      21.576   2.156  41.752  0.00  0.00    -0.166 F 
ATOM     33  F26 NIH d   1      20.507   1.538  43.640  0.00  0.00    -0.166 F 
ATOM     34  F27 NIH d   1      21.682   3.443  43.620  0.00  0.00    -0.166 F 
ENDBRANCH  24  31
BRANCH  27  35
ATOM     35  C20 NIH d   1      24.558  -0.145  46.608  0.00  0.00     0.417 C 
ATOM     36  F21 NIH d   1      23.457   0.040  47.435  0.00  0.00    -0.166 F 
ATOM     37  F22 NIH d   1      24.853  -1.505  46.482  0.00  0.00    -0.166 F 
ATOM     38  F23 NIH d   1      25.647   0.540  47.168  0.00  0.00    -0.166 F 
ENDBRANCH  27  35
ENDBRANCH   1  22
TORSDOF 7
