REMARK  23 active torsions:
REMARK  status: ('A' for Active; 'I' for Inactive)
REMARK    1  A    between atoms: C17_2  and  C18_3 
REMARK       I    between atoms: C17_2  and  N12_4 
REMARK    2  A    between atoms: N12_4  and  C12_5 
REMARK    3  A    between atoms: C13_6  and  C14_8 
REMARK    4  A    between atoms: C14_8  and  O14_9 
REMARK    5  A    between atoms: C14_8  and  C15_10 
REMARK    6  A    between atoms: C15_10  and  O15_11 
REMARK    7  A    between atoms: C15_10  and  C16_12 
REMARK    8  A    between atoms: C16_12  and  O16_13 
REMARK    9  A    between atoms: C11_14  and  O11_15 
REMARK   10  A    between atoms: C9_17  and  C19_18 
REMARK   11  A    between atoms: C9_17  and  O9_21 
REMARK   12  A    between atoms: O9_21  and  C3_22 
REMARK   13  A    between atoms: C4_23  and  O4_28 
REMARK   14  A    between atoms: C5_24  and  C6_26 
REMARK   15  A    between atoms: C6_26  and  O6_27 
REMARK   16  A    between atoms: C2_29  and  O2_30 
REMARK   17  A    between atoms: C1_31  and  O1_32 
REMARK   18  A    between atoms: O1_32  and  C4A_33 
REMARK   19  A    between atoms: C5A_34  and  C6A_36 
REMARK   20  A    between atoms: C6A_36  and  O6A_37 
REMARK   21  A    between atoms: C3A_38  and  O3A_39 
REMARK   22  A    between atoms: C2A_40  and  O2A_41 
REMARK   23  A    between atoms: C1A_42  and  O1A_43 
ROOT
ATOM      1  C3  SLT d   1      -3.770   2.345   9.557  0.00  0.00     0.099 C 
ATOM      2  C4  SLT d   1      -4.448   2.972  10.791  0.00  0.00     0.090 C 
ATOM      3  C5  SLT d   1      -5.823   2.333  11.057  0.00  0.00     0.089 C 
ATOM      4  O5  SLT d   1      -6.654   2.321   9.911  0.00  0.00    -0.348 OA
ATOM      5  C2  SLT d   1      -4.740   2.185   8.372  0.00  0.00     0.110 C 
ATOM      6  C1  SLT d   1      -6.043   1.555   8.862  0.00  0.00     0.159 C 
ATOM      7  H   SLT d   1      -3.369   1.359   9.834  0.00  0.00     0.091 H 
ATOM      8  H   SLT d   1      -3.803   2.826  11.670  0.00  0.00     0.091 H 
ATOM      9  H   SLT d   1      -5.659   1.296  11.386  0.00  0.00     0.090 H 
ATOM     10  H   SLT d   1      -4.967   3.184   7.971  0.00  0.00     0.094 H 
ATOM     11  H   SLT d   1      -5.825   0.550   9.253  0.00  0.00     0.133 H 
ENDROOT
BRANCH   1  12
ATOM     12  O9  SLT d   1      -2.711   3.195   9.122  0.00  0.00    -0.336 OA
BRANCH  12  13
ATOM     13  C9  SLT d   1      -1.430   2.574   9.172  0.00  0.00     0.259 C 
ATOM     14  O13 SLT d   1      -1.434   1.595   8.115  0.00  0.00    -0.336 OA
ATOM     15  C13 SLT d   1      -0.159   0.948   7.932  0.00  0.00     0.091 C 
ATOM     16  C12 SLT d   1       0.892   1.997   7.490  0.00  0.00     0.064 C 
ATOM     17  H   SLT d   1       0.176   0.536   8.895  0.00  0.00     0.090 H 
ATOM     18  C11 SLT d   1       0.958   3.072   8.568  0.00  0.00     0.063 C 
ATOM     19  H   SLT d   1       0.577   2.458   6.542  0.00  0.00     0.080 H 
ATOM     20  C10 SLT d   1      -0.412   3.685   8.870  0.00  0.00     0.024 C 
ATOM     21  H   SLT d   1       1.341   2.614   9.492  0.00  0.00     0.086 H 
ATOM     22  H   SLT d   1      -0.752   4.264   7.999  0.00  0.00     0.045 H 
ATOM     23  H   SLT d   1      -0.329   4.350   9.742  0.00  0.00     0.045 H 
BRANCH  15  24
ATOM     24  C14 SLT d   1      -0.380  -0.219   6.983  0.00  0.00     0.089 C 
ATOM     25  H   SLT d   1       0.518  -0.854   6.995  0.00  0.00     0.091 H 
BRANCH  24  26
ATOM     26  O14 SLT d   1      -0.595   0.261   5.632  0.00  0.00    -0.390 OA
ATOM     27  H   SLT d   1       0.167   0.752   5.347  0.00  0.00     0.210 HD
ENDBRANCH  24  26
BRANCH  24  28
ATOM     28  C15 SLT d   1      -1.594  -1.070   7.422  0.00  0.00     0.083 C 
ATOM     29  H   SLT d   1      -2.511  -0.511   7.185  0.00  0.00     0.090 H 
BRANCH  28  30
ATOM     30  O15 SLT d   1      -1.575  -1.333   8.836  0.00  0.00    -0.391 OA
ATOM     31  H   SLT d   1      -1.598  -0.510   9.310  0.00  0.00     0.210 HD
ENDBRANCH  28  30
BRANCH  28  32
ATOM     32  C16 SLT d   1      -1.614  -2.387   6.658  0.00  0.00     0.043 C 
ATOM     33  H   SLT d   1      -0.825  -3.049   7.044  0.00  0.00     0.078 H 
ATOM     34  H   SLT d   1      -1.442  -2.196   5.588  0.00  0.00     0.078 H 
BRANCH  32  35
ATOM     35  O16 SLT d   1      -2.891  -3.008   6.835  0.00  0.00    -0.398 OA
ATOM     36  H   SLT d   1      -3.037  -3.171   7.760  0.00  0.00     0.209 HD
ENDBRANCH  32  35
ENDBRANCH  28  32
ENDBRANCH  24  28
ENDBRANCH  15  24
BRANCH  16  37
ATOM     37  N12 SLT d   1       2.183   1.338   7.285  0.00  0.00    -0.352 N 
ATOM     38  C17 SLT d   1       2.660   1.002   6.071  0.00  0.00     0.214 C 
ATOM     39  O17 SLT d   1       2.007   1.027   5.007  0.00  0.00    -0.274 OA
ATOM     40  H   SLT d   1       2.740   1.126   8.088  0.00  0.00     0.163 HD
BRANCH  38  41
ATOM     41  C18 SLT d   1       4.101   0.564   6.094  0.00  0.00    -0.003 C 
ATOM     42  H   SLT d   1       4.484   0.616   7.124  0.00  0.00     0.040 H 
ATOM     43  H   SLT d   1       4.696   1.226   5.448  0.00  0.00     0.040 H 
ATOM     44  H   SLT d   1       4.176  -0.470   5.727  0.00  0.00     0.040 H 
ENDBRANCH  38  41
ENDBRANCH  16  37
BRANCH  18  45
ATOM     45  O11 SLT d   1       1.869   4.098   8.145  0.00  0.00    -0.393 OA
ATOM     46  H   SLT d   1       2.731   3.720   8.014  0.00  0.00     0.210 HD
ENDBRANCH  18  45
BRANCH  13  47
ATOM     47  C19 SLT d   1      -1.225   1.907  10.551  0.00  0.00     0.239 C 
ATOM     48  O20 SLT d   1      -1.411   0.655  10.628  0.00  0.00    -0.644 OA
ATOM     49  O19 SLT d   1      -0.928   2.612  11.575  0.00  0.00    -0.644 OA
ENDBRANCH  13  47
ENDBRANCH  12  13
ENDBRANCH   1  12
BRANCH   2  50
ATOM     50  O4  SLT d   1      -4.641   4.371  10.560  0.00  0.00    -0.390 OA
ATOM     51  H   SLT d   1      -3.801   4.782  10.394  0.00  0.00     0.210 HD
ENDBRANCH   2  50
BRANCH   5  52
ATOM     52  O2  SLT d   1      -4.138   1.397   7.307  0.00  0.00    -0.388 OA
ATOM     53  H   SLT d   1      -3.350   1.831   7.000  0.00  0.00     0.210 HD
ENDBRANCH   5  52
BRANCH   3  54
ATOM     54  C6  SLT d   1      -6.559   3.082  12.133  0.00  0.00     0.043 C 
ATOM     55  H   SLT d   1      -6.996   4.014  11.745  0.00  0.00     0.078 H 
ATOM     56  H   SLT d   1      -5.900   3.312  12.983  0.00  0.00     0.078 H 
BRANCH  54  57
ATOM     57  O6  SLT d   1      -7.567   2.151  12.498  0.00  0.00    -0.398 OA
ATOM     58  H   SLT d   1      -8.107   1.958  11.741  0.00  0.00     0.209 HD
ENDBRANCH  54  57
ENDBRANCH   3  54
BRANCH   6  59
ATOM     59  O1  SLT d   1      -6.922   1.439   7.742  0.00  0.00    -0.348 OA
BRANCH  59  60
ATOM     60  C4A SLT d   1      -7.971   0.512   8.031  0.00  0.00     0.096 C 
ATOM     61  C5A SLT d   1      -7.754  -0.820   7.284  0.00  0.00     0.089 C 
ATOM     62  O5A SLT d   1      -8.922  -1.684   7.202  0.00  0.00    -0.349 OA
ATOM     63  H   SLT d   1      -7.465  -0.570   6.253  0.00  0.00     0.090 H 
ATOM     64  C1A SLT d   1     -10.245  -1.096   7.201  0.00  0.00     0.156 C 
ATOM     65  C2A SLT d   1     -10.330   0.084   8.181  0.00  0.00     0.110 C 
ATOM     66  H   SLT d   1     -10.985  -1.858   7.485  0.00  0.00     0.133 H 
ATOM     67  C3A SLT d   1      -9.330   1.124   7.670  0.00  0.00     0.092 C 
ATOM     68  H   SLT d   1     -10.002  -0.261   9.173  0.00  0.00     0.094 H 
ATOM     69  H   SLT d   1      -9.415   1.215   6.577  0.00  0.00     0.091 H 
ATOM     70  H   SLT d   1      -7.961   0.305   9.111  0.00  0.00     0.091 H 
BRANCH  61  71
ATOM     71  C6A SLT d   1      -6.594  -1.585   7.937  0.00  0.00     0.043 C 
ATOM     72  H   SLT d   1      -6.837  -2.652   8.052  0.00  0.00     0.078 H 
ATOM     73  H   SLT d   1      -6.340  -1.159   8.919  0.00  0.00     0.078 H 
BRANCH  71  74
ATOM     74  O6A SLT d   1      -5.528  -1.396   7.000  0.00  0.00    -0.398 OA
ATOM     75  H   SLT d   1      -4.749  -1.838   7.315  0.00  0.00     0.209 HD
ENDBRANCH  71  74
ENDBRANCH  61  71
BRANCH  64  76
ATOM     76  O1A SLT d   1     -10.517  -0.621   5.874  0.00  0.00    -0.369 OA
ATOM     77  H   SLT d   1     -11.383  -0.230   5.850  0.00  0.00     0.212 HD
ENDBRANCH  64  76
BRANCH  65  78
ATOM     78  O2A SLT d   1     -11.656   0.609   8.333  0.00  0.00    -0.388 OA
ATOM     79  H   SLT d   1     -11.642   1.327   8.955  0.00  0.00     0.210 HD
ENDBRANCH  65  78
BRANCH  67  80
ATOM     80  O3A SLT d   1      -9.537   2.422   8.232  0.00  0.00    -0.390 OA
ATOM     81  H   SLT d   1      -8.864   3.014   7.916  0.00  0.00     0.210 HD
ENDBRANCH  67  80
ENDBRANCH  59  60
ENDBRANCH   6  59
TORSDOF 23
