REMARK  3 active torsions:
REMARK  status: ('A' for Active; 'I' for Inactive)
REMARK       I    between atoms: C_1  and  N_2 
REMARK    1  A    between atoms: C1_4  and  C_1 
REMARK    2  A    between atoms: C10_16  and  O1_6 
REMARK    3  A    between atoms: C7_13  and  C6_12 
ROOT
ATOM      1  C1  NU3 d   1      10.493  83.914  84.619  0.00  0.00     0.060 A 
ATOM      2  N1  NU3 d   1       8.045  86.416  85.178  0.00  0.00    -0.228 NA
ATOM      3  C2  NU3 d   1       9.752  82.740  84.450  0.00  0.00    -0.065 A 
ATOM      4  N2  NU3 d   1      10.287  86.472  85.017  0.00  0.00    -0.338 N 
ATOM      5  C3  NU3 d   1       8.366  82.753  84.558  0.00  0.00    -0.080 A 
ATOM      6  C4  NU3 d   1       7.693  83.939  84.805  0.00  0.00    -0.053 A 
ATOM      7  C5  NU3 d   1       8.443  85.107  84.944  0.00  0.00     0.086 A 
ATOM      8  C6  NU3 d   1       9.177  87.187  85.197  0.00  0.00     0.139 A 
ATOM      9  C13 NU3 d   1       9.872  85.150  84.852  0.00  0.00     0.078 A 
ATOM     10  H4  NU3 d   1      10.264  81.810  84.232  0.00  0.00     0.085 H 
ATOM     11  H5  NU3 d   1      11.255  86.824  85.003  0.00  0.00     0.167 HD
ATOM     12  H6  NU3 d   1       7.808  81.830  84.448  0.00  0.00     0.083 H 
ATOM     13  H7  NU3 d   1       6.612  83.959  84.888  0.00  0.00     0.087 H 
ENDROOT
BRANCH   8  14
ATOM     14  C7  NU3 d   1       9.143  88.658  85.362  0.00  0.00     0.010 A 
ATOM     15  C8  NU3 d   1      10.318  89.367  85.600  0.00  0.00    -0.067 A 
ATOM     16  C9  NU3 d   1      10.306  90.749  85.705  0.00  0.00    -0.050 A 
ATOM     17  H8  NU3 d   1      11.254  88.831  85.704  0.00  0.00     0.085 H 
ATOM     18  C10 NU3 d   1       9.112  91.447  85.572  0.00  0.00     0.065 A 
ATOM     19  H9  NU3 d   1      11.229  91.286  85.891  0.00  0.00     0.087 H 
ATOM     20  C11 NU3 d   1       7.930  90.754  85.345  0.00  0.00    -0.050 A 
ATOM     21  C12 NU3 d   1       7.946  89.370  85.252  0.00  0.00    -0.067 A 
ATOM     22  H10 NU3 d   1       6.996  91.294  85.241  0.00  0.00     0.087 H 
ATOM     23  H11 NU3 d   1       7.018  88.834  85.092  0.00  0.00     0.085 H 
BRANCH  18  24
ATOM     24  O1  NU3 d   1       9.123  92.814  85.699  0.00  0.00    -0.361 OA
ATOM     25  H3  NU3 d   1       8.241  93.149  85.584  0.00  0.00     0.217 HD
ENDBRANCH  18  24
ENDBRANCH   8  14
BRANCH   1  26
ATOM     26  C   NU3 d   1      11.991  83.841  84.625  0.00  0.00     0.251 C 
ATOM     27  N   NU3 d   1      12.680  84.997  84.745  0.00  0.00    -0.366 N 
ATOM     28  H1  NU3 d   1      12.190  85.862  84.853  0.00  0.00     0.159 HD
ATOM     29  H2  NU3 d   1      13.680  84.987  84.726  0.00  0.00     0.159 HD
ATOM     30  O   NU3 d   1      12.556  82.745  84.489  0.00  0.00    -0.268 OA
ENDBRANCH   1  26
TORSDOF 3
