REMARK  4 active torsions:
REMARK  status: ('A' for Active; 'I' for Inactive)
REMARK    1  A    between atoms: N1_5  and  C7_14 
REMARK    2  A    between atoms: C12_19  and  N4_11 
REMARK    3  A    between atoms: C6_13  and  C11_18 
REMARK    4  A    between atoms: C7_14  and  C8_15 
ROOT
ATOM      1  C   ZO9 d   1     -26.709  -9.901   0.473  0.00  0.00    -0.081 A 
ATOM      2  N   ZO9 d   1     -29.806 -10.039  -1.613  0.00  0.00    -0.226 NA
ATOM      3  C1  ZO9 d   1     -25.817  -9.578  -0.547  0.00  0.00    -0.081 A 
ATOM      4  N1  ZO9 d   1     -28.375  -9.509  -3.279  0.00  0.00    -0.327 N 
ATOM      5  C2  ZO9 d   1     -26.257  -9.431  -1.860  0.00  0.00    -0.055 A 
ATOM      6  C3  ZO9 d   1     -27.612  -9.623  -2.118  0.00  0.00     0.065 A 
ATOM      7  C4  ZO9 d   1     -28.513  -9.946  -1.105  0.00  0.00     0.086 A 
ATOM      8  C5  ZO9 d   1     -28.059 -10.083   0.207  0.00  0.00    -0.053 A 
ATOM      9  C6  ZO9 d   1     -29.678  -9.763  -2.899  0.00  0.00     0.166 A 
ATOM     10  H1  ZO9 d   1     -26.344 -10.012   1.488  0.00  0.00     0.083 H 
ATOM     11  H2  ZO9 d   1     -24.767  -9.439  -0.316  0.00  0.00     0.083 H 
ATOM     12  H3  ZO9 d   1     -25.567  -9.175  -2.656  0.00  0.00     0.087 H 
ATOM     13  H6  ZO9 d   1     -28.750 -10.328   1.006  0.00  0.00     0.087 H 
ENDROOT
BRANCH   4  14
ATOM     14  C7  ZO9 d   1     -27.891  -9.066  -4.601  0.00  0.00     0.005 C 
ATOM     15  H7  ZO9 d   1     -27.008  -8.424  -4.463  0.00  0.00     0.065 H 
ATOM     16  H8  ZO9 d   1     -28.686  -8.493  -5.100  0.00  0.00     0.065 H 
BRANCH  14  17
ATOM     17  C8  ZO9 d   1     -27.512 -10.245  -5.472  0.00  0.00    -0.038 A 
ATOM     18  C9  ZO9 d   1     -26.144 -10.830  -5.329  0.00  0.00    -0.060 A 
ATOM     19  C10 ZO9 d   1     -26.499 -10.061  -6.558  0.00  0.00    -0.060 A 
ATOM     20  H10 ZO9 d   1     -26.004 -11.920  -5.384  0.00  0.00     0.033 H 
ATOM     21  H11 ZO9 d   1     -25.438 -10.406  -4.600  0.00  0.00     0.033 H 
ATOM     22  H12 ZO9 d   1     -26.055  -9.070  -6.734  0.00  0.00     0.033 H 
ATOM     23  H13 ZO9 d   1     -26.621 -10.584  -7.518  0.00  0.00     0.033 H 
ATOM     24  H9  ZO9 d   1     -28.386 -10.894  -5.630  0.00  0.00     0.042 H 
ENDBRANCH  14  17
ENDBRANCH   4  14
BRANCH   9  25
ATOM     25  C11 ZO9 d   1     -30.847  -9.916  -3.795  0.00  0.00     0.179 A 
ATOM     26  N2  ZO9 d   1     -30.829 -10.120  -5.100  0.00  0.00    -0.097 NA
ATOM     27  O   ZO9 d   1     -32.165 -10.223  -5.468  0.00  0.00    -0.104 OA
ATOM     28  N3  ZO9 d   1     -33.013 -10.092  -4.356  0.00  0.00    -0.085 NA
ATOM     29  C12 ZO9 d   1     -32.219  -9.931  -3.330  0.00  0.00     0.186 A 
BRANCH  29  30
ATOM     30  N4  ZO9 d   1     -32.636  -9.745  -2.073  0.00  0.00    -0.380 N 
ATOM     31  H4  ZO9 d   1     -31.949  -9.625  -1.315  0.00  0.00     0.158 HD
ATOM     32  H5  ZO9 d   1     -33.644  -9.722  -1.863  0.00  0.00     0.158 HD
ENDBRANCH  29  30
ENDBRANCH   9  25
TORSDOF 4
