REMARK  4 active torsions:
REMARK  status: ('A' for Active; 'I' for Inactive)
REMARK    1  A    between atoms: N2_5  and  C6_6 
REMARK    2  A    between atoms: C6_6  and  C7_7 
REMARK    3  A    between atoms: C5_8  and  C8_13 
REMARK    4  A    between atoms: C9_14  and  N5_15 
ROOT
ATOM      1 BR   Z21 d   1      24.065  -9.628  -0.046  0.00  0.00    -0.029 Br
ATOM      2  C   Z21 d   1      25.897  -9.729   0.443  0.00  0.00     0.105 A 
ATOM      3  C1  Z21 d   1      26.234  -9.606   1.781  0.00  0.00    -0.020 A 
ATOM      4  C2  Z21 d   1      27.604  -9.729   1.992  0.00  0.00     0.069 A 
ATOM      5  N2  Z21 d   1      28.363  -9.686   3.155  0.00  0.00    -0.328 N 
ATOM      6  C5  Z21 d   1      29.667  -9.876   2.753  0.00  0.00     0.166 A 
ATOM      7  N1  Z21 d   1      29.814 -10.006   1.448  0.00  0.00    -0.225 NA
ATOM      8  C3  Z21 d   1      28.518  -9.935   0.949  0.00  0.00     0.103 A 
ATOM      9  C4  Z21 d   1      28.029 -10.035  -0.385  0.00  0.00     0.033 A 
ATOM     10  N   Z21 d   1      26.717  -9.927  -0.623  0.00  0.00    -0.251 NA
ATOM     11  H1  Z21 d   1      25.514  -9.434   2.572  0.00  0.00     0.091 H 
ATOM     12  H7  Z21 d   1      28.718 -10.198  -1.206  0.00  0.00     0.118 H 
ENDROOT
BRANCH   6  13
ATOM     13  C8  Z21 d   1      30.789 -10.037   3.662  0.00  0.00     0.179 A 
ATOM     14  C9  Z21 d   1      32.179  -9.977   3.282  0.00  0.00     0.186 A 
ATOM     15  N4  Z21 d   1      32.927 -10.156   4.337  0.00  0.00    -0.085 NA
ATOM     16  O   Z21 d   1      32.049 -10.342   5.379  0.00  0.00    -0.104 OA
ATOM     17  N3  Z21 d   1      30.714 -10.264   4.953  0.00  0.00    -0.097 NA
BRANCH  14  18
ATOM     18  N5  Z21 d   1      32.669  -9.778   2.052  0.00  0.00    -0.380 N 
ATOM     19  H8  Z21 d   1      33.688  -9.755   1.901  0.00  0.00     0.158 HD
ATOM     20  H9  Z21 d   1      32.027  -9.648   1.257  0.00  0.00     0.158 HD
ENDBRANCH  14  18
ENDBRANCH   6  13
BRANCH   5  21
ATOM     21  C6  Z21 d   1      27.803  -9.449   4.499  0.00  0.00    -0.002 C 
ATOM     22  H2  Z21 d   1      26.942  -8.770   4.412  0.00  0.00     0.064 H 
ATOM     23  H3  Z21 d   1      28.574  -8.984   5.130  0.00  0.00     0.064 H 
BRANCH  21  24
ATOM     24  C7  Z21 d   1      27.351 -10.732   5.144  0.00  0.00    -0.061 C 
ATOM     25  H4  Z21 d   1      26.941 -10.516   6.141  0.00  0.00     0.029 H 
ATOM     26  H5  Z21 d   1      28.207 -11.416   5.240  0.00  0.00     0.029 H 
ATOM     27  H6  Z21 d   1      26.575 -11.201   4.522  0.00  0.00     0.029 H 
ENDBRANCH  21  24
ENDBRANCH   5  21
TORSDOF 4
