REMARK  7 active torsions:
REMARK  status: ('A' for Active; 'I' for Inactive)
REMARK    1  A    between atoms: C3_1  and  O1_2 
REMARK    2  A    between atoms: O1_2  and  C2_3 
REMARK    3  A    between atoms: C6_6  and  N_11 
REMARK    4  A    between atoms: C1_8  and  O_9 
REMARK    5  A    between atoms: O_9  and  C_10 
REMARK    6  A    between atoms: N_11  and  C7_12 
REMARK    7  A    between atoms: C11_16  and  C12_21 
ROOT
ATOM      1  C7  4T9 d   1       0.032  44.040 131.486  0.00  0.00     0.129 A 
ATOM      2  C16 4T9 d   1      -0.551  43.038 130.652  0.00  0.00    -0.012 A 
ATOM      3  C10 4T9 d   1      -1.343  42.087 131.290  0.00  0.00     0.048 A 
ATOM      4  N2  4T9 d   1      -2.007  41.020 130.764  0.00  0.00    -0.355 N 
ATOM      5  C11 4T9 d   1      -2.674  40.373 131.826  0.00  0.00     0.046 A 
ATOM      6  C15 4T9 d   1      -2.434  41.041 133.005  0.00  0.00    -0.043 A 
ATOM      7  C9  4T9 d   1      -1.584  42.118 132.693  0.00  0.00     0.011 A 
ATOM      8  C8  4T9 d   1      -0.980  43.133 133.428  0.00  0.00     0.017 A 
ATOM      9  N1  4T9 d   1      -0.191  44.085 132.872  0.00  0.00    -0.242 NA
ATOM     10  H11 4T9 d   1      -0.386  43.019 129.581  0.00  0.00     0.092 H 
ATOM     11  H12 4T9 d   1      -2.020  40.738 129.774  0.00  0.00     0.166 HD
ATOM     12  H13 4T9 d   1      -2.826  40.786 133.988  0.00  0.00     0.088 H 
ATOM     13  H14 4T9 d   1      -1.149  43.164 134.498  0.00  0.00     0.116 H 
ENDROOT
BRANCH   1  14
ATOM     14  N   4T9 d   1       0.924  44.995 130.920  0.00  0.00    -0.341 N 
ATOM     15  H10 4T9 d   1       1.411  45.601 131.595  0.00  0.00     0.167 HD
BRANCH  14  16
ATOM     16  C6  4T9 d   1       1.237  45.229 129.550  0.00  0.00     0.036 A 
ATOM     17  C5  4T9 d   1       1.395  44.187 128.586  0.00  0.00    -0.054 A 
ATOM     18  C4  4T9 d   1       1.565  44.488 127.244  0.00  0.00    -0.046 A 
ATOM     19  H5  4T9 d   1       1.382  43.152 128.907  0.00  0.00     0.087 H 
ATOM     20  C2  4T9 d   1       1.604  45.838 126.826  0.00  0.00     0.101 A 
ATOM     21  H4  4T9 d   1       1.668  43.691 126.517  0.00  0.00     0.087 H 
ATOM     22  C1  4T9 d   1       1.491  46.890 127.794  0.00  0.00     0.103 A 
ATOM     23  C17 4T9 d   1       1.303  46.584 129.158  0.00  0.00    -0.022 A 
ATOM     24  H6  4T9 d   1       1.211  47.376 129.893  0.00  0.00     0.091 H 
BRANCH  20  25
ATOM     25  O1  4T9 d   1       1.688  46.139 125.478  0.00  0.00    -0.353 OA
BRANCH  25  26
ATOM     26  C3  4T9 d   1       2.985  45.916 124.908  0.00  0.00     0.010 C 
ATOM     27  H1  4T9 d   1       2.966  46.178 123.840  0.00  0.00     0.066 H 
ATOM     28  H2  4T9 d   1       3.258  44.856 125.021  0.00  0.00     0.066 H 
ATOM     29  H3  4T9 d   1       3.726  46.542 125.426  0.00  0.00     0.066 H 
ENDBRANCH  25  26
ENDBRANCH  20  25
BRANCH  22  30
ATOM     30  O   4T9 d   1       1.616  48.202 127.374  0.00  0.00    -0.353 OA
BRANCH  30  31
ATOM     31  C   4T9 d   1       0.384  48.917 127.207  0.00  0.00     0.010 C 
ATOM     32  H7  4T9 d   1       0.598  49.943 126.873  0.00  0.00     0.066 H 
ATOM     33  H8  4T9 d   1      -0.155  48.948 128.166  0.00  0.00     0.066 H 
ATOM     34  H9  4T9 d   1      -0.236  48.408 126.454  0.00  0.00     0.066 H 
ENDBRANCH  30  31
ENDBRANCH  22  30
ENDBRANCH  14  16
ENDBRANCH   1  14
BRANCH   5  35
ATOM     35  C12 4T9 d   1      -3.387  39.151 131.616  0.00  0.00     0.027 A 
ATOM     36  C14 4T9 d   1      -3.431  38.063 132.549  0.00  0.00     0.009 A 
ATOM     37  N4  4T9 d   1      -4.070  37.003 131.991  0.00  0.00    -0.289 N 
ATOM     38  H15 4T9 d   1      -3.014  38.084 133.555  0.00  0.00     0.115 H 
ATOM     39  N3  4T9 d   1      -4.437  37.404 130.743  0.00  0.00    -0.187 NA
ATOM     40  H16 4T9 d   1      -4.242  36.084 132.423  0.00  0.00     0.188 HD
ATOM     41  C13 4T9 d   1      -4.052  38.712 130.472  0.00  0.00     0.035 A 
ATOM     42  H17 4T9 d   1      -4.232  39.276 129.558  0.00  0.00     0.118 H 
ENDBRANCH   5  35
TORSDOF 7
