REMARK  5 active torsions:
REMARK  status: ('A' for Active; 'I' for Inactive)
REMARK    1  A    between atoms: C16_1  and  O1_2 
REMARK    2  A    between atoms: O1_2  and  C11_3 
REMARK    3  A    between atoms: C10_8  and  N3_9 
REMARK    4  A    between atoms: N3_9  and  C2_10 
REMARK    5  A    between atoms: C5_16  and  C7_19 
ROOT
ATOM      1  C2  7CE d   1      -0.287 -11.583 -17.659  0.00  0.00     0.129 A 
ATOM      2  N   7CE d   1      -0.265 -11.487 -19.066  0.00  0.00    -0.242 NA
ATOM      3  C1  7CE d   1       0.423 -12.420 -19.783  0.00  0.00     0.017 A 
ATOM      4  C3  7CE d   1       0.407 -12.592 -16.955  0.00  0.00    -0.012 A 
ATOM      5  C4  7CE d   1       1.085 -13.554 -17.748  0.00  0.00     0.048 A 
ATOM      6  N1  7CE d   1       1.772 -14.696 -17.365  0.00  0.00    -0.353 N 
ATOM      7  C5  7CE d   1       2.225 -15.315 -18.557  0.00  0.00     0.069 A 
ATOM      8  C6  7CE d   1       1.824 -14.580 -19.661  0.00  0.00    -0.041 A 
ATOM      9  C   7CE d   1       1.104 -13.476 -19.183  0.00  0.00     0.011 A 
ATOM     10  H9  7CE d   1       0.441 -12.337 -20.864  0.00  0.00     0.116 H 
ATOM     11  H10 7CE d   1       0.421 -12.629 -15.872  0.00  0.00     0.092 H 
ATOM     12  H11 7CE d   1       1.923 -15.029 -16.402  0.00  0.00     0.166 HD
ATOM     13  H12 7CE d   1       2.030 -14.816 -20.704  0.00  0.00     0.088 H 
ENDROOT
BRANCH   1  14
ATOM     14  N3  7CE d   1      -1.151 -10.696 -16.965  0.00  0.00    -0.339 N 
ATOM     15  H8  7CE d   1      -1.669 -10.043 -17.571  0.00  0.00     0.167 HD
BRANCH  14  16
ATOM     16  C10 7CE d   1      -1.424 -10.554 -15.575  0.00  0.00     0.067 A 
ATOM     17  C11 7CE d   1      -1.491  -9.214 -15.038  0.00  0.00     0.094 A 
ATOM     18  C12 7CE d   1      -1.737  -9.010 -13.651  0.00  0.00    -0.049 A 
ATOM     19  C13 7CE d   1      -1.885 -10.123 -12.793  0.00  0.00    -0.080 A 
ATOM     20  H4  7CE d   1      -1.811  -8.004 -13.254  0.00  0.00     0.087 H 
ATOM     21  C14 7CE d   1      -1.798 -11.438 -13.312  0.00  0.00    -0.081 A 
ATOM     22  H5  7CE d   1      -2.066  -9.970 -11.735  0.00  0.00     0.083 H 
ATOM     23  C15 7CE d   1      -1.581 -11.659 -14.684  0.00  0.00    -0.054 A 
ATOM     24  H6  7CE d   1      -1.900 -12.285 -12.643  0.00  0.00     0.083 H 
ATOM     25  H7  7CE d   1      -1.533 -12.672 -15.067  0.00  0.00     0.087 H 
BRANCH  17  26
ATOM     26  O1  7CE d   1      -1.180  -8.141 -15.910  0.00  0.00    -0.354 OA
BRANCH  26  27
ATOM     27  C16 7CE d   1      -1.631  -6.824 -15.561  0.00  0.00     0.010 C 
ATOM     28  H1  7CE d   1      -1.311  -6.110 -16.334  0.00  0.00     0.066 H 
ATOM     29  H2  7CE d   1      -1.199  -6.533 -14.592  0.00  0.00     0.066 H 
ATOM     30  H3  7CE d   1      -2.729  -6.819 -15.489  0.00  0.00     0.066 H 
ENDBRANCH  26  27
ENDBRANCH  17  26
ENDBRANCH  14  16
ENDBRANCH   1  14
BRANCH   7  31
ATOM     31  C7  7CE d   1       2.993 -16.541 -18.565  0.00  0.00     0.121 A 
ATOM     32  C9  7CE d   1       3.687 -17.212 -17.575  0.00  0.00     0.039 A 
ATOM     33  N2  7CE d   1       4.175 -18.409 -18.155  0.00  0.00    -0.246 NA
ATOM     34  H13 7CE d   1       3.831 -16.883 -16.547  0.00  0.00     0.119 H 
ATOM     35  C8  7CE d   1       3.784 -18.405 -19.434  0.00  0.00     0.103 A 
ATOM     36  O   7CE d   1       3.059 -17.288 -19.747  0.00  0.00    -0.300 OA
ATOM     37  H14 7CE d   1       4.016 -19.198 -20.143  0.00  0.00     0.155 H 
ENDBRANCH   7  31
TORSDOF 5
