REMARK  12 active torsions:
REMARK  status: ('A' for Active; 'I' for Inactive)
REMARK    1  A    between atoms: C20_2  and  O1_3 
REMARK       I    between atoms: C20_2  and  N5_8 
REMARK    2  A    between atoms: O1_3  and  C21_4 
REMARK    3  A    between atoms: C21_4  and  C24_5 
REMARK    4  A    between atoms: C21_4  and  C23_6 
REMARK    5  A    between atoms: C21_4  and  C22_7 
REMARK    6  A    between atoms: C4_9  and  C3_10 
REMARK    7  A    between atoms: N_14  and  C_15 
REMARK    8  A    between atoms: C8_20  and  N3_23 
REMARK    9  A    between atoms: N3_23  and  C9_24 
REMARK   10  A    between atoms: C12_27  and  C13_31 
REMARK       I    between atoms: C13_31  and  N4_33 
REMARK   11  A    between atoms: N4_33  and  C15_34 
REMARK   12  A    between atoms: N4_33  and  C14_35 
ROOT
ATOM      1  O2  7RO d   1      -2.613  39.517 128.699  0.00  0.00    -0.237 OA
ATOM      2  C20 7RO d   1      -1.907  40.501 128.886  0.00  0.00     0.373 C 
ATOM      3  N5  7RO d   1      -1.768  41.075 130.176  0.00  0.00    -0.256 N 
ATOM      4  C4  7RO d   1      -2.307  40.578 131.431  0.00  0.00     0.059 A 
ATOM      5  C19 7RO d   1      -1.045  42.266 130.456  0.00  0.00     0.060 A 
ATOM      6  C6  7RO d   1      -1.142  42.489 131.872  0.00  0.00     0.011 A 
ATOM      7  C5  7RO d   1      -1.930  41.452 132.419  0.00  0.00    -0.042 A 
ATOM      8  C18 7RO d   1      -0.284  43.124 129.626  0.00  0.00    -0.011 A 
ATOM      9  C8  7RO d   1       0.403  44.187 130.290  0.00  0.00     0.129 A 
ATOM     10  N2  7RO d   1       0.312  44.409 131.685  0.00  0.00    -0.242 NA
ATOM     11  C7  7RO d   1      -0.456  43.558 132.424  0.00  0.00     0.017 A 
ATOM     12  H15 7RO d   1      -2.199  41.360 133.470  0.00  0.00     0.088 H 
ATOM     13  H16 7RO d   1      -0.226  42.983 128.553  0.00  0.00     0.093 H 
ATOM     14  H17 7RO d   1      -0.533  43.726 133.492  0.00  0.00     0.116 H 
ENDROOT
BRANCH   9  15
ATOM     15  N3  7RO d   1       1.273  45.021 129.560  0.00  0.00    -0.340 N 
ATOM     16  H18 7RO d   1       1.925  45.578 130.131  0.00  0.00     0.167 HD
BRANCH  15  17
ATOM     17  C9  7RO d   1       1.386  45.207 128.179  0.00  0.00     0.055 A 
ATOM     18  C17 7RO d   1       1.617  44.134 127.317  0.00  0.00    -0.054 A 
ATOM     19  C16 7RO d   1       1.838  44.350 125.977  0.00  0.00    -0.065 A 
ATOM     20  H19 7RO d   1       1.622  43.123 127.707  0.00  0.00     0.087 H 
ATOM     21  C12 7RO d   1       1.834  45.631 125.449  0.00  0.00     0.033 A 
ATOM     22  H20 7RO d   1       2.018  43.504 125.323  0.00  0.00     0.085 H 
ATOM     23  C11 7RO d   1       1.560  46.758 126.252  0.00  0.00    -0.044 A 
ATOM     24  C10 7RO d   1       1.347  46.544 127.624  0.00  0.00     0.061 A 
ATOM     25  H21 7RO d   1       1.515  47.754 125.826  0.00  0.00     0.087 H 
ATOM     26 CL   7RO d   1       1.049  47.976 128.649  0.00  0.00    -0.082 Cl
BRANCH  21  27
ATOM     27  C13 7RO d   1       2.296  45.795 124.038  0.00  0.00     0.253 C 
ATOM     28  O   7RO d   1       3.185  46.618 123.782  0.00  0.00    -0.267 OA
ATOM     29  N4  7RO d   1       1.762  44.969 123.009  0.00  0.00    -0.357 N 
BRANCH  29  30
ATOM     30  C15 7RO d   1       2.511  44.800 121.753  0.00  0.00    -0.016 C 
ATOM     31  H22 7RO d   1       1.952  44.134 121.079  0.00  0.00     0.056 H 
ATOM     32  H23 7RO d   1       3.496  44.360 121.970  0.00  0.00     0.056 H 
ATOM     33  H24 7RO d   1       2.645  45.780 121.271  0.00  0.00     0.056 H 
ENDBRANCH  29  30
BRANCH  29  34
ATOM     34  C14 7RO d   1       0.318  44.712 122.884  0.00  0.00    -0.016 C 
ATOM     35  H25 7RO d   1      -0.166  44.859 123.861  0.00  0.00     0.056 H 
ATOM     36  H26 7RO d   1       0.158  43.677 122.547  0.00  0.00     0.056 H 
ATOM     37  H27 7RO d   1      -0.116  45.408 122.151  0.00  0.00     0.056 H 
ENDBRANCH  29  34
ENDBRANCH  21  27
ENDBRANCH  15  17
ENDBRANCH   9  15
BRANCH   2  38
ATOM     38  O1  7RO d   1      -1.173  41.123 127.882  0.00  0.00    -0.293 OA
BRANCH  38  39
ATOM     39  C21 7RO d   1      -1.272  40.702 126.467  0.00  0.00     0.061 C 
BRANCH  39  40
ATOM     40  C24 7RO d   1      -2.630  41.140 125.954  0.00  0.00    -0.048 C 
ATOM     41  H1  7RO d   1      -2.738  40.842 124.901  0.00  0.00     0.031 H 
ATOM     42  H2  7RO d   1      -2.718  42.233 126.036  0.00  0.00     0.031 H 
ATOM     43  H3  7RO d   1      -3.420  40.663 126.553  0.00  0.00     0.031 H 
ENDBRANCH  39  40
BRANCH  39  44
ATOM     44  C23 7RO d   1      -0.167  41.511 125.832  0.00  0.00    -0.048 C 
ATOM     45  H4  7RO d   1      -0.125  41.292 124.755  0.00  0.00     0.031 H 
ATOM     46  H5  7RO d   1       0.794  41.248 126.297  0.00  0.00     0.031 H 
ATOM     47  H6  7RO d   1      -0.365  42.583 125.981  0.00  0.00     0.031 H 
ENDBRANCH  39  44
BRANCH  39  48
ATOM     48  C22 7RO d   1      -1.046  39.220 126.240  0.00  0.00    -0.048 C 
ATOM     49  H7  7RO d   1      -1.137  38.995 125.167  0.00  0.00     0.031 H 
ATOM     50  H8  7RO d   1      -1.798  38.644 126.800  0.00  0.00     0.031 H 
ATOM     51  H9  7RO d   1      -0.039  38.945 126.588  0.00  0.00     0.031 H 
ENDBRANCH  39  48
ENDBRANCH  38  39
ENDBRANCH   2  38
BRANCH   4  52
ATOM     52  C3  7RO d   1      -3.063  39.336 131.636  0.00  0.00     0.028 A 
ATOM     53  C1  7RO d   1      -4.075  38.699 130.829  0.00  0.00     0.035 A 
ATOM     54  N1  7RO d   1      -4.535  37.570 131.439  0.00  0.00    -0.185 NA
ATOM     55  H10 7RO d   1      -4.423  39.069 129.866  0.00  0.00     0.118 H 
ATOM     56  N   7RO d   1      -3.865  37.482 132.641  0.00  0.00    -0.285 N 
ATOM     57  C2  7RO d   1      -2.947  38.511 132.774  0.00  0.00     0.011 A 
ATOM     58  H11 7RO d   1      -2.260  38.657 133.607  0.00  0.00     0.115 H 
BRANCH  56  59
ATOM     59  C   7RO d   1      -4.228  36.517 133.686  0.00  0.00     0.002 C 
ATOM     60  H12 7RO d   1      -3.553  36.637 134.547  0.00  0.00     0.059 H 
ATOM     61  H13 7RO d   1      -4.137  35.495 133.289  0.00  0.00     0.059 H 
ATOM     62  H14 7RO d   1      -5.265  36.696 134.006  0.00  0.00     0.059 H 
ENDBRANCH  56  59
ENDBRANCH   4  52
TORSDOF 12
