REMARK  12 active torsions:
REMARK  status: ('A' for Active; 'I' for Inactive)
REMARK    1  A    between atoms: C20_2  and  O1_3 
REMARK       I    between atoms: C20_2  and  N5_8 
REMARK    2  A    between atoms: O1_3  and  C21_4 
REMARK    3  A    between atoms: C21_4  and  C24_5 
REMARK    4  A    between atoms: C21_4  and  C23_6 
REMARK    5  A    between atoms: C21_4  and  C22_7 
REMARK    6  A    between atoms: C4_9  and  C3_10 
REMARK    7  A    between atoms: N_14  and  C_15 
REMARK    8  A    between atoms: C8_20  and  N3_23 
REMARK    9  A    between atoms: N3_23  and  C9_24 
REMARK   10  A    between atoms: C12_27  and  C13_31 
REMARK       I    between atoms: C13_31  and  N4_33 
REMARK   11  A    between atoms: N4_33  and  C15_34 
REMARK   12  A    between atoms: N4_33  and  C14_35 
ROOT
ATOM      1  O2  7RO d   1       3.186 -36.896 -14.790  0.00  0.00    -0.237 OA
ATOM      2  C20 7RO d   1       2.384 -36.620 -13.925  0.00  0.00     0.373 C 
ATOM      3  N5  7RO d   1       2.183 -35.259 -13.520  0.00  0.00    -0.256 N 
ATOM      4  C4  7RO d   1       2.644 -34.050 -14.172  0.00  0.00     0.059 A 
ATOM      5  C19 7RO d   1       1.422 -34.854 -12.377  0.00  0.00     0.060 A 
ATOM      6  C6  7RO d   1       1.415 -33.416 -12.370  0.00  0.00     0.011 A 
ATOM      7  C5  7RO d   1       2.192 -32.962 -13.469  0.00  0.00    -0.042 A 
ATOM      8  C18 7RO d   1       0.714 -35.582 -11.392  0.00  0.00    -0.011 A 
ATOM      9  C8  7RO d   1      -0.031 -34.796 -10.446  0.00  0.00     0.129 A 
ATOM     10  N2  7RO d   1      -0.045 -33.404 -10.446  0.00  0.00    -0.242 NA
ATOM     11  C7  7RO d   1       0.663 -32.756 -11.388  0.00  0.00     0.017 A 
ATOM     12  H15 7RO d   1       2.396 -31.921 -13.714  0.00  0.00     0.088 H 
ATOM     13  H16 7RO d   1       0.732 -36.665 -11.353  0.00  0.00     0.093 H 
ATOM     14  H17 7RO d   1       0.652 -31.672 -11.388  0.00  0.00     0.116 H 
ENDROOT
BRANCH   9  15
ATOM     15  N3  7RO d   1      -0.862 -35.410  -9.497  0.00  0.00    -0.340 N 
ATOM     16  H18 7RO d   1      -1.342 -34.759  -8.859  0.00  0.00     0.167 HD
BRANCH  15  17
ATOM     17  C9  7RO d   1      -1.147 -36.768  -9.274  0.00  0.00     0.055 A 
ATOM     18  C17 7RO d   1      -1.523 -37.652 -10.315  0.00  0.00    -0.054 A 
ATOM     19  C16 7RO d   1      -1.794 -38.978 -10.044  0.00  0.00    -0.065 A 
ATOM     20  H19 7RO d   1      -1.599 -37.284 -11.332  0.00  0.00     0.087 H 
ATOM     21  C12 7RO d   1      -1.703 -39.468  -8.742  0.00  0.00     0.033 A 
ATOM     22  H20 7RO d   1      -2.080 -39.644 -10.850  0.00  0.00     0.085 H 
ATOM     23  C11 7RO d   1      -1.336 -38.646  -7.664  0.00  0.00    -0.044 A 
ATOM     24  C10 7RO d   1      -1.058 -37.294  -7.941  0.00  0.00     0.061 A 
ATOM     25  H21 7RO d   1      -1.269 -39.038  -6.656  0.00  0.00     0.087 H 
ATOM     26 CL   7RO d   1      -0.546 -36.280  -6.613  0.00  0.00    -0.082 Cl
BRANCH  21  27
ATOM     27  C13 7RO d   1      -2.044 -40.878  -8.523  0.00  0.00     0.253 C 
ATOM     28  O   7RO d   1      -3.000 -41.159  -7.823  0.00  0.00    -0.267 OA
ATOM     29  N4  7RO d   1      -1.261 -41.874  -9.182  0.00  0.00    -0.357 N 
BRANCH  29  30
ATOM     30  C15 7RO d   1       0.208 -41.819  -9.269  0.00  0.00    -0.016 C 
ATOM     31  H22 7RO d   1       0.576 -42.696  -9.823  0.00  0.00     0.056 H 
ATOM     32  H23 7RO d   1       0.636 -41.820  -8.255  0.00  0.00     0.056 H 
ATOM     33  H24 7RO d   1       0.510 -40.901  -9.794  0.00  0.00     0.056 H 
ENDBRANCH  29  30
BRANCH  29  34
ATOM     34  C14 7RO d   1      -1.829 -43.204  -9.458  0.00  0.00    -0.016 C 
ATOM     35  H25 7RO d   1      -2.925 -43.160  -9.373  0.00  0.00     0.056 H 
ATOM     36  H26 7RO d   1      -1.434 -43.929  -8.732  0.00  0.00     0.056 H 
ATOM     37  H27 7RO d   1      -1.553 -43.517 -10.476  0.00  0.00     0.056 H 
ENDBRANCH  29  34
ENDBRANCH  21  27
ENDBRANCH  15  17
ENDBRANCH   9  15
BRANCH   2  38
ATOM     38  O1  7RO d   1       1.583 -37.583 -13.253  0.00  0.00    -0.293 OA
BRANCH  38  39
ATOM     39  C21 7RO d   1       1.613 -39.065 -13.489  0.00  0.00     0.061 C 
BRANCH  39  40
ATOM     40  C24 7RO d   1       1.455 -39.411 -14.956  0.00  0.00    -0.048 C 
ATOM     41  H1  7RO d   1       1.483 -40.504 -15.080  0.00  0.00     0.031 H 
ATOM     42  H2  7RO d   1       2.275 -38.956 -15.530  0.00  0.00     0.031 H 
ATOM     43  H3  7RO d   1       0.492 -39.025 -15.322  0.00  0.00     0.031 H 
ENDBRANCH  39  40
BRANCH  39  44
ATOM     44  C23 7RO d   1       2.928 -39.573 -12.936  0.00  0.00    -0.048 C 
ATOM     45  H4  7RO d   1       2.994 -40.660 -13.088  0.00  0.00     0.031 H 
ATOM     46  H5  7RO d   1       2.985 -39.349 -11.861  0.00  0.00     0.031 H 
ATOM     47  H6  7RO d   1       3.761 -39.079 -13.458  0.00  0.00     0.031 H 
ENDBRANCH  39  44
BRANCH  39  48
ATOM     48  C22 7RO d   1       0.454 -39.622 -12.697  0.00  0.00    -0.048 C 
ATOM     49  H7  7RO d   1       0.414 -40.714 -12.824  0.00  0.00     0.031 H 
ATOM     50  H8  7RO d   1      -0.485 -39.176 -13.058  0.00  0.00     0.031 H 
ATOM     51  H9  7RO d   1       0.588 -39.382 -11.632  0.00  0.00     0.031 H 
ENDBRANCH  39  48
ENDBRANCH  38  39
ENDBRANCH   2  38
BRANCH   4  52
ATOM     52  C3  7RO d   1       3.376 -33.964 -15.408  0.00  0.00     0.028 A 
ATOM     53  C1  7RO d   1       4.592 -34.614 -15.847  0.00  0.00     0.035 A 
ATOM     54  N1  7RO d   1       4.941 -34.186 -17.098  0.00  0.00    -0.185 NA
ATOM     55  H10 7RO d   1       5.152 -35.343 -15.262  0.00  0.00     0.118 H 
ATOM     56  N   7RO d   1       3.976 -33.272 -17.441  0.00  0.00    -0.285 N 
ATOM     57  C2  7RO d   1       3.015 -33.120 -16.459  0.00  0.00     0.011 A 
ATOM     58  H11 7RO d   1       2.144 -32.467 -16.498  0.00  0.00     0.115 H 
BRANCH  56  59
ATOM     59  C   7RO d   1       4.021 -32.502 -18.670  0.00  0.00     0.002 C 
ATOM     60  H12 7RO d   1       3.143 -31.841 -18.721  0.00  0.00     0.059 H 
ATOM     61  H13 7RO d   1       4.016 -33.186 -19.532  0.00  0.00     0.059 H 
ATOM     62  H14 7RO d   1       4.938 -31.895 -18.689  0.00  0.00     0.059 H 
ENDBRANCH  56  59
ENDBRANCH   4  52
TORSDOF 12
