REMARK  11 active torsions:
REMARK  status: ('A' for Active; 'I' for Inactive)
REMARK       I    between atoms: N_2  and  C_1 
REMARK    1  A    between atoms: C_1  and  O3_13 
REMARK    2  A    between atoms: C3_11  and  N1_6 
REMARK    3  A    between atoms: N1_6  and  C4_14 
REMARK       I    between atoms: C8_19  and  N2_9 
REMARK    4  A    between atoms: N2_9  and  C9_20 
REMARK    5  A    between atoms: N2_9  and  C10_21 
REMARK    6  A    between atoms: O3_13  and  C20_31 
REMARK    7  A    between atoms: C7_18  and  C8_19 
REMARK    8  A    between atoms: C16_27  and  C17_28 
REMARK    9  A    between atoms: C20_31  and  C21_32 
REMARK   10  A    between atoms: C20_31  and  C22_33 
REMARK   11  A    between atoms: C20_31  and  C23_34 
ROOT
ATOM      1  C   X20 d   1      -2.084 -15.716 -13.984  0.00  0.00     0.373 C 
ATOM      2  N   X20 d   1      -1.884 -17.064 -13.593  0.00  0.00    -0.255 N 
ATOM      3  O   X20 d   1      -2.754 -15.378 -14.922  0.00  0.00    -0.237 OA
ATOM      4  C1  X20 d   1      -1.150 -17.505 -12.484  0.00  0.00     0.060 A 
ATOM      5  C2  X20 d   1      -0.452 -16.805 -11.510  0.00  0.00    -0.011 A 
ATOM      6  C3  X20 d   1       0.190 -17.601 -10.544  0.00  0.00     0.129 A 
ATOM      7  N3  X20 d   1       0.156 -18.977 -10.518  0.00  0.00    -0.242 NA
ATOM      8  C13 X20 d   1      -0.529 -19.599 -11.472  0.00  0.00     0.017 A 
ATOM      9  C14 X20 d   1      -1.198 -18.917 -12.477  0.00  0.00     0.011 A 
ATOM     10  C15 X20 d   1      -1.973 -19.341 -13.593  0.00  0.00    -0.040 A 
ATOM     11  C16 X20 d   1      -2.383 -18.226 -14.265  0.00  0.00     0.081 A 
ATOM     12  H2  X20 d   1      -0.405 -15.722 -11.495  0.00  0.00     0.093 H 
ATOM     13  H12 X20 d   1      -0.566 -20.682 -11.464  0.00  0.00     0.116 H 
ATOM     14  H13 X20 d   1      -2.199 -20.372 -13.863  0.00  0.00     0.088 H 
ENDROOT
BRANCH   6  15
ATOM     15  N1  X20 d   1       0.916 -16.962  -9.544  0.00  0.00    -0.340 N 
ATOM     16  H1  X20 d   1       1.312 -17.577  -8.819  0.00  0.00     0.167 HD
BRANCH  15  17
ATOM     17  C4  X20 d   1       1.181 -15.602  -9.390  0.00  0.00     0.055 A 
ATOM     18  C5  X20 d   1       1.495 -14.721 -10.427  0.00  0.00    -0.054 A 
ATOM     19  C6  X20 d   1       1.779 -13.398 -10.145  0.00  0.00    -0.065 A 
ATOM     20  H3  X20 d   1       1.516 -15.074 -11.452  0.00  0.00     0.087 H 
ATOM     21  C7  X20 d   1       1.756 -12.935  -8.837  0.00  0.00     0.033 A 
ATOM     22  H4  X20 d   1       2.022 -12.716 -10.952  0.00  0.00     0.085 H 
ATOM     23  C11 X20 d   1       1.435 -13.781  -7.794  0.00  0.00    -0.044 A 
ATOM     24  C12 X20 d   1       1.155 -15.092  -8.092  0.00  0.00     0.061 A 
ATOM     25  H11 X20 d   1       1.405 -13.421  -6.772  0.00  0.00     0.087 H 
ATOM     26 CL   X20 d   1       0.759 -16.128  -6.780  0.00  0.00    -0.082 Cl
BRANCH  21  27
ATOM     27  C8  X20 d   1       2.105 -11.525  -8.577  0.00  0.00     0.253 C 
ATOM     28  O1  X20 d   1       2.990 -11.219  -7.796  0.00  0.00    -0.267 OA
ATOM     29  N2  X20 d   1       1.391 -10.556  -9.255  0.00  0.00    -0.357 N 
BRANCH  29  30
ATOM     30  C9  X20 d   1       1.564  -9.133  -8.922  0.00  0.00    -0.016 C 
ATOM     31  H5  X20 d   1       0.914  -8.524  -9.567  0.00  0.00     0.056 H 
ATOM     32  H6  X20 d   1       2.613  -8.844  -9.081  0.00  0.00     0.056 H 
ATOM     33  H7  X20 d   1       1.294  -8.967  -7.869  0.00  0.00     0.056 H 
ENDBRANCH  29  30
BRANCH  29  34
ATOM     34  C10 X20 d   1       0.094 -10.880  -9.871  0.00  0.00    -0.016 C 
ATOM     35  H8  X20 d   1       0.049 -11.958 -10.086  0.00  0.00     0.056 H 
ATOM     36  H9  X20 d   1      -0.019 -10.314 -10.808  0.00  0.00     0.056 H 
ATOM     37  H10 X20 d   1      -0.718 -10.610  -9.180  0.00  0.00     0.056 H 
ENDBRANCH  29  34
ENDBRANCH  21  27
ENDBRANCH  15  17
ENDBRANCH   6  15
BRANCH   1  38
ATOM     38  O3  X20 d   1      -1.435 -14.826 -13.190  0.00  0.00    -0.293 OA
BRANCH  38  39
ATOM     39  C20 X20 d   1      -1.425 -13.424 -13.610  0.00  0.00     0.061 C 
BRANCH  39  40
ATOM     40  C21 X20 d   1      -0.842 -13.354 -15.002  0.00  0.00    -0.048 C 
ATOM     41  H16 X20 d   1      -0.824 -12.307 -15.340  0.00  0.00     0.031 H 
ATOM     42  H17 X20 d   1      -1.460 -13.950 -15.689  0.00  0.00     0.031 H 
ATOM     43  H18 X20 d   1       0.183 -13.753 -14.991  0.00  0.00     0.031 H 
ENDBRANCH  39  40
BRANCH  39  44
ATOM     44  C22 X20 d   1      -0.578 -12.659 -12.620  0.00  0.00    -0.048 C 
ATOM     45  H19 X20 d   1      -0.548 -11.597 -12.906  0.00  0.00     0.031 H 
ATOM     46  H20 X20 d   1       0.444 -13.067 -12.619  0.00  0.00     0.031 H 
ATOM     47  H21 X20 d   1      -1.012 -12.756 -11.614  0.00  0.00     0.031 H 
ENDBRANCH  39  44
BRANCH  39  48
ATOM     48  C23 X20 d   1      -2.859 -12.948 -13.590  0.00  0.00    -0.048 C 
ATOM     49  H22 X20 d   1      -2.900 -11.893 -13.900  0.00  0.00     0.031 H 
ATOM     50  H23 X20 d   1      -3.264 -13.046 -12.572  0.00  0.00     0.031 H 
ATOM     51  H24 X20 d   1      -3.457 -13.557 -14.283  0.00  0.00     0.031 H 
ENDBRANCH  39  48
ENDBRANCH  38  39
ENDBRANCH   1  38
BRANCH  11  52
ATOM     52  C17 X20 d   1      -3.168 -18.213 -15.458  0.00  0.00     0.121 A 
ATOM     53  O2  X20 d   1      -2.901 -19.168 -16.398  0.00  0.00    -0.300 OA
ATOM     54  C19 X20 d   1      -3.785 -18.944 -17.414  0.00  0.00     0.103 A 
ATOM     55  N4  X20 d   1      -4.589 -17.915 -17.178  0.00  0.00    -0.246 NA
ATOM     56  H15 X20 d   1      -3.826 -19.545 -18.321  0.00  0.00     0.155 H 
ATOM     57  C18 X20 d   1      -4.204 -17.431 -15.917  0.00  0.00     0.039 A 
ATOM     58  H14 X20 d   1      -4.647 -16.585 -15.394  0.00  0.00     0.119 H 
ENDBRANCH  11  52
TORSDOF 11
