REMARK  11 active torsions:
REMARK  status: ('A' for Active; 'I' for Inactive)
REMARK    1  A    between atoms: N_2  and  C_1 
REMARK    2  A    between atoms: C21_32  and  O_3 
REMARK    3  A    between atoms: O_3  and  C22_33 
REMARK    4  A    between atoms: C4_12  and  C3_10 
REMARK    5  A    between atoms: N3_11  and  C8_19 
REMARK    6  A    between atoms: C9_20  and  N3_11 
REMARK    7  A    between atoms: N5_15  and  C16_27 
REMARK       I    between atoms: N6_17  and  C21_32 
REMARK    8  A    between atoms: C12_23  and  C13_24 
REMARK    9  A    between atoms: C22_33  and  C23_34 
REMARK   10  A    between atoms: C22_33  and  C24_35 
REMARK   11  A    between atoms: C22_33  and  C25_36 
ROOT
ATOM      1  O1  X21 d   1       3.096  17.552  42.461  0.00  0.00    -0.237 OA
ATOM      2  N2  X21 d   1       0.113  21.533  46.500  0.00  0.00    -0.242 NA
ATOM      3  C4  X21 d   1       2.780  20.416  42.902  0.00  0.00     0.059 A 
ATOM      4  C5  X21 d   1       2.363  21.585  43.472  0.00  0.00    -0.042 A 
ATOM      5  C6  X21 d   1       1.587  21.277  44.629  0.00  0.00     0.011 A 
ATOM      6  N6  X21 d   1       2.279  19.298  43.669  0.00  0.00    -0.256 N 
ATOM      7  C7  X21 d   1       0.854  22.054  45.523  0.00  0.00     0.017 A 
ATOM      8  C8  X21 d   1       0.088  20.139  46.686  0.00  0.00     0.129 A 
ATOM      9  C19 X21 d   1       0.804  19.235  45.841  0.00  0.00    -0.011 A 
ATOM     10  C20 X21 d   1       1.543  19.832  44.779  0.00  0.00     0.060 A 
ATOM     11  C21 X21 d   1       2.402  17.922  43.370  0.00  0.00     0.373 C 
ATOM     12  H7  X21 d   1       2.586  22.586  43.105  0.00  0.00     0.088 H 
ATOM     13  H8  X21 d   1       0.888  23.133  45.419  0.00  0.00     0.116 H 
ATOM     14  H17 X21 d   1       0.786  18.163  45.998  0.00  0.00     0.093 H 
ENDROOT
BRANCH   8  15
ATOM     15  N3  X21 d   1      -0.682  19.646  47.798  0.00  0.00    -0.340 N 
ATOM     16  H6  X21 d   1      -1.085  20.370  48.411  0.00  0.00     0.167 HD
BRANCH  15  17
ATOM     17  C9  X21 d   1      -0.968  18.300  48.174  0.00  0.00     0.055 A 
ATOM     18  C10 X21 d   1      -0.911  17.909  49.578  0.00  0.00     0.061 A 
ATOM     19 CL   X21 d   1      -0.360  19.056  50.765  0.00  0.00    -0.082 Cl
ATOM     20  C11 X21 d   1      -1.205  16.596  50.015  0.00  0.00    -0.048 A 
ATOM     21  C12 X21 d   1      -1.551  15.654  48.996  0.00  0.00    -0.006 A 
ATOM     22  H9  X21 d   1      -1.170  16.320  51.063  0.00  0.00     0.087 H 
ATOM     23  C17 X21 d   1      -1.591  16.037  47.644  0.00  0.00    -0.069 A 
ATOM     24  C18 X21 d   1      -1.308  17.306  47.231  0.00  0.00    -0.055 A 
ATOM     25  H15 X21 d   1      -1.857  15.295  46.900  0.00  0.00     0.085 H 
ATOM     26  H16 X21 d   1      -1.344  17.552  46.176  0.00  0.00     0.087 H 
BRANCH  21  27
ATOM     27  C13 X21 d   1      -1.837  14.261  49.230  0.00  0.00     0.063 A 
ATOM     28  N5  X21 d   1      -2.826  13.734  50.138  0.00  0.00    -0.344 N 
ATOM     29  C15 X21 d   1      -2.896  12.421  49.940  0.00  0.00     0.066 A 
ATOM     30  N4  X21 d   1      -2.005  11.993  48.960  0.00  0.00    -0.254 NA
ATOM     31  H11 X21 d   1      -3.571  11.759  50.481  0.00  0.00     0.143 H 
ATOM     32  C14 X21 d   1      -1.344  13.148  48.530  0.00  0.00     0.030 A 
ATOM     33  H10 X21 d   1      -0.566  13.179  47.769  0.00  0.00     0.118 H 
BRANCH  28  34
ATOM     34  C16 X21 d   1      -3.604  14.514  51.102  0.00  0.00    -0.013 C 
ATOM     35  H12 X21 d   1      -3.321  15.575  51.029  0.00  0.00     0.057 H 
ATOM     36  H13 X21 d   1      -3.399  14.149  52.119  0.00  0.00     0.057 H 
ATOM     37  H14 X21 d   1      -4.676  14.404  50.882  0.00  0.00     0.057 H 
ENDBRANCH  28  34
ENDBRANCH  21  27
ENDBRANCH  15  17
ENDBRANCH   8  15
BRANCH   3  38
ATOM     38  C3  X21 d   1       3.603  20.330  41.711  0.00  0.00     0.028 A 
ATOM     39  C1  X21 d   1       4.769  19.526  41.431  0.00  0.00     0.035 A 
ATOM     40  N1  X21 d   1       5.248  19.807  40.182  0.00  0.00    -0.185 NA
ATOM     41  H4  X21 d   1       5.204  18.800  42.116  0.00  0.00     0.118 H 
ATOM     42  N   X21 d   1       4.409  20.782  39.679  0.00  0.00    -0.285 N 
ATOM     43  C2  X21 d   1       3.403  21.108  40.566  0.00  0.00     0.011 A 
ATOM     44  H5  X21 d   1       2.606  21.832  40.405  0.00  0.00     0.115 H 
BRANCH  42  45
ATOM     45  C   X21 d   1       4.601  21.428  38.364  0.00  0.00     0.002 C 
ATOM     46  H1  X21 d   1       3.802  22.166  38.198  0.00  0.00     0.059 H 
ATOM     47  H2  X21 d   1       4.566  20.665  37.572  0.00  0.00     0.059 H 
ATOM     48  H3  X21 d   1       5.578  21.934  38.343  0.00  0.00     0.059 H 
ENDBRANCH  42  45
ENDBRANCH   3  38
BRANCH  11  49
ATOM     49  O   X21 d   1       1.693  17.048  44.158  0.00  0.00    -0.293 OA
BRANCH  49  50
ATOM     50  C22 X21 d   1       1.782  15.574  44.005  0.00  0.00     0.061 C 
BRANCH  50  51
ATOM     51  C23 X21 d   1       1.376  15.113  42.620  0.00  0.00    -0.048 C 
ATOM     52  H18 X21 d   1       1.459  14.018  42.559  0.00  0.00     0.031 H 
ATOM     53  H19 X21 d   1       2.038  15.573  41.872  0.00  0.00     0.031 H 
ATOM     54  H20 X21 d   1       0.336  15.413  42.424  0.00  0.00     0.031 H 
ENDBRANCH  50  51
BRANCH  50  55
ATOM     55  C24 X21 d   1       0.795  15.087  45.042  0.00  0.00    -0.048 C 
ATOM     56  H21 X21 d   1       0.765  13.988  45.031  0.00  0.00     0.031 H 
ATOM     57  H22 X21 d   1      -0.205  15.484  44.811  0.00  0.00     0.031 H 
ATOM     58  H23 X21 d   1       1.107  15.436  46.038  0.00  0.00     0.031 H 
ENDBRANCH  50  55
BRANCH  50  59
ATOM     59  C25 X21 d   1       3.189  15.127  44.338  0.00  0.00    -0.048 C 
ATOM     60  H24 X21 d   1       3.263  14.035  44.227  0.00  0.00     0.031 H 
ATOM     61  H25 X21 d   1       3.427  15.407  45.375  0.00  0.00     0.031 H 
ATOM     62  H26 X21 d   1       3.900  15.614  43.654  0.00  0.00     0.031 H 
ENDBRANCH  50  59
ENDBRANCH  49  50
ENDBRANCH  11  49
TORSDOF 11
