REMARK WARNING: 32 MAX_TORS EXCEEDED!!!
REMARK  42 active torsions:
REMARK  status: ('A' for Active; 'I' for Inactive)
REMARK    1  A    between atoms: C1_1  and  O1_7 
REMARK    2  A    between atoms: C2_2  and  O2_8 
REMARK    3  A    between atoms: C3_3  and  O3_9 
REMARK    4  A    between atoms: C4_4  and  O4_10 
REMARK    5  A    between atoms: C5_5  and  C6_6 
REMARK    6  A    between atoms: O2_8  and  S_14 
REMARK    7  A    between atoms: O4_10  and  C1_18 
REMARK    8  A    between atoms: C2_19  and  N_24 
REMARK    9  A    between atoms: C3_20  and  O3_25 
REMARK   10  A    between atoms: C4_21  and  O4_26 
REMARK   11  A    between atoms: C5_22  and  C6_23 
REMARK   12  A    between atoms: C6_23  and  O6_28 
REMARK   13  A    between atoms: N_24  and  S1_29 
REMARK   14  A    between atoms: O4_26  and  C1_37 
REMARK   15  A    between atoms: O6_28  and  S2_33 
REMARK   16  A    between atoms: C2_38  and  O2_43 
REMARK   17  A    between atoms: C3_39  and  O3_44 
REMARK   18  A    between atoms: C4_40  and  O4_45 
REMARK   19  A    between atoms: C5_41  and  C6_42 
REMARK   20  A    between atoms: O2_43  and  S_49 
REMARK   21  A    between atoms: O4_45  and  C1_53 
REMARK   22  A    between atoms: C2_54  and  N_59 
REMARK   23  A    between atoms: C3_55  and  O3_60 
REMARK   24  A    between atoms: C4_56  and  O4_61 
REMARK   25  A    between atoms: C5_57  and  C6_58 
REMARK   26  A    between atoms: C6_58  and  O6_63 
REMARK   27  A    between atoms: N_59  and  S1_64 
REMARK   28  A    between atoms: O4_61  and  C1_72 
REMARK   29  A    between atoms: O6_63  and  S2_68 
REMARK   30  A    between atoms: C2_73  and  O2_78 
REMARK   31  A    between atoms: C3_74  and  O3_79 
REMARK   32  A    between atoms: C4_75  and  O4_80 
REMARK   33  A    between atoms: C5_76  and  C6_77 
REMARK   34  A    between atoms: O2_78  and  S_84 
REMARK   35  A    between atoms: O4_80  and  C1_88 
REMARK   36  A    between atoms: C2_89  and  N_94 
REMARK   37  A    between atoms: C3_90  and  O3_95 
REMARK   38  A    between atoms: C4_91  and  O4_96 
REMARK   39  A    between atoms: C5_92  and  C6_93 
REMARK   40  A    between atoms: C6_93  and  O6_98 
REMARK   41  A    between atoms: N_94  and  S1_99 
REMARK   42  A    between atoms: O6_98  and  S2_103 
ROOT
ATOM      1  H23 IDS d   1      -0.597  13.711 -18.401  0.00  0.00     0.132 H 
ATOM      2  H24 IDS d   1      -0.185  16.047 -17.867  0.00  0.00     0.085 H 
ATOM      3  H25 IDS d   1      -1.863  15.503 -15.379  0.00  0.00     0.090 H 
ATOM      4  H26 IDS d   1      -2.098  17.250 -17.876  0.00  0.00     0.091 H 
ATOM      5  H27 IDS d   1      -3.732  14.899 -16.821  0.00  0.00     0.090 H 
ATOM      6  C1  SGN d   1      -1.267  14.210 -17.685  0.00  0.00     0.155 C 
ATOM      7  C2  SGN d   1      -0.514  15.379 -17.058  0.00  0.00     0.097 C 
ATOM      8  C3  SGN d   1      -1.443  16.165 -16.150  0.00  0.00     0.087 C 
ATOM      9  C4  SGN d   1      -2.553  16.683 -17.051  0.00  0.00     0.095 C 
ATOM     10  C5  SGN d   1      -3.308  15.492 -17.645  0.00  0.00     0.091 C 
ATOM     11  O5  SGN d   1      -2.412  14.675 -18.404  0.00  0.00    -0.349 OA
ENDROOT
BRANCH   6  12
ATOM     12  O4  IDS d   1      -1.622  13.261 -16.673  0.00  0.00    -0.348 OA
BRANCH  12  13
ATOM     13  C4  IDS d   1      -1.660  11.969 -17.287  0.00  0.00     0.103 C 
ATOM     14  C3  IDS d   1      -0.271  11.341 -17.211  0.00  0.00     0.094 C 
ATOM     15  C2  IDS d   1       0.110  10.996 -15.772  0.00  0.00     0.134 C 
ATOM     16  H19 IDS d   1       0.461  12.061 -17.606  0.00  0.00     0.091 H 
ATOM     17  C1  IDS d   1      -1.051  10.277 -15.076  0.00  0.00     0.161 C 
ATOM     18  H18 IDS d   1       0.974  10.315 -15.791  0.00  0.00     0.097 H 
ATOM     19  O5  IDS d   1      -2.277  11.003 -15.212  0.00  0.00    -0.340 OA
ATOM     20  H17 IDS d   1      -0.816  10.208 -14.004  0.00  0.00     0.133 H 
ATOM     21  C5  IDS d   1      -2.692  11.109 -16.573  0.00  0.00     0.152 C 
ATOM     22  H21 IDS d   1      -2.715  10.108 -17.029  0.00  0.00     0.104 H 
ATOM     23  H20 IDS d   1      -1.949  12.074 -18.343  0.00  0.00     0.092 H 
BRANCH  14  24
ATOM     24  O3  IDS d   1      -0.235  10.152 -18.010  0.00  0.00    -0.390 OA
ATOM     25  H22 IDS d   1      -0.879   9.534 -17.685  0.00  0.00     0.210 HD
ENDBRANCH  14  24
BRANCH  15  26
ATOM     26  O2  IDS d   1       0.495  12.193 -15.074  0.00  0.00    -0.244 OA
BRANCH  26  27
ATOM     27  S   IDS d   1       1.612  12.219 -14.001  0.00  0.00     0.252 S 
ATOM     28  O1S IDS d   1       1.443  13.364 -13.144  0.00  0.00    -0.572 OA
ATOM     29  O2S IDS d   1       3.109  12.309 -14.668  0.00  0.00    -0.572 OA
ATOM     30  O3S IDS d   1       1.539  11.018 -13.216  0.00  0.00    -0.572 OA
ENDBRANCH  26  27
ENDBRANCH  15  26
BRANCH  17  31
ATOM     31  O4  SGN d   1      -1.187   8.938 -15.595  0.00  0.00    -0.348 OA
BRANCH  31  32
ATOM     32  C4  SGN d   1      -2.074   8.222 -14.724  0.00  0.00     0.095 C 
ATOM     33  C3  SGN d   1      -3.177   7.517 -15.510  0.00  0.00     0.087 C 
ATOM     34  C2  SGN d   1      -3.971   6.636 -14.555  0.00  0.00     0.097 C 
ATOM     35  H10 IDS d   1      -2.722   6.892 -16.293  0.00  0.00     0.090 H 
ATOM     36  C1  SGN d   1      -3.042   5.662 -13.833  0.00  0.00     0.155 C 
ATOM     37  H9  IDS d   1      -4.427   7.286 -13.794  0.00  0.00     0.085 H 
ATOM     38  O5  SGN d   1      -2.109   6.429 -13.075  0.00  0.00    -0.349 OA
ATOM     39  H8  IDS d   1      -3.642   5.056 -13.139  0.00  0.00     0.132 H 
ATOM     40  C5  SGN d   1      -1.258   7.226 -13.906  0.00  0.00     0.091 C 
ATOM     41  H12 IDS d   1      -0.724   6.559 -14.598  0.00  0.00     0.090 H 
ATOM     42  H11 IDS d   1      -2.547   8.939 -14.037  0.00  0.00     0.091 H 
BRANCH  33  43
ATOM     43  O3  SGN d   1      -4.052   8.473 -16.124  0.00  0.00    -0.391 OA
ATOM     44  H16 IDS d   1      -4.730   8.015 -16.607  0.00  0.00     0.210 HD
ENDBRANCH  33  43
BRANCH  34  45
ATOM     45  N   SGN d   1      -5.050   5.959 -15.256  0.00  0.00    -0.289 N 
ATOM     46  H15 IDS d   1      -4.871   5.096 -15.729  0.00  0.00     0.175 HD
BRANCH  45  47
ATOM     47  S1  SGN d   1      -6.531   6.589 -15.276  0.00  0.00     0.205 S 
ATOM     48  O1S SGN d   1      -7.476   5.619 -14.795  0.00  0.00    -0.578 OA
ATOM     49  O2S SGN d   1      -6.569   7.757 -14.436  0.00  0.00    -0.578 OA
ATOM     50  O3S SGN d   1      -6.934   7.007 -16.805  0.00  0.00    -0.578 OA
ENDBRANCH  45  47
ENDBRANCH  34  45
BRANCH  36  51
ATOM     51  O4  IDS d   1      -2.385   4.761 -14.746  0.00  0.00    -0.348 OA
BRANCH  51  52
ATOM     52  C4  IDS d   1      -1.734   3.745 -13.965  0.00  0.00     0.103 C 
ATOM     53  C3  IDS d   1      -2.720   2.608 -13.691  0.00  0.00     0.094 C 
ATOM     54  C2  IDS d   1      -2.895   1.678 -14.889  0.00  0.00     0.134 C 
ATOM     55  H3  IDS d   1      -3.697   3.056 -13.456  0.00  0.00     0.091 H 
ATOM     56  C1  IDS d   1      -1.595   1.393 -15.639  0.00  0.00     0.158 C 
ATOM     57  H2  IDS d   1      -3.296   0.722 -14.522  0.00  0.00     0.097 H 
ATOM     58  O5  IDS d   1      -0.880   2.603 -15.887  0.00  0.00    -0.340 OA
ATOM     59  H1  IDS d   1      -1.834   0.919 -16.602  0.00  0.00     0.133 H 
ATOM     60  C5  IDS d   1      -0.483   3.227 -14.670  0.00  0.00     0.152 C 
ATOM     61  H5  IDS d   1       0.009   2.484 -14.025  0.00  0.00     0.104 H 
ATOM     62  H4  IDS d   1      -1.430   4.184 -13.003  0.00  0.00     0.092 H 
BRANCH  53  63
ATOM     63  O3  IDS d   1      -2.289   1.828 -12.569  0.00  0.00    -0.390 OA
ATOM     64  H7  IDS d   1      -1.434   1.458 -12.752  0.00  0.00     0.210 HD
ENDBRANCH  53  63
BRANCH  54  65
ATOM     65  O2  IDS d   1      -3.828   2.255 -15.797  0.00  0.00    -0.244 OA
BRANCH  65  66
ATOM     66  S   IDS d   1      -3.711   1.908 -17.286  0.00  0.00     0.252 S 
ATOM     67  O1S IDS d   1      -3.759   3.125 -18.049  0.00  0.00    -0.572 OA
ATOM     68  O2S IDS d   1      -4.946   0.925 -17.719  0.00  0.00    -0.572 OA
ATOM     69  O3S IDS d   1      -2.461   1.236 -17.523  0.00  0.00    -0.572 OA
ENDBRANCH  65  66
ENDBRANCH  54  65
BRANCH  56  70
ATOM     70  O1  IDS d   1      -0.792   0.496 -14.863  0.00  0.00    -0.368 OA
ATOM     71  H6  IDS d   1      -0.574   0.905 -14.034  0.00  0.00     0.212 HD
ENDBRANCH  56  70
BRANCH  60  72
ATOM     72  C6  IDS d   1       0.490   4.335 -14.951  0.00  0.00     0.206 C 
ATOM     73  O61 IDS d   1       0.336   5.014 -15.988  0.00  0.00    -0.646 OA
ATOM     74  O62 IDS d   1       1.421   4.533 -14.140  0.00  0.00    -0.646 OA
ENDBRANCH  60  72
ENDBRANCH  51  52
ENDBRANCH  36  51
BRANCH  40  75
ATOM     75  C6  SGN d   1      -0.232   7.970 -13.054  0.00  0.00     0.067 C 
ATOM     76  H13 IDS d   1       0.406   8.582 -13.708  0.00  0.00     0.080 H 
ATOM     77  H14 IDS d   1       0.389   7.239 -12.516  0.00  0.00     0.080 H 
BRANCH  75  78
ATOM     78  O6  SGN d   1      -0.885   8.817 -12.109  0.00  0.00    -0.254 OA
BRANCH  78  79
ATOM     79  S2  SGN d   1      -0.516   8.714 -10.623  0.00  0.00     0.251 S 
ATOM     80  O4S SGN d   1      -1.283   7.661 -10.021  0.00  0.00    -0.572 OA
ATOM     81  O5S SGN d   1      -0.825  10.127  -9.859  0.00  0.00    -0.572 OA
ATOM     82  O6S SGN d   1       0.885   8.417 -10.499  0.00  0.00    -0.572 OA
ENDBRANCH  78  79
ENDBRANCH  75  78
ENDBRANCH  40  75
ENDBRANCH  31  32
ENDBRANCH  17  31
BRANCH  21  83
ATOM     83  C6  IDS d   1      -4.067  11.716 -16.673  0.00  0.00     0.206 C 
ATOM     84  O61 IDS d   1      -4.386  12.323 -17.718  0.00  0.00    -0.646 OA
ATOM     85  O62 IDS d   1      -4.845  11.587 -15.705  0.00  0.00    -0.646 OA
ENDBRANCH  21  83
ENDBRANCH  12  13
ENDBRANCH   6  12
BRANCH   7  86
ATOM     86  N   SGN d   1       0.667  14.923 -16.356  0.00  0.00    -0.289 N 
ATOM     87  H30 IDS d   1       0.586  14.468 -15.469  0.00  0.00     0.175 HD
BRANCH  86  88
ATOM     88  S1  SGN d   1       2.104  15.157 -17.020  0.00  0.00     0.205 S 
ATOM     89  O1S SGN d   1       3.117  15.029 -16.012  0.00  0.00    -0.578 OA
ATOM     90  O2S SGN d   1       2.319  14.180 -18.047  0.00  0.00    -0.578 OA
ATOM     91  O3S SGN d   1       2.153  16.646 -17.699  0.00  0.00    -0.578 OA
ENDBRANCH  86  88
ENDBRANCH   7  86
BRANCH   8  92
ATOM     92  O3  SGN d   1      -0.754  17.241 -15.509  0.00  0.00    -0.391 OA
ATOM     93  H31 IDS d   1      -1.367  17.738 -14.980  0.00  0.00     0.210 HD
ENDBRANCH   8  92
BRANCH  10  94
ATOM     94  C6  SGN d   1      -4.440  15.938 -18.569  0.00  0.00     0.067 C 
ATOM     95  H28 IDS d   1      -5.364  16.056 -17.983  0.00  0.00     0.080 H 
ATOM     96  H29 IDS d   1      -4.595  15.178 -19.349  0.00  0.00     0.080 H 
BRANCH  94  97
ATOM     97  O6  SGN d   1      -4.105  17.187 -19.184  0.00  0.00    -0.254 OA
BRANCH  97  98
ATOM     98  S2  SGN d   1      -4.123  17.373 -20.711  0.00  0.00     0.251 S 
ATOM     99  O4S SGN d   1      -3.551  18.646 -21.052  0.00  0.00    -0.572 OA
ATOM    100  O5S SGN d   1      -5.663  17.315 -21.260  0.00  0.00    -0.572 OA
ATOM    101  O6S SGN d   1      -3.354  16.326 -21.317  0.00  0.00    -0.572 OA
ENDBRANCH  97  98
ENDBRANCH  94  97
ENDBRANCH  10  94
BRANCH   9 102
ATOM    102  O4  SGN d   1      -3.424  17.569 -16.333  0.00  0.00    -0.348 OA
BRANCH 102 103
ATOM    103  C1  IDS d   1      -3.746  18.692 -17.186  0.00  0.00     0.161 C 
ATOM    104  C2  IDS d   1      -4.923  19.490 -16.604  0.00  0.00     0.134 C 
ATOM    105  C3  IDS d   1      -4.703  21.018 -16.689  0.00  0.00     0.094 C 
ATOM    106  H33 IDS d   1      -5.019  19.225 -15.541  0.00  0.00     0.097 H 
ATOM    107  C4  IDS d   1      -3.333  21.486 -16.182  0.00  0.00     0.103 C 
ATOM    108  H34 IDS d   1      -4.802  21.314 -17.744  0.00  0.00     0.091 H 
ATOM    109  C5  IDS d   1      -2.365  20.304 -16.211  0.00  0.00     0.152 C 
ATOM    110  H35 IDS d   1      -3.440  21.823 -15.140  0.00  0.00     0.092 H 
ATOM    111  O5  IDS d   1      -2.618  19.546 -17.391  0.00  0.00    -0.340 OA
ATOM    112  H36 IDS d   1      -2.573  19.668 -15.338  0.00  0.00     0.104 H 
ATOM    113  H32 IDS d   1      -4.052  18.295 -18.165  0.00  0.00     0.133 H 
BRANCH 104 114
ATOM    114  O2  IDS d   1      -6.144  19.109 -17.279  0.00  0.00    -0.244 OA
BRANCH 114 115
ATOM    115  S   IDS d   1      -6.954  17.840 -16.908  0.00  0.00     0.252 S 
ATOM    116  O1S IDS d   1      -8.249  17.862 -17.540  0.00  0.00    -0.572 OA
ATOM    117  O2S IDS d   1      -7.135  17.754 -15.284  0.00  0.00    -0.572 OA
ATOM    118  O3S IDS d   1      -6.261  16.661 -17.345  0.00  0.00    -0.572 OA
ENDBRANCH 114 115
ENDBRANCH 104 114
BRANCH 105 119
ATOM    119  O3  IDS d   1      -5.697  21.699 -15.913  0.00  0.00    -0.390 OA
ATOM    120  H37 IDS d   1      -6.561  21.431 -16.202  0.00  0.00     0.210 HD
ENDBRANCH 105 119
BRANCH 107 121
ATOM    121  O4  IDS d   1      -2.845  22.597 -16.964  0.00  0.00    -0.348 OA
BRANCH 121 122
ATOM    122  C1  SGN d   1      -2.503  23.713 -16.105  0.00  0.00     0.155 C 
ATOM    123  C2  SGN d   1      -3.479  24.871 -16.283  0.00  0.00     0.097 C 
ATOM    124  C3  SGN d   1      -3.395  25.384 -17.709  0.00  0.00     0.087 C 
ATOM    125  H39 IDS d   1      -3.148  25.681 -15.616  0.00  0.00     0.085 H 
ATOM    126  C4  SGN d   1      -2.020  26.010 -17.830  0.00  0.00     0.089 C 
ATOM    127  H40 IDS d   1      -3.497  24.548 -18.417  0.00  0.00     0.090 H 
ATOM    128  C5  SGN d   1      -0.955  24.958 -17.547  0.00  0.00     0.090 C 
ATOM    129  H41 IDS d   1      -1.933  26.812 -17.082  0.00  0.00     0.091 H 
ATOM    130  O5  SGN d   1      -1.185  24.258 -16.308  0.00  0.00    -0.349 OA
ATOM    131  H42 IDS d   1      -0.971  24.213 -18.356  0.00  0.00     0.090 H 
ATOM    132  H38 IDS d   1      -2.566  23.353 -15.068  0.00  0.00     0.132 H 
BRANCH 123 133
ATOM    133  N   SGN d   1      -4.843  24.555 -15.913  0.00  0.00    -0.289 N 
ATOM    134  H45 IDS d   1      -5.237  23.654 -16.098  0.00  0.00     0.175 HD
BRANCH 133 135
ATOM    135  S1  SGN d   1      -5.696  25.705 -15.196  0.00  0.00     0.205 S 
ATOM    136  O1S SGN d   1      -7.092  25.489 -15.431  0.00  0.00    -0.578 OA
ATOM    137  O2S SGN d   1      -5.439  25.694 -13.781  0.00  0.00    -0.578 OA
ATOM    138  O3S SGN d   1      -5.271  27.161 -15.809  0.00  0.00    -0.578 OA
ENDBRANCH 133 135
ENDBRANCH 123 133
BRANCH 124 139
ATOM    139  O3  SGN d   1      -4.412  26.353 -17.982  0.00  0.00    -0.391 OA
ATOM    140  H46 IDS d   1      -4.342  27.068 -17.360  0.00  0.00     0.210 HD
ENDBRANCH 124 139
BRANCH 126 141
ATOM    141  O4  SGN d   1      -1.824  26.579 -19.131  0.00  0.00    -0.390 OA
ATOM    142  H47 IDS d   1      -2.494  27.232 -19.294  0.00  0.00     0.210 HD
ENDBRANCH 126 141
BRANCH 128 143
ATOM    143  C6  SGN d   1       0.393  25.684 -17.575  0.00  0.00     0.067 C 
ATOM    144  H43 IDS d   1       0.276  26.660 -17.082  0.00  0.00     0.080 H 
ATOM    145  H44 IDS d   1       0.688  25.836 -18.624  0.00  0.00     0.080 H 
BRANCH 143 146
ATOM    146  O6  SGN d   1       1.428  24.961 -16.912  0.00  0.00    -0.254 OA
BRANCH 146 147
ATOM    147  S2  SGN d   1       2.903  25.291 -17.209  0.00  0.00     0.251 S 
ATOM    148  O4S SGN d   1       3.423  26.189 -16.212  0.00  0.00    -0.572 OA
ATOM    149  O5S SGN d   1       3.020  25.992 -18.680  0.00  0.00    -0.572 OA
ATOM    150  O6S SGN d   1       3.661  24.071 -17.191  0.00  0.00    -0.572 OA
ENDBRANCH 146 147
ENDBRANCH 143 146
ENDBRANCH 128 143
ENDBRANCH 121 122
ENDBRANCH 107 121
BRANCH 109 151
ATOM    151  C6  IDS d   1      -0.924  20.731 -16.131  0.00  0.00     0.206 C 
ATOM    152  O61 IDS d   1      -0.208  20.635 -17.150  0.00  0.00    -0.646 OA
ATOM    153  O62 IDS d   1      -0.488  21.153 -15.037  0.00  0.00    -0.646 OA
ENDBRANCH 109 151
ENDBRANCH 102 103
ENDBRANCH   9 102
TORSDOF 42
