REMARK  7 active torsions:
REMARK  status: ('A' for Active; 'I' for Inactive)
REMARK    1  A    between atoms: N1_1  and  C8_2 
REMARK    2  A    between atoms: C2_7  and  N1_1 
REMARK    3  A    between atoms: N1_1  and  C9_8 
REMARK    4  A    between atoms: N1_1  and  C10_9 
REMARK    5  A    between atoms: C6_6  and  C5_4 
REMARK    6  A    between atoms: C3_10  and  C6_6 
REMARK    7  A    between atoms: C2_7  and  C3_10 
ROOT
ATOM      1  N1  NM3 d   1      22.550  31.982  87.751  0.00  0.00    -0.079 N 
ENDROOT
BRANCH   1   2
ATOM      2  C8  NM3 d   1      23.935  31.685  87.294  0.00  0.00     0.067 C 
ATOM      3  H   NM3 d   1      24.448  32.625  87.044  0.00  0.00     0.068 H 
ATOM      4  H   NM3 d   1      23.897  31.040  86.403  0.00  0.00     0.068 H 
ATOM      5  H   NM3 d   1      24.483  31.170  88.096  0.00  0.00     0.068 H 
ENDBRANCH   1   2
BRANCH   1   6
ATOM      6  C2  NM3 d   1      21.865  30.703  88.086  0.00  0.00     0.085 C 
ATOM      7  H   NM3 d   1      20.911  30.954  88.573  0.00  0.00     0.076 H 
ATOM      8  H   NM3 d   1      22.506  30.157  88.794  0.00  0.00     0.076 H 
BRANCH   6   9
ATOM      9  C3  NM3 d   1      21.558  29.767  86.928  0.00  0.00    -0.033 C 
ATOM     10  H   NM3 d   1      20.968  30.311  86.175  0.00  0.00     0.036 H 
ATOM     11  H   NM3 d   1      22.504  29.430  86.479  0.00  0.00     0.036 H 
BRANCH   9  12
ATOM     12  C6  NM3 d   1      20.765  28.544  87.394  0.00  0.00     0.017 C 
ATOM     13  H   NM3 d   1      20.008  28.885  88.116  0.00  0.00     0.049 H 
ATOM     14  H   NM3 d   1      20.265  28.110  86.516  0.00  0.00     0.049 H 
BRANCH  12  15
ATOM     15  C5  NM3 d   1      21.577  27.457  88.051  0.00  0.00     0.172 C 
ATOM     16  O4  NM3 d   1      20.921  26.524  88.552  0.00  0.00    -0.648 OA
ATOM     17  O7  NM3 d   1      22.829  27.488  88.017  0.00  0.00    -0.648 OA
ENDBRANCH  12  15
ENDBRANCH   9  12
ENDBRANCH   6   9
ENDBRANCH   1   6
BRANCH   1  18
ATOM     18  C9  NM3 d   1      22.574  32.817  88.983  0.00  0.00     0.067 C 
ATOM     19  H   NM3 d   1      23.075  33.772  88.769  0.00  0.00     0.068 H 
ATOM     20  H   NM3 d   1      23.121  32.286  89.775  0.00  0.00     0.068 H 
ATOM     21  H   NM3 d   1      21.543  33.010  89.315  0.00  0.00     0.068 H 
ENDBRANCH   1  18
BRANCH   1  22
ATOM     22  C10 NM3 d   1      21.855  32.743  86.697  0.00  0.00     0.067 C 
ATOM     23  H   NM3 d   1      21.824  32.146  85.774  0.00  0.00     0.068 H 
ATOM     24  H   NM3 d   1      22.394  33.683  86.508  0.00  0.00     0.068 H 
ATOM     25  H   NM3 d   1      20.829  32.968  87.023  0.00  0.00     0.068 H 
ENDBRANCH   1  22
TORSDOF 7
