REMARK  8 active torsions:
REMARK  status: ('A' for Active; 'I' for Inactive)
REMARK    1  A    between atoms: C22_5  and  C19_8 
REMARK    2  A    between atoms: C19_8  and  C21_9 
REMARK    3  A    between atoms: C19_8  and  N18_10 
REMARK    4  A    between atoms: N18_10  and  C8_11 
REMARK    5  A    between atoms: C2_14  and  C1_15 
REMARK    6  A    between atoms: C10_17  and  N11_21 
REMARK    7  A    between atoms: N11_21  and  C12_22 
REMARK    8  A    between atoms: N14_25  and  C17_26 
ROOT
ATOM      1  C8  LMM d   1      15.791   3.776  41.767  0.00  0.00     0.725 A 
ATOM      2  N7  LMM d   1      16.896   4.074  41.067  0.00  0.00    -0.061 NA
ATOM      3  C6  LMM d   1      16.850   3.728  39.771  0.00  0.00     0.103 A 
ATOM      4  C2  LMM d   1      17.967   3.867  38.805  0.00  0.00    -0.025 A 
ATOM      5  N9  LMM d   1      14.668   3.212  41.284  0.00  0.00    -0.044 NA
ATOM      6  C10 LMM d   1      14.616   2.884  39.984  0.00  0.00     0.168 A 
ATOM      7  C5  LMM d   1      15.742   3.130  39.149  0.00  0.00     0.081 A 
ATOM      8  S4  LMM d   1      16.022   2.776  37.479  0.00  0.00    -0.095 SA
ATOM      9  C3  LMM d   1      17.615   3.415  37.566  0.00  0.00    -0.036 A 
ATOM     10  H   LMM d   1      18.285   3.456  36.708  0.00  0.00     0.095 H 
ENDROOT
BRANCH   1  11
ATOM     11  N18 LMM d   1      15.840   4.014  43.094  0.00  0.00    -0.211 N 
ATOM     12  H   LMM d   1      16.719   4.403  43.464  0.00  0.00     0.178 HD
BRANCH  11  13
ATOM     13  C19 LMM d   1      14.760   3.772  44.064  0.00  0.00     0.082 C 
ATOM     14  H   LMM d   1      14.398   2.740  43.944  0.00  0.00     0.085 H 
BRANCH  13  15
ATOM     15  C22 LMM d   1      13.563   4.764  43.873  0.00  0.00     0.148 A 
ATOM     16  N27 LMM d   1      12.347   4.316  44.222  0.00  0.00    -0.240 NA
ATOM     17  C26 LMM d   1      11.347   5.200  44.099  0.00  0.00     0.043 A 
ATOM     18  C25 LMM d   1      11.605   6.520  43.640  0.00  0.00     0.151 A 
ATOM     19  H   LMM d   1      10.335   4.906  44.351  0.00  0.00     0.119 H 
ATOM     20  F28 LMM d   1      10.637   7.469  43.565  0.00  0.00    -0.203 F 
ATOM     21  C24 LMM d   1      12.905   6.856  43.279  0.00  0.00     0.043 A 
ATOM     22  N23 LMM d   1      13.902   5.970  43.394  0.00  0.00    -0.240 NA
ATOM     23  H   LMM d   1      13.114   7.849  42.899  0.00  0.00     0.119 H 
ENDBRANCH  13  15
BRANCH  13  24
ATOM     24  C21 LMM d   1      15.303   3.967  45.477  0.00  0.00    -0.050 C 
ATOM     25  H   LMM d   1      16.148   3.282  45.643  0.00  0.00     0.030 H 
ATOM     26  H   LMM d   1      14.509   3.754  46.208  0.00  0.00     0.030 H 
ATOM     27  H   LMM d   1      15.644   5.006  45.599  0.00  0.00     0.030 H 
ENDBRANCH  13  24
ENDBRANCH  11  13
ENDBRANCH   1  11
BRANCH   6  28
ATOM     28  N11 LMM d   1      13.465   2.272  39.449  0.00  0.00    -0.323 N 
ATOM     29  H   LMM d   1      13.491   2.039  38.446  0.00  0.00     0.169 HD
BRANCH  28  30
ATOM     30  C12 LMM d   1      12.302   1.950  40.130  0.00  0.00     0.146 A 
ATOM     31  N16 LMM d   1      11.297   1.321  39.464  0.00  0.00    -0.225 NA
ATOM     32  C15 LMM d   1      10.314   1.120  40.311  0.00  0.00     0.068 A 
ATOM     33  N14 LMM d   1      10.686   1.619  41.566  0.00  0.00    -0.352 N 
ATOM     34  H   LMM d   1       9.364   0.643  40.076  0.00  0.00     0.143 H 
ATOM     35  C13 LMM d   1      11.942   2.132  41.428  0.00  0.00     0.024 A 
ATOM     36  H   LMM d   1      12.542   2.598  42.208  0.00  0.00     0.117 H 
BRANCH  33  37
ATOM     37  C17 LMM d   1       9.900   1.605  42.803  0.00  0.00    -0.014 C 
ATOM     38  H   LMM d   1      10.479   2.075  43.611  0.00  0.00     0.057 H 
ATOM     39  H   LMM d   1       9.666   0.566  43.077  0.00  0.00     0.057 H 
ATOM     40  H   LMM d   1       8.965   2.163  42.650  0.00  0.00     0.057 H 
ENDBRANCH  33  37
ENDBRANCH  28  30
ENDBRANCH   6  28
BRANCH   4  41
ATOM     41  C1  LMM d   1      19.360   4.344  39.098  0.00  0.00    -0.049 C 
ATOM     42  H   LMM d   1      19.953   4.334  38.172  0.00  0.00     0.033 H 
ATOM     43  H   LMM d   1      19.827   3.679  39.840  0.00  0.00     0.033 H 
ATOM     44  H   LMM d   1      19.320   5.368  39.497  0.00  0.00     0.033 H 
ENDBRANCH   4  41
TORSDOF 8
