REMARK  4 active torsions:
REMARK  status: ('A' for Active; 'I' for Inactive)
REMARK    1  A    between atoms: C1_5  and  C_1 
REMARK    2  A    between atoms: C2_7  and  C1_5 
REMARK    3  A    between atoms: C6_13  and  C7_14 
REMARK    4  A    between atoms: C11_18  and  C10_17 
ROOT
ATOM      1  N   H4C d   1      23.717  50.222   0.276  0.00  0.00    -0.276 N 
ATOM      2  S   H4C d   1      26.048  50.979   1.538  0.00  0.00    -0.075 SA
ATOM      3  N1  H4C d   1      21.981  48.948   0.739  0.00  0.00    -0.135 NA
ATOM      4  C2  H4C d   1      27.217  51.774   0.539  0.00  0.00    -0.015 A 
ATOM      5  N2  H4C d   1      21.565  49.955  -0.125  0.00  0.00    -0.133 NA
ATOM      6  C3  H4C d   1      26.855  51.909  -0.751  0.00  0.00    -0.055 A 
ATOM      7  N3  H4C d   1      23.599  51.498  -2.485  0.00  0.00    -0.280 NA
ATOM      8  C4  H4C d   1      25.565  51.344  -0.965  0.00  0.00     0.029 A 
ATOM      9  C5  H4C d   1      25.015  50.818   0.185  0.00  0.00     0.096 A 
ATOM     10  C6  H4C d   1      23.257  49.119   0.981  0.00  0.00     0.131 A 
ATOM     11  C8  H4C d   1      22.613  50.690  -0.404  0.00  0.00     0.155 A 
ATOM     12  C9  H4C d   1      22.719  51.837  -1.353  0.00  0.00     0.072 C 
ATOM     13  C10 H4C d   1      24.920  51.320  -2.245  0.00  0.00     0.076 C 
ATOM     14  H6  H4C d   1      27.462  52.383  -1.521  0.00  0.00     0.086 H 
ATOM     15  H10 H4C d   1      21.717  52.083  -1.736  0.00  0.00     0.079 H 
ATOM     16  H11 H4C d   1      23.133  52.707  -0.822  0.00  0.00     0.079 H 
ENDROOT
BRANCH  13  17
ATOM     17  C11 H4C d   1      25.797  51.038  -3.414  0.00  0.00     0.015 A 
ATOM     18  C12 H4C d   1      26.565  49.871  -3.462  0.00  0.00    -0.069 A 
ATOM     19  C13 H4C d   1      27.328  49.579  -4.579  0.00  0.00    -0.082 A 
ATOM     20  H12 H4C d   1      26.563  49.190  -2.619  0.00  0.00     0.085 H 
ATOM     21  C14 H4C d   1      27.361  50.447  -5.647  0.00  0.00    -0.081 A 
ATOM     22  H13 H4C d   1      27.903  48.661  -4.613  0.00  0.00     0.083 H 
ATOM     23  C15 H4C d   1      26.643  51.628  -5.606  0.00  0.00    -0.061 A 
ATOM     24  H14 H4C d   1      27.952  50.204  -6.523  0.00  0.00     0.083 H 
ATOM     25  C16 H4C d   1      25.871  51.917  -4.489  0.00  0.00     0.046 A 
ATOM     26  H15 H4C d   1      26.683  52.322  -6.438  0.00  0.00     0.086 H 
ATOM     27 CL   H4C d   1      25.028  53.437  -4.441  0.00  0.00    -0.083 Cl
ENDBRANCH  13  17
BRANCH   4  28
ATOM     28  C1  H4C d   1      28.510  52.304   1.112  0.00  0.00    -0.038 C 
ATOM     29  H4  H4C d   1      29.094  52.745   0.291  0.00  0.00     0.040 H 
ATOM     30  H5  H4C d   1      28.266  53.083   1.849  0.00  0.00     0.040 H 
BRANCH  28  31
ATOM     31  C   H4C d   1      29.335  51.299   1.769  0.00  0.00    -0.072 C 
ATOM     32  H1  H4C d   1      30.251  51.771   2.154  0.00  0.00     0.028 H 
ATOM     33  H2  H4C d   1      29.603  50.515   1.046  0.00  0.00     0.028 H 
ATOM     34  H3  H4C d   1      28.774  50.852   2.603  0.00  0.00     0.028 H 
ENDBRANCH  28  31
ENDBRANCH   4  28
BRANCH  10  35
ATOM     35  C7  H4C d   1      24.094  48.252   1.855  0.00  0.00    -0.019 C 
ATOM     36  H7  H4C d   1      23.470  47.455   2.287  0.00  0.00     0.037 H 
ATOM     37  H8  H4C d   1      24.528  48.857   2.665  0.00  0.00     0.037 H 
ATOM     38  H9  H4C d   1      24.902  47.803   1.260  0.00  0.00     0.037 H 
ENDBRANCH  10  35
TORSDOF 4
