REMARK  24 active torsions:
REMARK  status: ('A' for Active; 'I' for Inactive)
REMARK    1  A    between atoms: C_1  and  N_2 
REMARK    2  A    between atoms: C1_4  and  C_1 
REMARK    3  A    between atoms: C2_7  and  C1_4 
REMARK       I    between atoms: N1_5  and  C9_19 
REMARK    4  A    between atoms: C10_20  and  N1_5 
REMARK    5  A    between atoms: C11_21  and  O1_6 
REMARK    6  A    between atoms: C3_10  and  C2_7 
REMARK       I    between atoms: N2_8  and  C12_22 
REMARK    7  A    between atoms: C13_23  and  N2_8 
REMARK    8  A    between atoms: C4_13  and  C3_10 
REMARK    9  A    between atoms: C17_27  and  N3_11 
REMARK   10  A    between atoms: C5_15  and  C4_13 
REMARK       I    between atoms: C18_28  and  N4_14 
REMARK   11  A    between atoms: N4_14  and  C19_29 
REMARK   12  A    between atoms: C6_16  and  C5_15 
REMARK   13  A    between atoms: C7_17  and  C6_16 
REMARK   14  A    between atoms: C8_18  and  C7_17 
REMARK   15  A    between atoms: C9_19  and  C8_18 
REMARK   16  A    between atoms: C10_20  and  C11_21 
REMARK   17  A    between atoms: C12_22  and  C10_20 
REMARK   18  A    between atoms: C14_24  and  C13_23 
REMARK   19  A    between atoms: C13_23  and  C18_28 
REMARK   20  A    between atoms: C15_25  and  C14_24 
REMARK   21  A    between atoms: C16_26  and  C15_25 
REMARK   22  A    between atoms: C16_26  and  C17_27 
REMARK   23  A    between atoms: C19_29  and  C20_30 
REMARK   24  A    between atoms: C20_30  and  C21_31 
ROOT
ATOM      1  N2  EN5 d   1      -7.021 -47.772 -58.375  0.00  0.00    -0.346 N 
ATOM      2  O2  EN5 d   1      -7.110 -47.600 -60.522  0.00  0.00    -0.271 OA
ATOM      3  C12 EN5 d   1      -6.584 -47.339 -59.533  0.00  0.00     0.243 C 
ATOM      4  H   EN5 d   1      -6.498 -47.567 -57.547  0.00  0.00     0.163 HD
ENDROOT
BRANCH   1   5
ATOM      5  C13 EN5 d   1      -8.261 -48.551 -58.267  0.00  0.00     0.089 C 
ATOM      6  H   EN5 d   1      -8.908 -48.261 -59.108  0.00  0.00     0.087 H 
BRANCH   5   7
ATOM      7  C14 EN5 d   1      -8.042 -50.080 -58.346  0.00  0.00    -0.038 C 
ATOM      8  H   EN5 d   1      -7.593 -50.322 -59.320  0.00  0.00     0.036 H 
ATOM      9  H   EN5 d   1      -9.017 -50.581 -58.258  0.00  0.00     0.036 H 
BRANCH   7  10
ATOM     10  C15 EN5 d   1      -7.126 -50.597 -57.244  0.00  0.00    -0.061 C 
ATOM     11  H   EN5 d   1      -7.601 -50.447 -56.263  0.00  0.00     0.033 H 
ATOM     12  H   EN5 d   1      -6.167 -50.058 -57.273  0.00  0.00     0.033 H 
BRANCH  10  13
ATOM     13  C16 EN5 d   1      -6.893 -52.065 -57.479  0.00  0.00    -0.043 C 
ATOM     14  H   EN5 d   1      -6.335 -52.218 -58.415  0.00  0.00     0.035 H 
ATOM     15  H   EN5 d   1      -7.853 -52.600 -57.532  0.00  0.00     0.035 H 
BRANCH  13  16
ATOM     16  C17 EN5 d   1      -6.078 -52.559 -56.291  0.00  0.00     0.080 C 
ATOM     17  H   EN5 d   1      -6.594 -52.260 -55.367  0.00  0.00     0.075 H 
ATOM     18  H   EN5 d   1      -6.020 -53.656 -56.341  0.00  0.00     0.075 H 
BRANCH  16  19
ATOM     19  N3  EN5 d   1      -4.751 -52.038 -56.256  0.00  0.00    -0.079 N 
ATOM     20  H   EN5 d   1      -4.268 -52.402 -55.450  0.00  0.00     0.274 HD
ATOM     21  H   EN5 d   1      -4.786 -51.032 -56.200  0.00  0.00     0.274 HD
ATOM     22  H   EN5 d   1      -4.261 -52.311 -57.093  0.00  0.00     0.274 HD
ENDBRANCH  16  19
ENDBRANCH  13  16
ENDBRANCH  10  13
ENDBRANCH   7  10
ENDBRANCH   5   7
BRANCH   5  23
ATOM     23  C18 EN5 d   1      -8.977 -48.223 -56.979  0.00  0.00     0.240 C 
ATOM     24  O3  EN5 d   1      -8.411 -47.662 -56.149  0.00  0.00    -0.271 OA
ATOM     25  N4  EN5 d   1     -10.205 -48.658 -56.897  0.00  0.00    -0.359 N 
ATOM     26  H   EN5 d   1     -10.565 -49.187 -57.665  0.00  0.00     0.162 HD
BRANCH  25  27
ATOM     27  C19 EN5 d   1     -11.071 -48.427 -55.778  0.00  0.00    -0.004 C 
ATOM     28  H   EN5 d   1     -10.781 -47.495 -55.270  0.00  0.00     0.064 H 
ATOM     29  H   EN5 d   1     -10.999 -49.268 -55.072  0.00  0.00     0.064 H 
BRANCH  27  30
ATOM     30  C20 EN5 d   1     -12.515 -48.308 -56.299  0.00  0.00    -0.047 C 
ATOM     31  H   EN5 d   1     -12.761 -49.232 -56.843  0.00  0.00     0.035 H 
ATOM     32  H   EN5 d   1     -12.561 -47.453 -56.989  0.00  0.00     0.035 H 
BRANCH  30  33
ATOM     33  C21 EN5 d   1     -13.575 -48.100 -55.206  0.00  0.00    -0.053 C 
ATOM     34  C22 EN5 d   1     -13.258 -47.114 -54.117  0.00  0.00    -0.062 C 
ATOM     35  C23 EN5 d   1     -14.416 -46.845 -53.165  0.00  0.00    -0.065 C 
ATOM     36  H   EN5 d   1     -12.969 -46.162 -54.586  0.00  0.00     0.033 H 
ATOM     37  H   EN5 d   1     -12.413 -47.506 -53.531  0.00  0.00     0.033 H 
ATOM     38  C24 EN5 d   1     -15.813 -46.723 -53.719  0.00  0.00    -0.065 C 
ATOM     39  H   EN5 d   1     -14.193 -45.901 -52.647  0.00  0.00     0.033 H 
ATOM     40  H   EN5 d   1     -14.431 -47.669 -52.436  0.00  0.00     0.033 H 
ATOM     41  C25 EN5 d   1     -16.105 -47.782 -54.782  0.00  0.00    -0.065 C 
ATOM     42  H   EN5 d   1     -15.930 -45.727 -54.170  0.00  0.00     0.033 H 
ATOM     43  H   EN5 d   1     -16.533 -46.840 -52.895  0.00  0.00     0.033 H 
ATOM     44  C26 EN5 d   1     -14.949 -47.858 -55.775  0.00  0.00    -0.062 C 
ATOM     45  H   EN5 d   1     -17.028 -47.516 -55.318  0.00  0.00     0.033 H 
ATOM     46  H   EN5 d   1     -16.232 -48.761 -54.296  0.00  0.00     0.033 H 
ATOM     47  H   EN5 d   1     -15.167 -48.677 -56.476  0.00  0.00     0.033 H 
ATOM     48  H   EN5 d   1     -14.918 -46.904 -56.323  0.00  0.00     0.033 H 
ATOM     49  H   EN5 d   1     -13.634 -49.072 -54.693  0.00  0.00     0.040 H 
ENDBRANCH  30  33
ENDBRANCH  27  30
ENDBRANCH  25  27
ENDBRANCH   5  23
ENDBRANCH   1   5
BRANCH   3  50
ATOM     50  C10 EN5 d   1      -5.369 -46.446 -59.523  0.00  0.00     0.109 C 
ATOM     51  H   EN5 d   1      -4.710 -46.763 -58.702  0.00  0.00     0.090 H 
BRANCH  50  52
ATOM     52  N1  EN5 d   1      -4.652 -46.522 -60.761  0.00  0.00    -0.346 N 
ATOM     53  C9  EN5 d   1      -3.337 -46.682 -60.849  0.00  0.00     0.218 C 
ATOM     54  O   EN5 d   1      -2.611 -46.677 -59.924  0.00  0.00    -0.274 OA
ATOM     55  H   EN5 d   1      -5.174 -46.450 -61.611  0.00  0.00     0.163 HD
BRANCH  53  56
ATOM     56  C8  EN5 d   1      -2.807 -46.823 -62.267  0.00  0.00     0.009 C 
ATOM     57  H   EN5 d   1      -2.475 -47.864 -62.391  0.00  0.00     0.047 H 
ATOM     58  H   EN5 d   1      -3.644 -46.621 -62.952  0.00  0.00     0.047 H 
BRANCH  56  59
ATOM     59  C7  EN5 d   1      -1.644 -45.919 -62.689  0.00  0.00    -0.057 C 
ATOM     60  H   EN5 d   1      -0.745 -46.280 -62.168  0.00  0.00     0.033 H 
ATOM     61  H   EN5 d   1      -1.513 -46.042 -63.774  0.00  0.00     0.033 H 
BRANCH  59  62
ATOM     62  C6  EN5 d   1      -1.755 -44.435 -62.416  0.00  0.00    -0.065 C 
ATOM     63  H   EN5 d   1      -2.681 -44.053 -62.872  0.00  0.00     0.033 H 
ATOM     64  H   EN5 d   1      -1.786 -44.270 -61.329  0.00  0.00     0.033 H 
BRANCH  62  65
ATOM     65  C5  EN5 d   1      -0.565 -43.684 -63.000  0.00  0.00    -0.065 C 
ATOM     66  H   EN5 d   1      -0.439 -42.740 -62.449  0.00  0.00     0.033 H 
ATOM     67  H   EN5 d   1       0.336 -44.303 -62.878  0.00  0.00     0.033 H 
BRANCH  65  68
ATOM     68  C4  EN5 d   1      -0.739 -43.365 -64.476  0.00  0.00    -0.065 C 
ATOM     69  H   EN5 d   1      -1.124 -44.254 -64.998  0.00  0.00     0.033 H 
ATOM     70  H   EN5 d   1      -1.453 -42.536 -64.588  0.00  0.00     0.033 H 
BRANCH  68  71
ATOM     71  C3  EN5 d   1       0.610 -42.960 -65.088  0.00  0.00    -0.065 C 
ATOM     72  H   EN5 d   1       0.800 -41.891 -64.913  0.00  0.00     0.033 H 
ATOM     73  H   EN5 d   1       1.422 -43.554 -64.644  0.00  0.00     0.033 H 
BRANCH  71  74
ATOM     74  C2  EN5 d   1       0.510 -43.239 -66.580  0.00  0.00    -0.064 C 
ATOM     75  H   EN5 d   1       1.527 -43.274 -66.997  0.00  0.00     0.033 H 
ATOM     76  H   EN5 d   1       0.022 -44.215 -66.720  0.00  0.00     0.033 H 
BRANCH  74  77
ATOM     77  C1  EN5 d   1      -0.274 -42.204 -67.327  0.00  0.00    -0.043 C 
ATOM     78  H   EN5 d   1      -0.467 -42.583 -68.341  0.00  0.00     0.035 H 
ATOM     79  H   EN5 d   1      -1.230 -42.053 -66.805  0.00  0.00     0.035 H 
BRANCH  77  80
ATOM     80  C   EN5 d   1       0.414 -40.873 -67.445  0.00  0.00     0.080 C 
ATOM     81  H   EN5 d   1       1.042 -40.871 -68.348  0.00  0.00     0.075 H 
ATOM     82  H   EN5 d   1      -0.345 -40.081 -67.524  0.00  0.00     0.075 H 
BRANCH  80  83
ATOM     83  N   EN5 d   1       1.233 -40.624 -66.305  0.00  0.00    -0.079 N 
ATOM     84  H   EN5 d   1       1.684 -39.728 -66.405  0.00  0.00     0.274 HD
ATOM     85  H   EN5 d   1       1.933 -41.346 -66.230  0.00  0.00     0.274 HD
ATOM     86  H   EN5 d   1       0.661 -40.622 -65.475  0.00  0.00     0.274 HD
ENDBRANCH  80  83
ENDBRANCH  77  80
ENDBRANCH  74  77
ENDBRANCH  71  74
ENDBRANCH  68  71
ENDBRANCH  65  68
ENDBRANCH  62  65
ENDBRANCH  59  62
ENDBRANCH  56  59
ENDBRANCH  53  56
ENDBRANCH  50  52
BRANCH  50  87
ATOM     87  C11 EN5 d   1      -5.759 -45.003 -59.321  0.00  0.00     0.044 C 
ATOM     88  H   EN5 d   1      -4.860 -44.378 -59.219  0.00  0.00     0.077 H 
ATOM     89  H   EN5 d   1      -6.357 -44.649 -60.173  0.00  0.00     0.077 H 
BRANCH  87  90
ATOM     90  O1  EN5 d   1      -6.524 -44.954 -58.135  0.00  0.00    -0.398 OA
ATOM     91  H   EN5 d   1      -7.293 -45.503 -58.233  0.00  0.00     0.209 HD
ENDBRANCH  87  90
ENDBRANCH  50  87
ENDBRANCH   3  50
TORSDOF 24
