REMARK  7 active torsions:
REMARK  status: ('A' for Active; 'I' for Inactive)
REMARK    1  A    between atoms: C9_8  and  C1_2 
REMARK    2  A    between atoms: C4_4  and  C3_3 
REMARK    3  A    between atoms: C10_9  and  C4_4 
REMARK    4  A    between atoms: C15_15  and  O6_5 
REMARK    5  A    between atoms: C9_8  and  C8_7 
REMARK    6  A    between atoms: C12_12  and  C13_13 
REMARK    7  A    between atoms: C13_13  and  C14_14 
ROOT
ATOM      1  S   TLG d   1      40.145   0.185  31.924  0.00  0.00    -0.066 SA
ATOM      2  C4  TLG d   1      39.698   1.494  30.651  0.00  0.00     0.080 A 
ATOM      3  C11 TLG d   1      38.600  -0.737  31.780  0.00  0.00     0.226 A 
ATOM      4  O11 TLG d   1      38.384  -1.742  32.428  0.00  0.00    -0.280 OA
ATOM      5  C12 TLG d   1      37.762  -0.062  30.768  0.00  0.00     0.097 A 
ATOM      6  C15 TLG d   1      38.301   1.079  30.158  0.00  0.00     0.084 A 
ENDROOT
BRANCH   2   7
ATOM      7  C3  TLG d   1      40.681   1.379  29.459  0.00  0.00    -0.051 C 
ATOM      8  H4  TLG d   1      40.432   2.139  28.704  0.00  0.00     0.030 H 
ATOM      9  H5  TLG d   1      40.599   0.378  29.011  0.00  0.00     0.030 H 
ATOM     10  H6  TLG d   1      41.709   1.538  29.815  0.00  0.00     0.030 H 
ENDBRANCH   2   7
BRANCH   2  11
ATOM     11  C10 TLG d   1      39.618   2.826  31.372  0.00  0.00    -0.073 C 
ATOM     12  C9  TLG d   1      40.602   3.592  31.911  0.00  0.00    -0.065 C 
ATOM     13  H11 TLG d   1      38.613   3.233  31.474  0.00  0.00     0.080 H 
BRANCH  12  14
ATOM     14  C1  TLG d   1      40.223   4.880  32.589  0.00  0.00    -0.051 C 
ATOM     15  H1  TLG d   1      41.129   5.375  32.968  0.00  0.00     0.033 H 
ATOM     16  H2  TLG d   1      39.544   4.667  33.428  0.00  0.00     0.033 H 
ATOM     17  H3  TLG d   1      39.719   5.540  31.867  0.00  0.00     0.033 H 
ENDBRANCH  12  14
BRANCH  12  18
ATOM     18  C8  TLG d   1      42.047   3.291  31.821  0.00  0.00    -0.086 C 
ATOM     19  C7  TLG d   1      43.069   4.017  32.205  0.00  0.00    -0.121 C 
ATOM     20  H8  TLG d   1      44.083   3.646  32.066  0.00  0.00     0.066 H 
ATOM     21  H9  TLG d   1      42.904   4.991  32.663  0.00  0.00     0.066 H 
ATOM     22  H10 TLG d   1      42.298   2.331  31.372  0.00  0.00     0.083 H 
ENDBRANCH  12  18
ENDBRANCH   2  11
BRANCH   6  23
ATOM     23  O6  TLG d   1      37.701   1.845  29.168  0.00  0.00    -0.362 OA
ATOM     24  H7  TLG d   1      36.849   1.480  28.959  0.00  0.00     0.217 HD
ENDBRANCH   6  23
BRANCH   5  25
ATOM     25  C13 TLG d   1      36.432  -0.523  30.412  0.00  0.00     0.162 C 
ATOM     26  ONA TLG d   1      35.901  -1.417  31.073  0.00  0.00    -0.293 OA
BRANCH  25  27
ATOM     27  C14 TLG d   1      35.635   0.161  29.342  0.00  0.00    -0.016 C 
ATOM     28  H12 TLG d   1      34.663  -0.342  29.230  0.00  0.00     0.038 H 
ATOM     29  H13 TLG d   1      36.184   0.114  28.390  0.00  0.00     0.038 H 
ATOM     30  H14 TLG d   1      35.473   1.213  29.621  0.00  0.00     0.038 H 
ENDBRANCH  25  27
ENDBRANCH   5  25
TORSDOF 7
