REMARK  6 active torsions:
REMARK  status: ('A' for Active; 'I' for Inactive)
REMARK    1  A    between atoms: C2_3  and  C9_11 
REMARK    2  A    between atoms: C3_4  and  O2_12 
REMARK    3  A    between atoms: C4_5  and  C5_6 
REMARK    4  A    between atoms: C4_5  and  C10_13 
REMARK    5  A    between atoms: C6_7  and  C7_8 
REMARK    6  A    between atoms: C6_7  and  C11_14 
ROOT
ATOM      1  S1  TLM d   1      -5.070 -21.276   8.150  0.00  0.00    -0.067 SA
ATOM      2  C1  TLM d   1      -5.068 -23.088   7.974  0.00  0.00     0.218 A 
ATOM      3  C2  TLM d   1      -6.073 -23.477   7.008  0.00  0.00     0.026 A 
ATOM      4  C3  TLM d   1      -6.765 -22.458   6.487  0.00  0.00     0.076 A 
ATOM      5  C4  TLM d   1      -6.378 -21.014   6.840  0.00  0.00     0.079 A 
ATOM      6  O1  TLM d   1      -4.300 -23.841   8.529  0.00  0.00    -0.280 OA
ENDROOT
BRANCH   5   7
ATOM      7  C5  TLM d   1      -7.525 -20.243   7.342  0.00  0.00    -0.073 C 
ATOM      8  C6  TLM d   1      -7.544 -19.068   8.012  0.00  0.00    -0.065 C 
ATOM      9  H1  TLM d   1      -8.502 -20.682   7.146  0.00  0.00     0.080 H 
BRANCH   8  10
ATOM     10  C7  TLM d   1      -8.802 -18.533   8.571  0.00  0.00    -0.086 C 
ATOM     11  C8  TLM d   1      -8.886 -17.313   9.082  0.00  0.00    -0.121 C 
ATOM     12  H3  TLM d   1      -9.832 -16.955   9.485  0.00  0.00     0.066 H 
ATOM     13  H4  TLM d   1      -8.008 -16.668   9.099  0.00  0.00     0.066 H 
ATOM     14  H2  TLM d   1      -9.691 -19.162   8.563  0.00  0.00     0.083 H 
ENDBRANCH   8  10
BRANCH   8  15
ATOM     15  C11 TLM d   1      -6.271 -18.326   8.318  0.00  0.00    -0.051 C 
ATOM     16  H12 TLM d   1      -5.424 -18.838   7.838  0.00  0.00     0.033 H 
ATOM     17  H13 TLM d   1      -6.115 -18.299   9.406  0.00  0.00     0.033 H 
ATOM     18  H14 TLM d   1      -6.344 -17.298   7.933  0.00  0.00     0.033 H 
ENDBRANCH   8  15
ENDBRANCH   5   7
BRANCH   5  19
ATOM     19  C10 TLM d   1      -5.656 -20.431   5.640  0.00  0.00    -0.051 C 
ATOM     20  H9  TLM d   1      -6.377 -20.253   4.829  0.00  0.00     0.030 H 
ATOM     21  H10 TLM d   1      -4.886 -21.137   5.297  0.00  0.00     0.030 H 
ATOM     22  H11 TLM d   1      -5.182 -19.480   5.924  0.00  0.00     0.030 H 
ENDBRANCH   5  19
BRANCH   4  23
ATOM     23  O2  TLM d   1      -7.812 -22.604   5.686  0.00  0.00    -0.362 OA
ATOM     24  H8  TLM d   1      -7.965 -23.529   5.532  0.00  0.00     0.217 HD
ENDBRANCH   4  23
BRANCH   3  25
ATOM     25  C9  TLM d   1      -6.322 -24.922   6.689  0.00  0.00    -0.045 C 
ATOM     26  H5  TLM d   1      -5.615 -25.549   7.252  0.00  0.00     0.033 H 
ATOM     27  H6  TLM d   1      -6.182 -25.089   5.611  0.00  0.00     0.033 H 
ATOM     28  H7  TLM d   1      -7.352 -25.188   6.971  0.00  0.00     0.033 H 
ENDBRANCH   3  25
TORSDOF 6
