REMARK  7 active torsions:
REMARK  status: ('A' for Active; 'I' for Inactive)
REMARK    1  A    between atoms: C2_6  and  C1_4 
REMARK    2  A    between atoms: C11_15  and  O1_5 
REMARK    3  A    between atoms: C2_6  and  C3_7 
REMARK    4  A    between atoms: C5_9  and  C4_8 
REMARK    5  A    between atoms: C5_9  and  C6_10 
REMARK    6  A    between atoms: C8_12  and  C9_13 
REMARK    7  A    between atoms: C9_13  and  C10_14 
ROOT
ATOM      1  O   TLE d   1      -3.835 -23.901   8.522  0.00  0.00    -0.280 OA
ATOM      2  S   TLE d   1      -4.697 -21.500   8.149  0.00  0.00    -0.067 SA
ATOM      3  C5  TLE d   1      -5.984 -21.247   6.794  0.00  0.00     0.079 C 
ATOM      4  C7  TLE d   1      -4.673 -23.287   7.933  0.00  0.00     0.219 C 
ATOM      5  C8  TLE d   1      -5.652 -23.694   6.894  0.00  0.00     0.029 C 
ATOM      6  C11 TLE d   1      -6.357 -22.676   6.391  0.00  0.00     0.076 C 
ENDROOT
BRANCH   3   7
ATOM      7  C4  TLE d   1      -7.173 -20.475   7.270  0.00  0.00    -0.073 C 
ATOM      8  C2  TLE d   1      -7.172 -19.351   7.986  0.00  0.00    -0.065 C 
ATOM      9  H8  TLE d   1      -8.149 -20.876   7.001  0.00  0.00     0.080 H 
BRANCH   8  10
ATOM     10  C1  TLE d   1      -8.381 -18.694   8.473  0.00  0.00    -0.086 C 
ATOM     11  C   TLE d   1      -8.515 -17.525   9.119  0.00  0.00    -0.121 C 
ATOM     12  H1  TLE d   1      -9.503 -17.177   9.415  0.00  0.00     0.066 H 
ATOM     13  H2  TLE d   1      -7.635 -16.925   9.347  0.00  0.00     0.066 H 
ATOM     14  H3  TLE d   1      -9.310 -19.230   8.285  0.00  0.00     0.083 H 
ENDBRANCH   8  10
BRANCH   8  15
ATOM     15  C3  TLE d   1      -5.848 -18.695   8.278  0.00  0.00    -0.051 C 
ATOM     16  H5  TLE d   1      -5.036 -19.302   7.851  0.00  0.00     0.033 H 
ATOM     17  H6  TLE d   1      -5.712 -18.613   9.366  0.00  0.00     0.033 H 
ATOM     18  H7  TLE d   1      -5.830 -17.691   7.829  0.00  0.00     0.033 H 
ENDBRANCH   8  15
ENDBRANCH   3   7
BRANCH   3  19
ATOM     19  C6  TLE d   1      -5.245 -20.548   5.659  0.00  0.00    -0.051 C 
ATOM     20  H9  TLE d   1      -5.940 -20.367   4.826  0.00  0.00     0.030 H 
ATOM     21  H10 TLE d   1      -4.417 -21.184   5.314  0.00  0.00     0.030 H 
ATOM     22  H11 TLE d   1      -4.845 -19.588   6.018  0.00  0.00     0.030 H 
ENDBRANCH   3  19
BRANCH   6  23
ATOM     23  O1  TLE d   1      -7.496 -22.820   5.634  0.00  0.00    -0.362 OA
ATOM     24  H4  TLE d   1      -7.398 -22.337   4.822  0.00  0.00     0.217 HD
ENDBRANCH   6  23
BRANCH   5  25
ATOM     25  C9  TLE d   1      -5.860 -25.129   6.492  0.00  0.00    -0.038 C 
ATOM     26  H12 TLE d   1      -4.959 -25.481   5.968  0.00  0.00     0.039 H 
ATOM     27  H13 TLE d   1      -6.723 -25.181   5.812  0.00  0.00     0.039 H 
BRANCH  25  28
ATOM     28  C10 TLE d   1      -6.124 -26.056   7.694  0.00  0.00    -0.072 C 
ATOM     29  H14 TLE d   1      -6.267 -27.087   7.338  0.00  0.00     0.028 H 
ATOM     30  H15 TLE d   1      -7.029 -25.722   8.223  0.00  0.00     0.028 H 
ATOM     31  H16 TLE d   1      -5.264 -26.021   8.380  0.00  0.00     0.028 H 
ENDBRANCH  25  28
ENDBRANCH   5  25
TORSDOF 7
