REMARK  8 active torsions:
REMARK  status: ('A' for Active; 'I' for Inactive)
REMARK    1  A    between atoms: C2_6  and  C1_4 
REMARK    2  A    between atoms: C12_16  and  O1_5 
REMARK    3  A    between atoms: C2_6  and  C3_7 
REMARK    4  A    between atoms: C5_9  and  C4_8 
REMARK    5  A    between atoms: C5_9  and  C6_10 
REMARK    6  A    between atoms: C8_12  and  C9_13 
REMARK    7  A    between atoms: C9_13  and  C10_14 
REMARK    8  A    between atoms: C10_14  and  C11_15 
ROOT
ATOM      1  O   TLJ d   1      -4.094 -23.912   8.391  0.00  0.00    -0.280 OA
ATOM      2  S   TLJ d   1      -5.192 -21.557   8.431  0.00  0.00    -0.067 SA
ATOM      3  C5  TLJ d   1      -6.314 -21.185   6.938  0.00  0.00     0.079 C 
ATOM      4  C7  TLJ d   1      -5.007 -23.305   7.922  0.00  0.00     0.219 C 
ATOM      5  C8  TLJ d   1      -5.886 -23.647   6.763  0.00  0.00     0.030 C 
ATOM      6  C12 TLJ d   1      -6.665 -22.593   6.392  0.00  0.00     0.076 C 
ENDROOT
BRANCH   3   7
ATOM      7  C4  TLJ d   1      -7.504 -20.379   7.372  0.00  0.00    -0.073 C 
ATOM      8  C2  TLJ d   1      -7.504 -19.221   8.054  0.00  0.00    -0.065 C 
ATOM      9  H8  TLJ d   1      -8.480 -20.779   7.103  0.00  0.00     0.080 H 
BRANCH   8  10
ATOM     10  C1  TLJ d   1      -8.760 -18.579   8.577  0.00  0.00    -0.086 C 
ATOM     11  C   TLJ d   1      -9.042 -17.514   9.331  0.00  0.00    -0.121 C 
ATOM     12  H1  TLJ d   1     -10.078 -17.271   9.564  0.00  0.00     0.066 H 
ATOM     13  H2  TLJ d   1      -8.236 -16.888   9.713  0.00  0.00     0.066 H 
ATOM     14  H3  TLJ d   1      -9.657 -19.112   8.265  0.00  0.00     0.083 H 
ENDBRANCH   8  10
BRANCH   8  15
ATOM     15  C3  TLJ d   1      -6.161 -18.603   8.335  0.00  0.00    -0.051 C 
ATOM     16  H5  TLJ d   1      -5.372 -19.214   7.872  0.00  0.00     0.033 H 
ATOM     17  H6  TLJ d   1      -5.999 -18.557   9.422  0.00  0.00     0.033 H 
ATOM     18  H7  TLJ d   1      -6.130 -17.587   7.916  0.00  0.00     0.033 H 
ENDBRANCH   8  15
ENDBRANCH   3   7
BRANCH   3  19
ATOM     19  C6  TLJ d   1      -5.476 -20.474   5.838  0.00  0.00    -0.051 C 
ATOM     20  H9  TLJ d   1      -6.118 -20.256   4.972  0.00  0.00     0.030 H 
ATOM     21  H10 TLJ d   1      -4.649 -21.129   5.526  0.00  0.00     0.030 H 
ATOM     22  H11 TLJ d   1      -5.068 -19.534   6.238  0.00  0.00     0.030 H 
ENDBRANCH   3  19
BRANCH   6  23
ATOM     23  O1  TLJ d   1      -7.732 -22.668   5.550  0.00  0.00    -0.362 OA
ATOM     24  H4  TLJ d   1      -7.571 -22.125   4.787  0.00  0.00     0.217 HD
ENDBRANCH   6  23
BRANCH   5  25
ATOM     25  C9  TLJ d   1      -5.991 -25.031   6.177  0.00  0.00    -0.035 C 
ATOM     26  H12 TLJ d   1      -4.988 -25.482   6.152  0.00  0.00     0.040 H 
ATOM     27  H13 TLJ d   1      -6.384 -24.953   5.153  0.00  0.00     0.040 H 
BRANCH  25  28
ATOM     28  C10 TLJ d   1      -6.969 -25.985   7.039  0.00  0.00    -0.065 C 
ATOM     29  H14 TLJ d   1      -7.343 -26.769   6.364  0.00  0.00     0.032 H 
ATOM     30  H15 TLJ d   1      -7.810 -25.367   7.386  0.00  0.00     0.032 H 
BRANCH  28  31
ATOM     31  C11 TLJ d   1      -6.368 -26.689   8.280  0.00  0.00    -0.076 C 
ATOM     32  H16 TLJ d   1      -7.143 -27.301   8.765  0.00  0.00     0.027 H 
ATOM     33  H17 TLJ d   1      -6.001 -25.932   8.989  0.00  0.00     0.027 H 
ATOM     34  H18 TLJ d   1      -5.534 -27.334   7.967  0.00  0.00     0.027 H 
ENDBRANCH  28  31
ENDBRANCH  25  28
ENDBRANCH   5  25
TORSDOF 8
