REMARK  10 active torsions:
REMARK  status: ('A' for Active; 'I' for Inactive)
REMARK    1  A    between atoms: N_3  and  C12_4 
REMARK    2  A    between atoms: C12_4  and  C11_5 
REMARK    3  A    between atoms: C11_5  and  C10_6 
REMARK    4  A    between atoms: C10_6  and  C9_7 
REMARK    5  A    between atoms: C9_7  and  C8_8 
REMARK    6  A    between atoms: C13_12  and  O1_13 
REMARK    7  A    between atoms: C5_14  and  C6_15 
REMARK    8  A    between atoms: C5_14  and  C4_16 
REMARK    9  A    between atoms: C2_17  and  C3_18 
REMARK   10  A    between atoms: C2_17  and  C1_19 
ROOT
ATOM      1  N2  7RD d   1      -4.291 -28.998   9.781  0.00  0.00     0.068 N 
ATOM      2  N1  7RD d   1      -4.920 -28.067   9.595  0.00  0.00    -0.168 NA
ATOM      3  N   7RD d   1      -5.468 -27.020   9.308  0.00  0.00    -0.116 NA
ENDROOT
BRANCH   3   4
ATOM      4  C12 7RD d   1      -5.113 -26.488   8.025  0.00  0.00     0.047 C 
ATOM      5  H1  7RD d   1      -4.893 -27.288   7.303  0.00  0.00     0.071 H 
ATOM      6  H2  7RD d   1      -4.250 -25.809   8.094  0.00  0.00     0.071 H 
BRANCH   4   7
ATOM      7  C11 7RD d   1      -6.374 -25.746   7.663  0.00  0.00    -0.045 C 
ATOM      8  H3  7RD d   1      -6.526 -24.922   8.375  0.00  0.00     0.035 H 
ATOM      9  H4  7RD d   1      -7.228 -26.437   7.714  0.00  0.00     0.035 H 
BRANCH   7  10
ATOM     10  C10 7RD d   1      -6.275 -25.196   6.298  0.00  0.00    -0.060 C 
ATOM     11  H5  7RD d   1      -7.089 -24.478   6.122  0.00  0.00     0.033 H 
ATOM     12  H6  7RD d   1      -6.338 -26.009   5.560  0.00  0.00     0.033 H 
BRANCH  10  13
ATOM     13  C9  7RD d   1      -4.933 -24.496   6.186  0.00  0.00    -0.034 C 
ATOM     14  H7  7RD d   1      -4.707 -24.354   5.119  0.00  0.00     0.040 H 
ATOM     15  H8  7RD d   1      -4.168 -25.143   6.640  0.00  0.00     0.040 H 
BRANCH  13  16
ATOM     16  C8  7RD d   1      -4.875 -23.153   6.863  0.00  0.00     0.030 A 
ATOM     17  C7  7RD d   1      -3.981 -22.890   7.952  0.00  0.00     0.219 A 
ATOM     18  O   7RD d   1      -3.232 -23.605   8.551  0.00  0.00    -0.280 OA
ATOM     19  S   7RD d   1      -4.082 -21.110   8.408  0.00  0.00    -0.067 SA
ATOM     20  C5  7RD d   1      -5.252 -20.687   6.998  0.00  0.00     0.079 A 
ATOM     21  C13 7RD d   1      -5.511 -22.040   6.392  0.00  0.00     0.076 A 
BRANCH  20  22
ATOM     22  C6  7RD d   1      -4.496 -19.861   5.938  0.00  0.00    -0.051 C 
ATOM     23  H10 7RD d   1      -5.178 -19.612   5.112  0.00  0.00     0.030 H 
ATOM     24  H11 7RD d   1      -3.650 -20.448   5.551  0.00  0.00     0.030 H 
ATOM     25  H12 7RD d   1      -4.120 -18.934   6.395  0.00  0.00     0.030 H 
ENDBRANCH  20  22
BRANCH  20  26
ATOM     26  C4  7RD d   1      -6.507 -20.003   7.489  0.00  0.00    -0.073 C 
ATOM     27  C2  7RD d   1      -6.613 -18.894   8.200  0.00  0.00    -0.065 C 
ATOM     28  H13 7RD d   1      -7.446 -20.487   7.222  0.00  0.00     0.080 H 
BRANCH  27  29
ATOM     29  C3  7RD d   1      -5.375 -18.118   8.584  0.00  0.00    -0.051 C 
ATOM     30  H14 7RD d   1      -5.664 -17.233   9.169  0.00  0.00     0.033 H 
ATOM     31  H15 7RD d   1      -4.845 -17.799   7.674  0.00  0.00     0.033 H 
ATOM     32  H16 7RD d   1      -4.714 -18.757   9.188  0.00  0.00     0.033 H 
ENDBRANCH  27  29
BRANCH  27  33
ATOM     33  C1  7RD d   1      -7.934 -18.372   8.621  0.00  0.00    -0.086 C 
ATOM     34  C   7RD d   1      -8.083 -17.184   9.262  0.00  0.00    -0.121 C 
ATOM     35  H18 7RD d   1      -9.076 -16.842   9.552  0.00  0.00     0.066 H 
ATOM     36  H19 7RD d   1      -7.210 -16.573   9.486  0.00  0.00     0.066 H 
ATOM     37  H17 7RD d   1      -8.822 -18.965   8.408  0.00  0.00     0.083 H 
ENDBRANCH  27  33
ENDBRANCH  20  26
BRANCH  21  38
ATOM     38  O1  7RD d   1      -6.436 -22.033   5.414  0.00  0.00    -0.362 OA
ATOM     39  H9  7RD d   1      -6.054 -22.380   4.616  0.00  0.00     0.217 HD
ENDBRANCH  21  38
ENDBRANCH  13  16
ENDBRANCH  10  13
ENDBRANCH   7  10
ENDBRANCH   4   7
ENDBRANCH   3   4
TORSDOF 10
