REMARK  7 active torsions:
REMARK  status: ('A' for Active; 'I' for Inactive)
REMARK    1  A    between atoms: C9_8  and  C1_2 
REMARK    2  A    between atoms: C4_4  and  C3_3 
REMARK    3  A    between atoms: C10_9  and  C4_4 
REMARK    4  A    between atoms: C15_15  and  O6_5 
REMARK    5  A    between atoms: C9_8  and  C8_7 
REMARK    6  A    between atoms: C12_12  and  C13_13 
REMARK    7  A    between atoms: C13_13  and  C14_14 
ROOT
ATOM      1  S   TLG d   1      -4.949 -21.292   8.267  0.00  0.00    -0.066 SA
ATOM      2  C4  TLG d   1      -6.205 -21.001   6.923  0.00  0.00     0.080 A 
ATOM      3  C11 TLG d   1      -4.985 -23.081   8.052  0.00  0.00     0.226 A 
ATOM      4  O11 TLG d   1      -4.197 -23.696   8.671  0.00  0.00    -0.280 OA
ATOM      5  C12 TLG d   1      -5.990 -23.478   7.107  0.00  0.00     0.097 A 
ATOM      6  C15 TLG d   1      -6.624 -22.418   6.551  0.00  0.00     0.084 A 
ENDROOT
BRANCH   2   7
ATOM      7  C3  TLG d   1      -5.448 -20.372   5.744  0.00  0.00    -0.051 C 
ATOM      8  H4  TLG d   1      -6.149 -20.179   4.919  0.00  0.00     0.030 H 
ATOM      9  H5  TLG d   1      -4.662 -21.062   5.403  0.00  0.00     0.030 H 
ATOM     10  H6  TLG d   1      -4.991 -19.424   6.065  0.00  0.00     0.030 H 
ENDBRANCH   2   7
BRANCH   2  11
ATOM     11  C10 TLG d   1      -7.321 -20.195   7.458  0.00  0.00    -0.073 C 
ATOM     12  C9  TLG d   1      -7.328 -19.046   8.104  0.00  0.00    -0.065 C 
ATOM     13  H11 TLG d   1      -8.308 -20.624   7.290  0.00  0.00     0.080 H 
BRANCH  12  14
ATOM     14  C1  TLG d   1      -6.081 -18.266   8.454  0.00  0.00    -0.051 C 
ATOM     15  H1  TLG d   1      -6.362 -17.347   8.990  0.00  0.00     0.033 H 
ATOM     16  H2  TLG d   1      -5.542 -18.003   7.532  0.00  0.00     0.033 H 
ATOM     17  H3  TLG d   1      -5.432 -18.881   9.095  0.00  0.00     0.033 H 
ENDBRANCH  12  14
BRANCH  12  18
ATOM     18  C8  TLG d   1      -8.611 -18.502   8.574  0.00  0.00    -0.086 C 
ATOM     19  C7  TLG d   1      -8.770 -17.311   9.181  0.00  0.00    -0.121 C 
ATOM     20  H8  TLG d   1      -9.761 -16.989   9.496  0.00  0.00     0.066 H 
ATOM     21  H9  TLG d   1      -7.907 -16.670   9.357  0.00  0.00     0.066 H 
ATOM     22  H10 TLG d   1      -9.501 -19.110   8.419  0.00  0.00     0.083 H 
ENDBRANCH  12  18
ENDBRANCH   2  11
BRANCH   6  23
ATOM     23  O6  TLG d   1      -7.703 -22.446   5.781  0.00  0.00    -0.362 OA
ATOM     24  H7  TLG d   1      -7.529 -21.972   4.976  0.00  0.00     0.217 HD
ENDBRANCH   6  23
BRANCH   5  25
ATOM     25  C13 TLG d   1      -6.277 -24.837   6.818  0.00  0.00     0.162 C 
ATOM     26  ONA TLG d   1      -5.469 -25.694   7.126  0.00  0.00    -0.293 OA
BRANCH  25  27
ATOM     27  C14 TLG d   1      -7.546 -25.281   6.149  0.00  0.00    -0.016 C 
ATOM     28  H12 TLG d   1      -7.537 -26.375   6.034  0.00  0.00     0.038 H 
ATOM     29  H13 TLG d   1      -7.623 -24.809   5.159  0.00  0.00     0.038 H 
ATOM     30  H14 TLG d   1      -8.408 -24.985   6.764  0.00  0.00     0.038 H 
ENDBRANCH  25  27
ENDBRANCH   5  25
TORSDOF 7
