REMARK  7 active torsions:
REMARK  status: ('A' for Active; 'I' for Inactive)
REMARK    1  A    between atoms: C10_2  and  C9_5 
REMARK    2  A    between atoms: C9_5  and  C8_7 
REMARK    3  A    between atoms: C11_11  and  O2_12 
REMARK    4  A    between atoms: C5_13  and  C6_14 
REMARK    5  A    between atoms: C5_13  and  C4_15 
REMARK    6  A    between atoms: C2_16  and  C3_17 
REMARK    7  A    between atoms: C2_16  and  C1_18 
ROOT
ATOM      1  C8  TLH d   1      -5.849 -23.233   7.179  0.00  0.00     0.107 C 
ATOM      2  C7  TLH d   1      -4.856 -22.903   8.142  0.00  0.00     0.227 C 
ATOM      3  O   TLH d   1      -4.078 -23.641   8.684  0.00  0.00    -0.280 OA
ATOM      4  S   TLH d   1      -4.825 -21.113   8.356  0.00  0.00    -0.066 SA
ATOM      5  C11 TLH d   1      -6.501 -22.178   6.643  0.00  0.00     0.084 C 
ATOM      6  C5  TLH d   1      -6.071 -20.771   7.016  0.00  0.00     0.080 C 
ENDROOT
BRANCH   6   7
ATOM      7  C6  TLH d   1      -5.358 -20.195   5.820  0.00  0.00    -0.051 C 
ATOM      8  H2  TLH d   1      -6.087 -19.990   5.022  0.00  0.00     0.030 H 
ATOM      9  H3  TLH d   1      -4.610 -20.916   5.457  0.00  0.00     0.030 H 
ATOM     10  H4  TLH d   1      -4.856 -19.259   6.108  0.00  0.00     0.030 H 
ENDBRANCH   6   7
BRANCH   6  11
ATOM     11  C4  TLH d   1      -7.248 -19.999   7.513  0.00  0.00    -0.073 C 
ATOM     12  C2  TLH d   1      -7.281 -18.859   8.186  0.00  0.00    -0.065 C 
ATOM     13  H5  TLH d   1      -8.220 -20.436   7.290  0.00  0.00     0.080 H 
BRANCH  12  14
ATOM     14  C3  TLH d   1      -6.016 -18.135   8.598  0.00  0.00    -0.051 C 
ATOM     15  H6  TLH d   1      -6.280 -17.217   9.143  0.00  0.00     0.033 H 
ATOM     16  H7  TLH d   1      -5.434 -17.875   7.702  0.00  0.00     0.033 H 
ATOM     17  H8  TLH d   1      -5.415 -18.788   9.249  0.00  0.00     0.033 H 
ENDBRANCH  12  14
BRANCH  12  18
ATOM     18  C1  TLH d   1      -8.561 -18.273   8.554  0.00  0.00    -0.086 C 
ATOM     19  C   TLH d   1      -8.684 -17.088   9.141  0.00  0.00    -0.121 C 
ATOM     20  H10 TLH d   1      -9.672 -16.704   9.392  0.00  0.00     0.066 H 
ATOM     21  H11 TLH d   1      -7.797 -16.500   9.372  0.00  0.00     0.066 H 
ATOM     22  H9  TLH d   1      -9.467 -18.837   8.336  0.00  0.00     0.083 H 
ENDBRANCH  12  18
ENDBRANCH   6  11
BRANCH   5  23
ATOM     23  O2  TLH d   1      -7.572 -22.194   5.870  0.00  0.00    -0.362 OA
ATOM     24  H1  TLH d   1      -7.383 -22.684   5.078  0.00  0.00     0.217 HD
ENDBRANCH   5  23
BRANCH   1  25
ATOM     25  C9  TLH d   1      -6.057 -24.626   6.944  0.00  0.00     0.272 C 
ATOM     26  O1  TLH d   1      -5.776 -25.512   7.721  0.00  0.00    -0.282 OA
BRANCH  25  27
ATOM     27  C10 TLH d   1      -6.857 -25.049   5.695  0.00  0.00     0.456 C 
ATOM     28  F2  TLH d   1      -6.569 -26.263   5.321  0.00  0.00    -0.163 F 
ATOM     29  F   TLH d   1      -8.181 -25.022   5.928  0.00  0.00    -0.163 F 
ATOM     30  F1  TLH d   1      -6.527 -24.286   4.667  0.00  0.00    -0.163 F 
ENDBRANCH  25  27
ENDBRANCH   1  25
TORSDOF 7
