REMARK  6 active torsions:
REMARK  status: ('A' for Active; 'I' for Inactive)
REMARK    1  A    between atoms: O94_1  and  C94_2 
REMARK    2  A    between atoms: C93_3  and  O93_4 
REMARK    3  A    between atoms: C91_8  and  C2_9 
REMARK    4  A    between atoms: C3_11  and  O3_12 
REMARK    5  A    between atoms: C5_17  and  O51_18 
REMARK    6  A    between atoms: C7_20  and  O71_21 
ROOT
ATOM      1  C2  KXN d   1     -43.543 -22.061  -1.903  0.00  0.00     0.095 C 
ATOM      2  O1  KXN d   1     -44.385 -22.298  -0.823  0.00  0.00    -0.338 OA
ATOM      3  C3  KXN d   1     -43.848 -20.455  -2.198  0.00  0.00     0.069 C 
ATOM      4  C4  KXN d   1     -45.154 -20.244  -2.778  0.00  0.00    -0.009 C 
ATOM      5  C10 KXN d   1     -46.046 -21.065  -2.104  0.00  0.00     0.011 A 
ATOM      6  C9  KXN d   1     -45.696 -22.064  -1.171  0.00  0.00     0.081 A 
ATOM      7  C8  KXN d   1     -46.689 -22.793  -0.562  0.00  0.00    -0.018 A 
ATOM      8  C5  KXN d   1     -47.376 -20.815  -2.408  0.00  0.00     0.077 A 
ATOM      9  C6  KXN d   1     -48.378 -21.558  -1.807  0.00  0.00    -0.018 A 
ATOM     10  C7  KXN d   1     -48.025 -22.551  -0.896  0.00  0.00     0.071 A 
ATOM     11  H6  KXN d   1     -43.788 -22.704  -2.761  0.00  0.00     0.095 H 
ATOM     12  H7  KXN d   1     -43.773 -19.932  -1.233  0.00  0.00     0.087 H 
ATOM     13  H9  KXN d   1     -45.137 -20.505  -3.846  0.00  0.00     0.044 H 
ATOM     14  H10 KXN d   1     -45.451 -19.191  -2.662  0.00  0.00     0.044 H 
ATOM     15  H11 KXN d   1     -46.438 -23.550   0.172  0.00  0.00     0.092 H 
ATOM     16  H13 KXN d   1     -49.419 -21.370  -2.041  0.00  0.00     0.092 H 
ENDROOT
BRANCH   1  17
ATOM     17  C91 KXN d   1     -42.254 -22.188  -1.580  0.00  0.00    -0.024 A 
ATOM     18  C92 KXN d   1     -41.598 -23.145  -2.291  0.00  0.00    -0.040 A 
ATOM     19  C93 KXN d   1     -40.223 -23.212  -2.067  0.00  0.00     0.099 A 
ATOM     20  H3  KXN d   1     -42.107 -23.807  -2.982  0.00  0.00     0.088 H 
ATOM     21  C94 KXN d   1     -39.583 -22.395  -1.170  0.00  0.00     0.098 A 
ATOM     22  C95 KXN d   1     -40.269 -21.404  -0.443  0.00  0.00    -0.048 A 
ATOM     23  C96 KXN d   1     -41.634 -21.306  -0.670  0.00  0.00    -0.071 A 
ATOM     24  H4  KXN d   1     -39.758 -20.752   0.257  0.00  0.00     0.087 H 
ATOM     25  H5  KXN d   1     -42.221 -20.556  -0.151  0.00  0.00     0.084 H 
BRANCH  19  26
ATOM     26  O93 KXN d   1     -39.351 -24.058  -2.650  0.00  0.00    -0.358 OA
ATOM     27  H2  KXN d   1     -38.940 -24.596  -1.984  0.00  0.00     0.217 HD
ENDBRANCH  19  26
BRANCH  21  28
ATOM     28  O94 KXN d   1     -38.249 -22.662  -1.100  0.00  0.00    -0.358 OA
ATOM     29  H1  KXN d   1     -37.856 -22.531  -1.955  0.00  0.00     0.217 HD
ENDBRANCH  21  28
ENDBRANCH   1  17
BRANCH   3  30
ATOM     30  O3  KXN d   1     -43.009 -19.790  -3.161  0.00  0.00    -0.392 OA
ATOM     31  H8  KXN d   1     -43.279 -18.883  -3.242  0.00  0.00     0.210 HD
ENDBRANCH   3  30
BRANCH   8  32
ATOM     32  O51 KXN d   1     -47.630 -19.815  -3.337  0.00  0.00    -0.360 OA
ATOM     33  H12 KXN d   1     -48.568 -19.734  -3.465  0.00  0.00     0.217 HD
ENDBRANCH   8  32
BRANCH  10  34
ATOM     34  O71 KXN d   1     -48.997 -23.298  -0.309  0.00  0.00    -0.361 OA
ATOM     35  H14 KXN d   1     -49.489 -23.759  -0.979  0.00  0.00     0.217 HD
ENDBRANCH  10  34
TORSDOF 6
