REMARK  7 active torsions:
REMARK  status: ('A' for Active; 'I' for Inactive)
REMARK    1  A    between atoms: C17_7  and  C21_10 
REMARK    2  A    between atoms: C21_10  and  C1_11 
REMARK    3  A    between atoms: C21_10  and  O27_12 
REMARK    4  A    between atoms: O27_12  and  C15_13 
REMARK    5  A    between atoms: C19_15  and  N22_16 
REMARK    6  A    between atoms: C14_19  and  C16_20 
REMARK    7  A    between atoms: N26_23  and  C20_25 
ROOT
ATOM      1  C15 VGH d   1     -15.440 -16.203  11.990  0.00  0.00     0.116 A 
ATOM      2  C4  VGH d   1     -16.753 -15.930  11.552  0.00  0.00    -0.035 A 
ATOM      3  C19 VGH d   1     -14.926 -17.498  11.837  0.00  0.00     0.154 A 
ATOM      4  N23 VGH d   1     -15.692 -18.464  11.307  0.00  0.00    -0.240 NA
ATOM      5  C5  VGH d   1     -17.000 -18.210  10.862  0.00  0.00     0.015 A 
ATOM      6  C14 VGH d   1     -17.554 -16.931  10.991  0.00  0.00    -0.003 A 
ATOM      7  H   VGH d   1     -17.149 -14.926  11.652  0.00  0.00     0.089 H 
ATOM      8  H   VGH d   1     -17.583 -19.008  10.417  0.00  0.00     0.116 H 
ENDROOT
BRANCH   1   9
ATOM      9  O27 VGH d   1     -14.579 -15.277  12.544  0.00  0.00    -0.338 OA
BRANCH   9  10
ATOM     10  C21 VGH d   1     -14.982 -13.876  12.837  0.00  0.00     0.070 C 
ATOM     11  H   VGH d   1     -14.116 -13.377  13.295  0.00  0.00     0.091 H 
BRANCH  10  12
ATOM     12  C17 VGH d   1     -15.310 -13.114  11.715  0.00  0.00     0.017 A 
ATOM     13  C13 VGH d   1     -16.478 -12.345  11.590  0.00  0.00     0.044 A 
ATOM     14 CL   VGH d   1     -17.644 -12.306  12.826  0.00  0.00    -0.084 Cl
ATOM     15  C3  VGH d   1     -16.726 -11.595  10.439  0.00  0.00    -0.058 A 
ATOM     16  C2  VGH d   1     -15.795 -11.588   9.409  0.00  0.00    -0.042 A 
ATOM     17  H   VGH d   1     -17.641 -11.021  10.350  0.00  0.00     0.086 H 
ATOM     18  C12 VGH d   1     -14.624 -12.337   9.545  0.00  0.00     0.138 A 
ATOM     19  H   VGH d   1     -15.975 -11.009   8.511  0.00  0.00     0.088 H 
ATOM     20  F   VGH d   1     -13.677 -12.385   8.578  0.00  0.00    -0.204 F 
ATOM     21  C18 VGH d   1     -14.391 -13.091  10.676  0.00  0.00     0.083 A 
ATOM     22 CL2  VGH d   1     -12.947 -13.952  10.729  0.00  0.00    -0.080 Cl
ENDBRANCH  10  12
BRANCH  10  23
ATOM     23  C1  VGH d   1     -16.071 -13.944  13.886  0.00  0.00    -0.048 C 
ATOM     24  H   VGH d   1     -15.729 -14.561  14.730  0.00  0.00     0.031 H 
ATOM     25  H   VGH d   1     -16.975 -14.391  13.447  0.00  0.00     0.031 H 
ATOM     26  H   VGH d   1     -16.300 -12.929  14.243  0.00  0.00     0.031 H 
ENDBRANCH  10  23
ENDBRANCH   9  10
ENDBRANCH   1   9
BRANCH   3  27
ATOM     27  N22 VGH d   1     -13.671 -17.756  12.255  0.00  0.00    -0.382 N 
ATOM     28  H   VGH d   1     -13.278 -18.702  12.150  0.00  0.00     0.157 HD
ATOM     29  H   VGH d   1     -13.105 -17.007  12.679  0.00  0.00     0.157 HD
ENDBRANCH   3  27
BRANCH   6  30
ATOM     30  C16 VGH d   1     -18.817 -16.682  10.568  0.00  0.00     0.012 A 
ATOM     31  C6  VGH d   1     -19.819 -17.549  10.553  0.00  0.00     0.034 A 
ATOM     32  N24 VGH d   1     -20.887 -16.909  10.061  0.00  0.00    -0.185 NA
ATOM     33  H   VGH d   1     -19.781 -18.587  10.880  0.00  0.00     0.118 H 
ATOM     34  N26 VGH d   1     -20.591 -15.744   9.775  0.00  0.00    -0.285 N 
ATOM     35  C7  VGH d   1     -19.299 -15.537  10.075  0.00  0.00     0.010 A 
ATOM     36  H   VGH d   1     -18.746 -14.608   9.941  0.00  0.00     0.115 H 
BRANCH  34  37
ATOM     37  C20 VGH d   1     -21.569 -14.778   9.189  0.00  0.00     0.002 C 
ATOM     38  H   VGH d   1     -22.545 -15.271   9.070  0.00  0.00     0.059 H 
ATOM     39  H   VGH d   1     -21.207 -14.440   8.207  0.00  0.00     0.059 H 
ATOM     40  H   VGH d   1     -21.675 -13.912   9.859  0.00  0.00     0.059 H 
ENDBRANCH  34  37
ENDBRANCH   6  30
TORSDOF 7
