REMARK  13 active torsions:
REMARK  status: ('A' for Active; 'I' for Inactive)
REMARK    1  A    between atoms: C6_2  and  O6_1 
REMARK    2  A    between atoms: C5_3  and  C6_2 
REMARK    3  A    between atoms: C10_4  and  C9_16 
REMARK    4  A    between atoms: C11_19  and  C10_4 
REMARK    5  A    between atoms: C4_6  and  O4_7 
REMARK    6  A    between atoms: C3_8  and  O3_9 
REMARK    7  A    between atoms: C2_10  and  O2_11 
REMARK    8  A    between atoms: O1_13  and  C1_12 
REMARK    9  A    between atoms: C7_14  and  O1_13 
REMARK   10  A    between atoms: C8_15  and  C7_14 
REMARK   11  A    between atoms: C9_16  and  C8_15 
REMARK   12  A    between atoms: C12_18  and  C13_17 
REMARK   13  A    between atoms: C12_18  and  C11_19 
ROOT
ATOM      1  O1  KGM d   1      -0.832 -38.367  36.356  0.00  0.00    -0.359 OA
ENDROOT
BRANCH   1   2
ATOM      2  C1  KGM d   1      -1.244 -37.471  35.267  0.00  0.00     0.158 C 
ATOM      3  O5  KGM d   1      -0.544 -36.197  35.450  0.00  0.00    -0.348 OA
ATOM      4  C5  KGM d   1       0.909 -36.322  35.403  0.00  0.00     0.089 C 
ATOM      5  C4  KGM d   1       1.301 -36.866  34.036  0.00  0.00     0.090 C 
ATOM      6  H4  KGM d   1       1.215 -37.055  36.164  0.00  0.00     0.090 H 
ATOM      7  C3  KGM d   1       0.650 -38.226  33.830  0.00  0.00     0.092 C 
ATOM      8  H7  KGM d   1       0.948 -36.177  33.255  0.00  0.00     0.091 H 
ATOM      9  C2  KGM d   1      -0.866 -38.053  33.912  0.00  0.00     0.110 C 
ATOM     10  H9  KGM d   1       0.991 -38.928  34.606  0.00  0.00     0.091 H 
ATOM     11  H11 KGM d   1      -1.358 -39.027  33.775  0.00  0.00     0.094 H 
ATOM     12  H13 KGM d   1      -2.332 -37.314  35.308  0.00  0.00     0.133 H 
BRANCH   4  13
ATOM     13  C6  KGM d   1       1.613 -35.000  35.731  0.00  0.00     0.043 C 
ATOM     14  H2  KGM d   1       1.339 -34.685  36.749  0.00  0.00     0.078 H 
ATOM     15  H3  KGM d   1       2.702 -35.143  35.672  0.00  0.00     0.078 H 
BRANCH  13  16
ATOM     16  O6  KGM d   1       1.218 -33.989  34.800  0.00  0.00    -0.398 OA
ATOM     17  H1  KGM d   1       1.659 -33.175  35.012  0.00  0.00     0.209 HD
ENDBRANCH  13  16
ENDBRANCH   4  13
BRANCH   5  18
ATOM     18  O4  KGM d   1       2.740 -36.970  33.958  0.00  0.00    -0.390 OA
ATOM     19  H8  KGM d   1       3.126 -36.111  34.081  0.00  0.00     0.210 HD
ENDBRANCH   5  18
BRANCH   7  20
ATOM     20  O3  KGM d   1       1.001 -38.729  32.529  0.00  0.00    -0.390 OA
ATOM     21  H10 KGM d   1       0.595 -39.578  32.399  0.00  0.00     0.210 HD
ENDBRANCH   7  20
BRANCH   9  22
ATOM     22  O2  KGM d   1      -1.292 -37.140  32.885  0.00  0.00    -0.388 OA
ATOM     23  H12 KGM d   1      -1.055 -37.490  32.034  0.00  0.00     0.210 HD
ENDBRANCH   9  22
ENDBRANCH   1   2
BRANCH   1  24
ATOM     24  C7  KGM d   1      -1.319 -37.734  37.571  0.00  0.00     0.023 C 
ATOM     25  H14 KGM d   1      -2.382 -37.994  37.685  0.00  0.00     0.074 H 
ATOM     26  H15 KGM d   1      -1.219 -36.645  37.448  0.00  0.00     0.074 H 
BRANCH  24  27
ATOM     27  C8  KGM d   1      -0.591 -38.133  38.870  0.00  0.00    -0.045 C 
ATOM     28  H16 KGM d   1      -1.028 -37.560  39.701  0.00  0.00     0.036 H 
ATOM     29  H17 KGM d   1       0.472 -37.872  38.764  0.00  0.00     0.036 H 
BRANCH  27  30
ATOM     30  C9  KGM d   1      -0.688 -39.623  39.210  0.00  0.00    -0.063 C 
ATOM     31  H18 KGM d   1      -1.740 -39.915  39.347  0.00  0.00     0.033 H 
ATOM     32  H19 KGM d   1      -0.241 -40.227  38.407  0.00  0.00     0.033 H 
BRANCH  30  33
ATOM     33  C10 KGM d   1       0.089 -39.815  40.513  0.00  0.00    -0.065 C 
ATOM     34  H5  KGM d   1      -0.375 -39.199  41.297  0.00  0.00     0.033 H 
ATOM     35  H6  KGM d   1       1.128 -39.490  40.358  0.00  0.00     0.033 H 
BRANCH  33  36
ATOM     36  C11 KGM d   1       0.092 -41.272  40.969  0.00  0.00    -0.065 C 
ATOM     37  H25 KGM d   1       0.549 -41.907  40.196  0.00  0.00     0.033 H 
ATOM     38  H26 KGM d   1      -0.938 -41.609  41.159  0.00  0.00     0.033 H 
BRANCH  36  39
ATOM     39  C12 KGM d   1       0.916 -41.344  42.263  0.00  0.00    -0.069 C 
ATOM     40  H23 KGM d   1       1.938 -40.992  42.057  0.00  0.00     0.032 H 
ATOM     41  H24 KGM d   1       0.451 -40.696  43.020  0.00  0.00     0.032 H 
BRANCH  39  42
ATOM     42  C13 KGM d   1       0.982 -42.775  42.805  0.00  0.00    -0.077 C 
ATOM     43  H20 KGM d   1       1.578 -42.790  43.729  0.00  0.00     0.027 H 
ATOM     44  H21 KGM d   1       1.451 -43.430  42.056  0.00  0.00     0.027 H 
ATOM     45  H22 KGM d   1      -0.036 -43.133  43.019  0.00  0.00     0.027 H 
ENDBRANCH  39  42
ENDBRANCH  36  39
ENDBRANCH  33  36
ENDBRANCH  30  33
ENDBRANCH  27  30
ENDBRANCH  24  27
ENDBRANCH   1  24
TORSDOF 13
