REMARK  7 active torsions:
REMARK  status: ('A' for Active; 'I' for Inactive)
REMARK    1  A    between atoms: C_1  and  O_2 
REMARK    2  A    between atoms: O_2  and  C1_3 
REMARK    3  A    between atoms: C3_7  and  C4_9 
REMARK    4  A    between atoms: C4_9  and  C5_10 
REMARK    5  A    between atoms: C6_12  and  C7_15 
REMARK    6  A    between atoms: C8_23  and  O2_24 
REMARK    7  A    between atoms: O2_24  and  C9_25 
ROOT
ATOM      1  C7  3F3 d   1      23.723  41.839  63.804  0.00  0.00     0.095 A 
ATOM      2  S   3F3 d   1      22.184  41.812  63.078  0.00  0.00    -0.082 SA
ATOM      3  C19 3F3 d   1      21.689  40.550  64.091  0.00  0.00     0.018 A 
ATOM      4  C18 3F3 d   1      20.461  39.978  64.055  0.00  0.00    -0.066 A 
ATOM      5  C17 3F3 d   1      20.194  38.909  64.930  0.00  0.00    -0.082 A 
ATOM      6  C16 3F3 d   1      21.139  38.450  65.827  0.00  0.00    -0.082 A 
ATOM      7  C15 3F3 d   1      22.455  38.943  65.914  0.00  0.00    -0.069 A 
ATOM      8  C14 3F3 d   1      22.737  39.996  65.039  0.00  0.00     0.016 A 
ATOM      9  C8  3F3 d   1      23.910  40.831  64.860  0.00  0.00     0.102 A 
ATOM     10  H   3F3 d   1      19.702  40.336  63.368  0.00  0.00     0.085 H 
ATOM     11  H   3F3 d   1      19.221  38.433  64.899  0.00  0.00     0.083 H 
ATOM     12  H   3F3 d   1      20.848  37.659  66.508  0.00  0.00     0.083 H 
ATOM     13  H   3F3 d   1      23.189  38.539  66.602  0.00  0.00     0.085 H 
ENDROOT
BRANCH   1  14
ATOM     14  C6  3F3 d   1      24.709  42.834  63.373  0.00  0.00     0.212 A 
ATOM     15  O1  3F3 d   1      24.277  43.920  62.704  0.00  0.00    -0.272 OA
ATOM     16  C5  3F3 d   1      25.387  44.637  62.406  0.00  0.00     0.173 A 
ATOM     17  N   3F3 d   1      26.415  43.981  62.970  0.00  0.00    -0.126 NA
ATOM     18  N1  3F3 d   1      25.976  42.803  63.603  0.00  0.00    -0.121 NA
BRANCH  16  19
ATOM     19  C4  3F3 d   1      25.494  45.978  61.687  0.00  0.00     0.022 C 
ATOM     20  H   3F3 d   1      26.475  46.051  61.194  0.00  0.00     0.052 H 
ATOM     21  H   3F3 d   1      24.698  46.052  60.932  0.00  0.00     0.052 H 
BRANCH  19  22
ATOM     22  C3  3F3 d   1      25.348  47.105  62.683  0.00  0.00    -0.048 A 
ATOM     23  C20 3F3 d   1      26.528  47.481  63.385  0.00  0.00    -0.076 A 
ATOM     24  C21 3F3 d   1      26.411  48.521  64.330  0.00  0.00    -0.080 A 
ATOM     25  H   3F3 d   1      27.476  46.989  63.201  0.00  0.00     0.084 H 
ATOM     26  C22 3F3 d   1      25.226  49.165  64.521  0.00  0.00    -0.051 A 
ATOM     27  H   3F3 d   1      27.277  48.812  64.913  0.00  0.00     0.083 H 
ATOM     28  C1  3F3 d   1      24.072  48.835  63.824  0.00  0.00     0.068 A 
ATOM     29  H   3F3 d   1      25.183  49.968  65.247  0.00  0.00     0.087 H 
ATOM     30  C2  3F3 d   1      24.109  47.787  62.887  0.00  0.00    -0.044 A 
ATOM     31  H   3F3 d   1      23.221  47.504  62.334  0.00  0.00     0.088 H 
BRANCH  28  32
ATOM     32  O   3F3 d   1      22.945  49.562  64.126  0.00  0.00    -0.356 OA
BRANCH  32  33
ATOM     33  C   3F3 d   1      21.658  49.342  63.507  0.00  0.00     0.010 C 
ATOM     34  H   3F3 d   1      20.926  50.051  63.921  0.00  0.00     0.066 H 
ATOM     35  H   3F3 d   1      21.326  48.313  63.708  0.00  0.00     0.066 H 
ATOM     36  H   3F3 d   1      21.743  49.494  62.421  0.00  0.00     0.066 H 
ENDBRANCH  32  33
ENDBRANCH  28  32
ENDBRANCH  19  22
ENDBRANCH  16  19
ENDBRANCH   1  14
BRANCH   9  37
ATOM     37  O2  3F3 d   1      25.065  40.615  65.583  0.00  0.00    -0.343 OA
BRANCH  37  38
ATOM     38  C9  3F3 d   1      24.811  40.549  67.011  0.00  0.00     0.048 C 
ATOM     39  C13 3F3 d   1      25.667  39.434  67.594  0.00  0.00    -0.018 C 
ATOM     40  C12 3F3 d   1      27.154  39.709  67.336  0.00  0.00     0.084 C 
ATOM     41  H   3F3 d   1      25.388  38.480  67.124  0.00  0.00     0.039 H 
ATOM     42  H   3F3 d   1      25.493  39.373  68.678  0.00  0.00     0.039 H 
ATOM     43  N2  3F3 d   1      27.507  41.000  67.934  0.00  0.00    -0.075 N 
ATOM     44  H   3F3 d   1      27.342  39.740  66.253  0.00  0.00     0.075 H 
ATOM     45  H   3F3 d   1      27.762  38.913  67.791  0.00  0.00     0.075 H 
ATOM     46  C11 3F3 d   1      26.685  42.132  67.479  0.00  0.00     0.084 C 
ATOM     47  H   3F3 d   1      28.469  41.199  67.707  0.00  0.00     0.277 HD
ATOM     48  H   3F3 d   1      27.407  40.921  68.934  0.00  0.00     0.277 HD
ATOM     49  C10 3F3 d   1      25.174  41.933  67.602  0.00  0.00    -0.018 C 
ATOM     50  H   3F3 d   1      26.918  42.318  66.420  0.00  0.00     0.075 H 
ATOM     51  H   3F3 d   1      26.961  43.014  68.075  0.00  0.00     0.075 H 
ATOM     52  H   3F3 d   1      24.880  41.973  68.661  0.00  0.00     0.039 H 
ATOM     53  H   3F3 d   1      24.649  42.723  67.045  0.00  0.00     0.039 H 
ATOM     54  H   3F3 d   1      23.750  40.333  67.202  0.00  0.00     0.084 H 
ENDBRANCH  37  38
ENDBRANCH   9  37
TORSDOF 7
