REMARK  7 active torsions:
REMARK  status: ('A' for Active; 'I' for Inactive)
REMARK    1  A    between atoms: C1_5  and  C_1 
REMARK    2  A    between atoms: O1_7  and  C7_16 
REMARK    3  A    between atoms: C8_17  and  O1_7 
REMARK    4  A    between atoms: C3_10  and  C2_8 
REMARK    5  A    between atoms: C4_12  and  C3_10 
REMARK    6  A    between atoms: C6_15  and  C5_14 
REMARK    7  A    between atoms: C19_28  and  C20_29 
ROOT
ATOM      1  S   370 d   1      22.131  41.712  63.108  0.00  0.00    -0.082 SA
ATOM      2  C6  370 d   1      23.706  41.699  63.671  0.00  0.00     0.095 A 
ATOM      3  C7  370 d   1      23.846  40.693  64.749  0.00  0.00     0.102 A 
ATOM      4  C13 370 d   1      22.599  39.907  64.989  0.00  0.00     0.016 A 
ATOM      5  C14 370 d   1      22.314  38.793  65.867  0.00  0.00    -0.069 A 
ATOM      6  C15 370 d   1      21.004  38.269  65.829  0.00  0.00    -0.082 A 
ATOM      7  C16 370 d   1      19.997  38.788  64.981  0.00  0.00    -0.082 A 
ATOM      8  C17 370 d   1      20.254  39.873  64.046  0.00  0.00    -0.066 A 
ATOM      9  C18 370 d   1      21.566  40.400  64.021  0.00  0.00     0.018 A 
ATOM     10  H   370 d   1      23.071  38.380  66.523  0.00  0.00     0.085 H 
ATOM     11  H   370 d   1      20.759  37.434  66.476  0.00  0.00     0.083 H 
ATOM     12  H   370 d   1      19.001  38.363  65.029  0.00  0.00     0.083 H 
ATOM     13  H   370 d   1      19.475  40.260  63.398  0.00  0.00     0.085 H 
ENDROOT
BRANCH   2  14
ATOM     14  C5  370 d   1      24.646  42.743  63.289  0.00  0.00     0.212 A 
ATOM     15  O   370 d   1      24.090  43.871  62.847  0.00  0.00    -0.272 OA
ATOM     16  C4  370 d   1      25.240  44.680  62.647  0.00  0.00     0.173 A 
ATOM     17  N   370 d   1      26.355  44.040  63.027  0.00  0.00    -0.126 NA
ATOM     18  N1  370 d   1      25.954  42.785  63.502  0.00  0.00    -0.121 NA
BRANCH  16  19
ATOM     19  C3  370 d   1      25.225  46.083  62.128  0.00  0.00     0.026 C 
ATOM     20  H   370 d   1      26.228  46.515  62.261  0.00  0.00     0.052 H 
ATOM     21  H   370 d   1      24.977  46.056  61.057  0.00  0.00     0.052 H 
BRANCH  19  22
ATOM     22  C2  370 d   1      24.220  46.976  62.831  0.00  0.00    -0.001 A 
ATOM     23  C1  370 d   1      24.578  48.123  63.718  0.00  0.00     0.059 A 
ATOM     24  N4  370 d   1      23.421  48.677  64.133  0.00  0.00    -0.179 NA
ATOM     25  N3  370 d   1      22.309  48.016  63.562  0.00  0.00    -0.282 N 
ATOM     26  C19 370 d   1      22.735  47.001  62.796  0.00  0.00     0.032 A 
ATOM     27  H   370 d   1      21.323  48.274  63.712  0.00  0.00     0.189 HD
BRANCH  23  28
ATOM     28  C   370 d   1      25.995  48.521  64.086  0.00  0.00    -0.033 C 
ATOM     29  H   370 d   1      25.969  49.398  64.750  0.00  0.00     0.035 H 
ATOM     30  H   370 d   1      26.555  48.770  63.172  0.00  0.00     0.035 H 
ATOM     31  H   370 d   1      26.488  47.684  64.603  0.00  0.00     0.035 H 
ENDBRANCH  23  28
BRANCH  26  32
ATOM     32  C20 370 d   1      21.797  46.090  62.075  0.00  0.00    -0.035 C 
ATOM     33  H   370 d   1      22.373  45.339  61.515  0.00  0.00     0.035 H 
ATOM     34  H   370 d   1      21.181  46.676  61.376  0.00  0.00     0.035 H 
ATOM     35  H   370 d   1      21.145  45.584  62.803  0.00  0.00     0.035 H 
ENDBRANCH  26  32
ENDBRANCH  19  22
ENDBRANCH  16  19
ENDBRANCH   2  14
BRANCH   3  36
ATOM     36  O1  370 d   1      25.010  40.520  65.424  0.00  0.00    -0.343 OA
BRANCH  36  37
ATOM     37  C8  370 d   1      24.839  40.537  66.867  0.00  0.00     0.048 C 
ATOM     38  C9  370 d   1      25.264  41.900  67.477  0.00  0.00    -0.018 C 
ATOM     39  C10 370 d   1      26.792  42.104  67.308  0.00  0.00     0.084 C 
ATOM     40  H   370 d   1      25.011  41.915  68.547  0.00  0.00     0.039 H 
ATOM     41  H   370 d   1      24.729  42.712  66.963  0.00  0.00     0.039 H 
ATOM     42  N2  370 d   1      27.519  40.893  67.739  0.00  0.00    -0.075 N 
ATOM     43  H   370 d   1      27.017  42.306  66.250  0.00  0.00     0.075 H 
ATOM     44  H   370 d   1      27.114  42.959  67.921  0.00  0.00     0.075 H 
ATOM     45  C11 370 d   1      27.130  39.588  67.228  0.00  0.00     0.084 C 
ATOM     46  H   370 d   1      27.439  40.848  68.743  0.00  0.00     0.277 HD
ATOM     47  H   370 d   1      28.485  41.028  67.485  0.00  0.00     0.277 HD
ATOM     48  C12 370 d   1      25.642  39.366  67.446  0.00  0.00    -0.018 C 
ATOM     49  H   370 d   1      27.696  38.807  67.756  0.00  0.00     0.075 H 
ATOM     50  H   370 d   1      27.352  39.537  66.152  0.00  0.00     0.075 H 
ATOM     51  H   370 d   1      25.337  38.435  66.947  0.00  0.00     0.039 H 
ATOM     52  H   370 d   1      25.441  39.286  68.525  0.00  0.00     0.039 H 
ATOM     53  H   370 d   1      23.775  40.381  67.099  0.00  0.00     0.084 H 
ENDBRANCH  36  37
ENDBRANCH   3  36
TORSDOF 7
