REMARK  5 active torsions:
REMARK  status: ('A' for Active; 'I' for Inactive)
REMARK    1  A    between atoms: C20_7  and  C12_8 
REMARK    2  A    between atoms: C9_13  and  C8_14 
REMARK    3  A    between atoms: C15_15  and  C16_16 
REMARK       I    between atoms: C16_16  and  N18_17 
REMARK    4  A    between atoms: N18_17  and  O19_18 
REMARK    5  A    between atoms: C7_20  and  C6_21 
ROOT
ATOM      1  C8  9F4 d   1       8.309   5.733 138.305  0.00  0.00    -0.008 A 
ATOM      2  C15 9F4 d   1       8.495   6.966 139.141  0.00  0.00     0.042 A 
ATOM      3  C7  9F4 d   1       8.543   5.612 139.804  0.00  0.00    -0.008 A 
ATOM      4  H7  9F4 d   1       9.110   5.419 137.619  0.00  0.00     0.049 H 
ATOM      5  H8  9F4 d   1       7.635   7.629 139.317  0.00  0.00     0.057 H 
ATOM      6  H11 9F4 d   1       7.734   5.344 140.500  0.00  0.00     0.049 H 
ENDROOT
BRANCH   1   7
ATOM      7  C9  9F4 d   1       6.989   5.442 137.653  0.00  0.00    -0.052 A 
ATOM      8  C10 9F4 d   1       6.835   5.739 136.292  0.00  0.00    -0.075 A 
ATOM      9  C11 9F4 d   1       5.651   5.464 135.609  0.00  0.00    -0.069 A 
ATOM     10  H4  9F4 d   1       7.659   6.195 135.756  0.00  0.00     0.084 H 
ATOM     11  C12 9F4 d   1       4.556   4.897 136.269  0.00  0.00     0.012 A 
ATOM     12  H3  9F4 d   1       5.578   5.693 134.552  0.00  0.00     0.085 H 
ATOM     13  C13 9F4 d   1       4.701   4.594 137.631  0.00  0.00    -0.069 A 
ATOM     14  C14 9F4 d   1       5.898   4.852 138.306  0.00  0.00    -0.075 A 
ATOM     15  H5  9F4 d   1       3.870   4.152 138.170  0.00  0.00     0.085 H 
ATOM     16  H6  9F4 d   1       5.984   4.591 139.355  0.00  0.00     0.084 H 
BRANCH  11  17
ATOM     17  C20 9F4 d   1       3.298   4.635 135.566  0.00  0.00     0.159 A 
ATOM     18  N21 9F4 d   1       3.365   4.241 134.274  0.00  0.00    -0.238 NA
ATOM     19  C22 9F4 d   1       2.188   3.994 133.666  0.00  0.00     0.043 A 
ATOM     20  C23 9F4 d   1       0.976   4.134 134.292  0.00  0.00     0.151 A 
ATOM     21  H1  9F4 d   1       2.200   3.669 132.632  0.00  0.00     0.119 H 
ATOM     22  F26 9F4 d   1      -0.174   3.883 133.661  0.00  0.00    -0.203 F 
ATOM     23  C24 9F4 d   1       1.006   4.545 135.601  0.00  0.00     0.043 A 
ATOM     24  N25 9F4 d   1       2.152   4.799 136.264  0.00  0.00    -0.238 NA
ATOM     25  H2  9F4 d   1       0.066   4.671 136.125  0.00  0.00     0.119 H 
ENDBRANCH  11  17
ENDBRANCH   1   7
BRANCH   2  26
ATOM     26  C16 9F4 d   1       9.713   7.779 139.054  0.00  0.00     0.246 C 
ATOM     27  N18 9F4 d   1       9.654   8.939 139.773  0.00  0.00    -0.237 N 
ATOM     28  H9  9F4 d   1       8.818   9.212 140.248  0.00  0.00     0.197 HD
ATOM     29  O17 9F4 d   1      10.683   7.464 138.366  0.00  0.00    -0.271 OA
BRANCH  27  30
ATOM     30  O19 9F4 d   1      10.802   9.728 139.820  0.00  0.00    -0.287 OA
ATOM     31  H10 9F4 d   1      11.041   9.991 138.939  0.00  0.00     0.244 HD
ENDBRANCH  27  30
ENDBRANCH   2  26
BRANCH   3  32
ATOM     32  C6  9F4 d   1       9.797   4.852 140.175  0.00  0.00    -0.052 A 
ATOM     33  C1  9F4 d   1      10.738   5.322 141.097  0.00  0.00    -0.076 A 
ATOM     34  C2  9F4 d   1      11.883   4.573 141.396  0.00  0.00    -0.082 A 
ATOM     35  H12 9F4 d   1      10.579   6.277 141.585  0.00  0.00     0.084 H 
ATOM     36  C3  9F4 d   1      12.114   3.352 140.772  0.00  0.00    -0.083 A 
ATOM     37  H16 9F4 d   1      12.596   4.949 142.121  0.00  0.00     0.083 H 
ATOM     38  C4  9F4 d   1      11.183   2.853 139.876  0.00  0.00    -0.082 A 
ATOM     39  H15 9F4 d   1      13.018   2.793 140.986  0.00  0.00     0.083 H 
ATOM     40  C5  9F4 d   1      10.036   3.588 139.598  0.00  0.00    -0.076 A 
ATOM     41  H14 9F4 d   1      11.348   1.896 139.395  0.00  0.00     0.083 H 
ATOM     42  H13 9F4 d   1       9.302   3.176 138.915  0.00  0.00     0.084 H 
ENDBRANCH   3  32
TORSDOF 5
