REMARK  6 active torsions:
REMARK  status: ('A' for Active; 'I' for Inactive)
REMARK    1  A    between atoms: O1_1  and  C2_2 
REMARK    2  A    between atoms: C2_2  and  C3_3 
REMARK    3  A    between atoms: C3_3  and  N4_4 
REMARK    4  A    between atoms: N4_4  and  C5_5 
REMARK    5  A    between atoms: C7_7  and  C15_15 
REMARK    6  A    between atoms: C9_9  and  C11_11 
ROOT
ATOM      1  C5  L5Y d   1      27.024  18.095   8.173  0.00  0.00     0.032 A 
ATOM      2  C6  L5Y d   1      27.452  18.501   9.432  0.00  0.00    -0.027 A 
ATOM      3  C7  L5Y d   1      27.588  19.861   9.712  0.00  0.00     0.091 A 
ATOM      4  N8  L5Y d   1      27.312  20.802   8.789  0.00  0.00    -0.242 NA
ATOM      5  C9  L5Y d   1      26.891  20.409   7.581  0.00  0.00     0.143 A 
ATOM      6  C10 L5Y d   1      26.667  19.076   7.261  0.00  0.00    -0.025 A 
ATOM      7  H   L5Y d   1      27.679  17.764  10.193  0.00  0.00     0.090 H 
ATOM      8  H   L5Y d   1      26.219  18.807   6.311  0.00  0.00     0.090 H 
ENDROOT
BRANCH   3   9
ATOM      9  C15 L5Y d   1      28.142  20.344  10.984  0.00  0.00     0.118 A 
ATOM     10  N16 L5Y d   1      28.244  21.668  11.185  0.00  0.00    -0.171 NA
ATOM     11  N17 L5Y d   1      28.866  21.830  12.390  0.00  0.00    -0.275 N 
ATOM     12  C18 L5Y d   1      29.110  20.621  12.968  0.00  0.00     0.080 A 
ATOM     13  H   L5Y d   1      29.116  22.739  12.804  0.00  0.00     0.189 HD
ATOM     14  C19 L5Y d   1      29.748  20.240  14.137  0.00  0.00     0.030 A 
ATOM     15  C23 L5Y d   1      28.726  19.661  12.052  0.00  0.00     0.028 A 
ATOM     16  N20 L5Y d   1      29.957  18.954  14.453  0.00  0.00    -0.271 NA
ATOM     17  H   L5Y d   1      30.090  21.009  14.820  0.00  0.00     0.118 H 
ATOM     18  C21 L5Y d   1      29.635  18.023  13.549  0.00  0.00     0.003 A 
ATOM     19  C22 L5Y d   1      28.967  18.321  12.379  0.00  0.00    -0.051 A 
ATOM     20  H   L5Y d   1      29.910  16.992  13.743  0.00  0.00     0.114 H 
ATOM     21  H   L5Y d   1      28.633  17.527  11.721  0.00  0.00     0.087 H 
ENDBRANCH   3   9
BRANCH   1  22
ATOM     22  N4  L5Y d   1      26.849  16.725   7.859  0.00  0.00    -0.388 N 
ATOM     23  H   L5Y d   1      26.160  16.455   7.143  0.00  0.00     0.159 HD
BRANCH  22  24
ATOM     24  C3  L5Y d   1      27.630  15.683   8.534  0.00  0.00     0.012 C 
ATOM     25  H   L5Y d   1      28.692  15.967   8.516  0.00  0.00     0.067 H 
ATOM     26  H   L5Y d   1      27.289  15.602   9.577  0.00  0.00     0.067 H 
BRANCH  24  27
ATOM     27  C2  L5Y d   1      27.472  14.329   7.859  0.00  0.00     0.031 C 
ATOM     28  H   L5Y d   1      26.442  13.972   8.004  0.00  0.00     0.076 H 
ATOM     29  H   L5Y d   1      27.675  14.436   6.783  0.00  0.00     0.076 H 
BRANCH  27  30
ATOM     30  O1  L5Y d   1      28.378  13.379   8.413  0.00  0.00    -0.399 OA
ATOM     31  H   L5Y d   1      28.263  12.542   7.978  0.00  0.00     0.209 HD
ENDBRANCH  27  30
ENDBRANCH  24  27
ENDBRANCH  22  24
ENDBRANCH   1  22
BRANCH   5  32
ATOM     32  C11 L5Y d   1      26.605  21.535   6.591  0.00  0.00     0.434 C 
ATOM     33  F12 L5Y d   1      25.401  22.083   6.782  0.00  0.00    -0.165 F 
ATOM     34  F13 L5Y d   1      27.493  22.524   6.670  0.00  0.00    -0.165 F 
ATOM     35  F14 L5Y d   1      26.643  21.121   5.327  0.00  0.00    -0.165 F 
ENDBRANCH   5  32
TORSDOF 6
