REMARK  4 active torsions:
REMARK  status: ('A' for Active; 'I' for Inactive)
REMARK    1  A    between atoms: C3_3  and  O3_7 
REMARK    2  A    between atoms: C4_4  and  O4_8 
REMARK    3  A    between atoms: C5_5  and  C6_6 
REMARK    4  A    between atoms: C6_6  and  O6_10 
ROOT
ATOM      1  C1  2DG d   1      77.251  90.514  18.213  0.00  0.00     0.023 C 
ATOM      2  C2  2DG d   1      76.822  90.330  19.652  0.00  0.00    -0.019 C 
ATOM      3  C3  2DG d   1      77.951  90.301  20.557  0.00  0.00     0.064 C 
ATOM      4  C4  2DG d   1      78.941  89.304  20.200  0.00  0.00     0.087 C 
ATOM      5  C5  2DG d   1      79.405  89.428  18.775  0.00  0.00     0.085 C 
ATOM      6  O5  2DG d   1      78.193  89.460  17.878  0.00  0.00    -0.381 OA
ATOM      7  H1  2DG d   1      77.733  91.495  18.091  0.00  0.00     0.074 H 
ATOM      8  H2  2DG d   1      76.374  90.452  17.553  0.00  0.00     0.074 H 
ATOM      9  H3  2DG d   1      76.273  89.381  19.740  0.00  0.00     0.040 H 
ATOM     10  H4  2DG d   1      76.162  91.163  19.935  0.00  0.00     0.040 H 
ATOM     11  H5  2DG d   1      78.439  91.285  20.493  0.00  0.00     0.087 H 
ATOM     12  H6  2DG d   1      79.815  89.431  20.856  0.00  0.00     0.091 H 
ATOM     13  H7  2DG d   1      79.944  90.382  18.679  0.00  0.00     0.090 H 
ENDROOT
BRANCH   5  14
ATOM     14  C6  2DG d   1      80.320  88.347  18.324  0.00  0.00     0.043 C 
ATOM     15  H8  2DG d   1      79.758  87.401  18.322  0.00  0.00     0.078 H 
ATOM     16  H9  2DG d   1      81.150  88.279  19.043  0.00  0.00     0.078 H 
BRANCH  14  17
ATOM     17  O6  2DG d   1      80.862  88.534  17.050  0.00  0.00    -0.398 OA
ATOM     18  H12 2DG d   1      81.362  89.341  17.035  0.00  0.00     0.209 HD
ENDBRANCH  14  17
ENDBRANCH   5  14
BRANCH   4  19
ATOM     19  O4  2DG d   1      78.378  88.019  20.424  0.00  0.00    -0.390 OA
ATOM     20  H11 2DG d   1      78.089  87.954  21.327  0.00  0.00     0.210 HD
ENDBRANCH   4  19
BRANCH   3  21
ATOM     21  O3  2DG d   1      77.526  90.108  21.939  0.00  0.00    -0.393 OA
ATOM     22  H10 2DG d   1      78.277  90.192  22.515  0.00  0.00     0.210 HD
ENDBRANCH   3  21
TORSDOF 4
