REMARK  4 active torsions:
REMARK  status: ('A' for Active; 'I' for Inactive)
REMARK    1  A    between atoms: C4_15  and  N4_22 
REMARK    2  A    between atoms: C2_17  and  S2_18 
REMARK    3  A    between atoms: N4_22  and  C1'_23 
REMARK    4  A    between atoms: C3'_27  and  C7'_28 
ROOT
ATOM      1  O16 8E9 d   1      28.112  34.555  26.036  0.00  0.00    -0.286 OA
ATOM      2  C10 8E9 d   1      29.150  35.086  25.637  0.00  0.00     0.196 A 
ATOM      3  C14 8E9 d   1      29.164  35.864  24.342  0.00  0.00     0.029 A 
ATOM      4  C5  8E9 d   1      28.010  35.983  23.544  0.00  0.00    -0.068 A 
ATOM      5  C6  8E9 d   1      28.097  36.694  22.338  0.00  0.00    -0.082 A 
ATOM      6  C7  8E9 d   1      29.301  37.278  21.890  0.00  0.00    -0.082 A 
ATOM      7  C8  8E9 d   1      30.462  37.183  22.653  0.00  0.00    -0.068 A 
ATOM      8  C13 8E9 d   1      30.434  36.481  23.879  0.00  0.00     0.029 A 
ATOM      9  C9  8E9 d   1      31.658  36.335  24.716  0.00  0.00     0.196 A 
ATOM     10  O9  8E9 d   1      32.726  36.854  24.363  0.00  0.00    -0.286 OA
ATOM     11  C11 8E9 d   1      30.371  34.955  26.485  0.00  0.00     0.058 A 
ATOM     12  C12 8E9 d   1      31.622  35.590  26.006  0.00  0.00     0.059 A 
ATOM     13  C1  8E9 d   1      32.819  35.458  26.860  0.00  0.00     0.065 A 
ATOM     14  N1  8E9 d   1      34.007  35.960  26.481  0.00  0.00    -0.397 N 
ATOM     15  C4  8E9 d   1      30.347  34.195  27.791  0.00  0.00     0.049 A 
ATOM     16  C3  8E9 d   1      31.521  34.109  28.540  0.00  0.00    -0.030 A 
ATOM     17  C2  8E9 d   1      32.757  34.671  28.140  0.00  0.00     0.110 A 
ATOM     18  H   8E9 d   1      27.074  35.534  23.855  0.00  0.00     0.085 H 
ATOM     19  H   8E9 d   1      27.207  36.799  21.728  0.00  0.00     0.083 H 
ATOM     20  H   8E9 d   1      29.322  37.805  20.943  0.00  0.00     0.083 H 
ATOM     21  H   8E9 d   1      31.381  37.644  22.309  0.00  0.00     0.085 H 
ATOM     22  H   8E9 d   1      34.082  36.504  25.609  0.00  0.00     0.156 HD
ATOM     23  H   8E9 d   1      34.842  35.801  27.062  0.00  0.00     0.156 HD
ATOM     24  H   8E9 d   1      31.484  33.580  29.485  0.00  0.00     0.089 H 
ENDROOT
BRANCH  15  25
ATOM     25  N4  8E9 d   1      29.143  33.647  28.127  0.00  0.00    -0.355 N 
ATOM     26  H   8E9 d   1      28.336  33.851  27.520  0.00  0.00     0.166 HD
BRANCH  25  27
ATOM     27  C1' 8E9 d   1      28.935  32.845  29.215  0.00  0.00     0.033 A 
ATOM     28  C6' 8E9 d   1      27.736  33.025  29.924  0.00  0.00    -0.057 A 
ATOM     29  C5' 8E9 d   1      27.377  32.256  31.058  0.00  0.00    -0.080 A 
ATOM     30  H   8E9 d   1      27.049  33.793  29.586  0.00  0.00     0.086 H 
ATOM     31  C4' 8E9 d   1      28.308  31.316  31.455  0.00  0.00    -0.077 A 
ATOM     32  H   8E9 d   1      26.436  32.395  31.578  0.00  0.00     0.083 H 
ATOM     33  C3' 8E9 d   1      29.488  31.131  30.777  0.00  0.00    -0.060 A 
ATOM     34  H   8E9 d   1      28.101  30.706  32.327  0.00  0.00     0.084 H 
ATOM     35  C2' 8E9 d   1      29.843  31.858  29.618  0.00  0.00    -0.051 A 
ATOM     36  H   8E9 d   1      30.761  31.664  29.075  0.00  0.00     0.087 H 
BRANCH  33  37
ATOM     37  C7' 8E9 d   1      30.426  30.101  31.273  0.00  0.00    -0.051 C 
ATOM     38  H   8E9 d   1      31.317  30.075  30.628  0.00  0.00     0.033 H 
ATOM     39  H   8E9 d   1      29.933  29.118  31.257  0.00  0.00     0.033 H 
ATOM     40  H   8E9 d   1      30.726  30.344  32.303  0.00  0.00     0.033 H 
ENDBRANCH  33  37
ENDBRANCH  25  27
ENDBRANCH  15  25
BRANCH  17  41
ATOM     41  S2  8E9 d   1      34.108  34.566  29.068  0.00  0.00     0.140 S 
ATOM     42  OS2 8E9 d   1      35.187  33.823  28.405  0.00  0.00    -0.591 OA
ATOM     43  OS1 8E9 d   1      33.696  33.871  30.360  0.00  0.00    -0.591 OA
ATOM     44  OS3 8E9 d   1      34.582  35.909  29.411  0.00  0.00    -0.591 OA
ENDBRANCH  17  41
TORSDOF 4
