REMARK  10 active torsions:
REMARK  status: ('A' for Active; 'I' for Inactive)
REMARK    1  A    between atoms: O4_1  and  C4_2 
REMARK    2  A    between atoms: O4_1  and  C1_11 
REMARK    3  A    between atoms: C3_3  and  O3_4 
REMARK    4  A    between atoms: C5_8  and  C6_9 
REMARK    5  A    between atoms: C6_9  and  O6_10 
REMARK    6  A    between atoms: C2_12  and  O2_17 
REMARK    7  A    between atoms: C3_13  and  O3_18 
REMARK    8  A    between atoms: C4_14  and  O4_19 
REMARK    9  A    between atoms: C5_15  and  C6_16 
REMARK   10  A    between atoms: C6_16  and  O6_21 
ROOT
ATOM      1  O4  IFM d   1      -4.883 -16.886 -19.935  0.00  0.00    -0.350 OA
ENDROOT
BRANCH   1   2
ATOM      2  C4  IFM d   1      -5.561 -18.140 -20.142  0.00  0.00     0.075 C 
ATOM      3  C3  IFM d   1      -6.679 -18.243 -19.114  0.00  0.00     0.084 C 
ATOM      4  C2  IFM d   1      -7.710 -19.346 -19.406  0.00  0.00     0.107 C 
ATOM      5  H   IFM d   1      -7.221 -17.286 -19.111  0.00  0.00     0.089 H 
ATOM      6  N   IFM d   1      -7.957 -19.510 -20.842  0.00  0.00    -0.072 N 
ATOM      7  H   IFM d   1      -8.657 -19.085 -18.912  0.00  0.00     0.079 H 
ATOM      8  H   IFM d   1      -7.335 -20.297 -19.001  0.00  0.00     0.079 H 
ATOM      9  C1  IFM d   1      -6.842 -19.475 -21.800  0.00  0.00     0.089 C 
ATOM     10  H   IFM d   1      -8.592 -18.775 -21.111  0.00  0.00     0.277 HD
ATOM     11  H   IFM d   1      -8.409 -20.404 -20.957  0.00  0.00     0.277 HD
ATOM     12  C5  IFM d   1      -6.082 -18.178 -21.580  0.00  0.00     0.017 C 
ATOM     13  H   IFM d   1      -7.231 -19.511 -22.828  0.00  0.00     0.076 H 
ATOM     14  H   IFM d   1      -6.175 -20.333 -21.630  0.00  0.00     0.076 H 
ATOM     15  H   IFM d   1      -6.807 -17.357 -21.679  0.00  0.00     0.049 H 
ATOM     16  H   IFM d   1      -4.859 -18.974 -19.994  0.00  0.00     0.088 H 
BRANCH   3  17
ATOM     17  O3  IFM d   1      -6.078 -18.428 -17.825  0.00  0.00    -0.391 OA
ATOM     18  H   IFM d   1      -5.518 -17.686 -17.629  0.00  0.00     0.210 HD
ENDBRANCH   3  17
BRANCH  12  19
ATOM     19  C6  IFM d   1      -5.010 -17.928 -22.642  0.00  0.00     0.024 C 
ATOM     20  H   IFM d   1      -4.594 -16.922 -22.484  0.00  0.00     0.074 H 
ATOM     21  H   IFM d   1      -5.485 -17.977 -23.633  0.00  0.00     0.074 H 
BRANCH  19  22
ATOM     22  O6  IFM d   1      -3.931 -18.874 -22.611  0.00  0.00    -0.400 OA
ATOM     23  H   IFM d   1      -3.305 -18.661 -23.293  0.00  0.00     0.209 HD
ENDBRANCH  19  22
ENDBRANCH  12  19
ENDBRANCH   1   2
BRANCH   1  24
ATOM     24  C1  BMA d   1      -3.539 -16.686 -19.509  0.00  0.00     0.159 C 
ATOM     25  C2  BMA d   1      -2.920 -15.335 -19.825  0.00  0.00     0.110 C 
ATOM     26  C3  BMA d   1      -1.633 -15.252 -19.010  0.00  0.00     0.092 C 
ATOM     27  H   IFM d   1      -2.683 -15.281 -20.898  0.00  0.00     0.094 H 
ATOM     28  C4  BMA d   1      -1.941 -15.483 -17.536  0.00  0.00     0.090 C 
ATOM     29  H   IFM d   1      -0.941 -16.030 -19.363  0.00  0.00     0.091 H 
ATOM     30  C5  BMA d   1      -2.765 -16.757 -17.280  0.00  0.00     0.089 C 
ATOM     31  H   IFM d   1      -2.503 -14.618 -17.154  0.00  0.00     0.091 H 
ATOM     32  O5  BMA d   1      -3.930 -16.741 -18.129  0.00  0.00    -0.348 OA
ATOM     33  H   IFM d   1      -2.155 -17.630 -17.557  0.00  0.00     0.090 H 
ATOM     34  H   IFM d   1      -2.859 -17.490 -19.827  0.00  0.00     0.133 H 
BRANCH  25  35
ATOM     35  O2  BMA d   1      -3.816 -14.248 -19.495  0.00  0.00    -0.388 OA
ATOM     36  H   IFM d   1      -3.390 -13.420 -19.682  0.00  0.00     0.210 HD
ENDBRANCH  25  35
BRANCH  26  37
ATOM     37  O3  BMA d   1      -1.008 -13.979 -19.150  0.00  0.00    -0.390 OA
ATOM     38  H   IFM d   1      -0.203 -13.965 -18.645  0.00  0.00     0.210 HD
ENDBRANCH  26  37
BRANCH  28  39
ATOM     39  O4  BMA d   1      -0.707 -15.599 -16.834  0.00  0.00    -0.390 OA
ATOM     40  H   IFM d   1      -0.185 -14.819 -16.982  0.00  0.00     0.210 HD
ENDBRANCH  28  39
BRANCH  30  41
ATOM     41  C6  BMA d   1      -3.108 -16.880 -15.788  0.00  0.00     0.043 C 
ATOM     42  H   IFM d   1      -3.637 -15.969 -15.470  0.00  0.00     0.078 H 
ATOM     43  H   IFM d   1      -2.173 -16.979 -15.217  0.00  0.00     0.078 H 
BRANCH  41  44
ATOM     44  O6  BMA d   1      -3.941 -18.019 -15.511  0.00  0.00    -0.398 OA
ATOM     45  H   IFM d   1      -4.755 -17.940 -15.995  0.00  0.00     0.209 HD
ENDBRANCH  41  44
ENDBRANCH  30  41
ENDBRANCH   1  24
TORSDOF 10
