REMARK  32 active torsions:
REMARK  status: ('A' for Active; 'I' for Inactive)
REMARK    1  A    between atoms: C_1  and  CH3_3 
REMARK       I    between atoms: N_4  and  C_1 
REMARK    2  A    between atoms: CA_5  and  N_4 
REMARK    3  A    between atoms: C_6  and  CA_5 
REMARK    4  A    between atoms: CA_5  and  CB_8 
REMARK       I    between atoms: N_11  and  C_6 
REMARK    5  A    between atoms: CB_8  and  CG1_9 
REMARK    6  A    between atoms: CB_8  and  CG2_10 
REMARK    7  A    between atoms: CA_12  and  N_11 
REMARK    8  A    between atoms: C_13  and  CA_12 
REMARK    9  A    between atoms: CA_12  and  CB_15 
REMARK       I    between atoms: N_18  and  C_13 
REMARK   10  A    between atoms: CB_15  and  OG1_16 
REMARK   11  A    between atoms: CB_15  and  CG2_17 
REMARK   12  A    between atoms: C_20  and  CA_19 
REMARK       I    between atoms: N_25  and  C_20 
REMARK   13  A    between atoms: CA_26  and  N_25 
REMARK   14  A    between atoms: C_27  and  CA_26 
REMARK   15  A    between atoms: CA_26  and  CB_29 
REMARK       I    between atoms: N_40  and  C_27 
REMARK   16  A    between atoms: CB_29  and  CG1_30 
REMARK   17  A    between atoms: CB_29  and  CG2_31 
REMARK   18  A    between atoms: CE_33  and  CZ_32 
REMARK   19  A    between atoms: CD_34  and  CE_33 
REMARK   20  A    between atoms: OG_35  and  CD_34 
REMARK   21  A    between atoms: CB_36  and  OG_35 
REMARK   22  A    between atoms: CA_37  and  CB_36 
REMARK   23  A    between atoms: CA_37  and  C_38 
REMARK   24  A    between atoms: CA_37  and  N_40 
REMARK       I    between atoms: C_38  and  N_41 
REMARK   25  A    between atoms: N_41  and  CA_42 
REMARK   26  A    between atoms: CA_42  and  C_43 
REMARK   27  A    between atoms: CA_42  and  CB_45 
REMARK       I    between atoms: C_43  and  N_48 
REMARK   28  A    between atoms: CB_45  and  OG1_46 
REMARK   29  A    between atoms: CB_45  and  CG2_47 
REMARK   30  A    between atoms: N_48  and  CA_49 
REMARK   31  A    between atoms: CA_49  and  C_50 
REMARK   32  A    between atoms: CA_49  and  CB_52 
ROOT
ATOM      1  CA  VAL d   1     177.995 -42.035  21.461  0.00  0.00     0.092 C 
ATOM      2  H28 VAL d   1     177.969 -41.125  22.078  0.00  0.00     0.088 H 
ENDROOT
BRANCH   1   3
ATOM      3  N   VAL d   1     176.855 -42.924  21.716  0.00  0.00    -0.346 N 
ATOM      4  C   PRO d   1     175.986 -42.785  22.719  0.00  0.00     0.241 C 
ATOM      5  O   PRO d   1     175.986 -41.844  23.519  0.00  0.00    -0.271 OA
ATOM      6  H27 VAL d   1     176.719 -43.692  21.090  0.00  0.00     0.163 HD
BRANCH   4   7
ATOM      7  CA  PRO d   1     175.042 -43.812  22.772  0.00  0.00     0.091 C 
ATOM      8  N   PRO d   1     174.699 -44.234  24.182  0.00  0.00    -0.337 N 
ATOM      9  C   THR d   1     175.494 -44.931  25.015  0.00  0.00     0.245 C 
ATOM     10  CD  PRO d   1     173.323 -43.746  24.534  0.00  0.00    -0.001 C 
ATOM     11  O   THR d   1     176.597 -45.356  24.704  0.00  0.00    -0.271 OA
ATOM     12  CG  PRO d   1     172.866 -42.921  23.337  0.00  0.00    -0.048 C 
ATOM     13  H25 PRO d   1     173.356 -43.123  25.440  0.00  0.00     0.064 H 
ATOM     14  H26 PRO d   1     172.644 -44.596  24.697  0.00  0.00     0.064 H 
ATOM     15  CB  PRO d   1     173.732 -43.374  22.150  0.00  0.00    -0.036 C 
ATOM     16  H23 PRO d   1     171.803 -43.109  23.127  0.00  0.00     0.035 H 
ATOM     17  H24 PRO d   1     173.017 -41.849  23.532  0.00  0.00     0.035 H 
ATOM     18  H21 PRO d   1     173.255 -44.212  21.620  0.00  0.00     0.036 H 
ATOM     19  H22 PRO d   1     173.895 -42.542  21.449  0.00  0.00     0.036 H 
ATOM     20  H20 PRO d   1     175.443 -44.676  22.222  0.00  0.00     0.087 H 
BRANCH   9  21
ATOM     21  CA  THR d   1     174.897 -45.324  26.361  0.00  0.00     0.114 C 
ATOM     22  H14 THR d   1     173.974 -44.755  26.549  0.00  0.00     0.091 H 
BRANCH  21  23
ATOM     23  N   THR d   1     174.588 -46.736  26.129  0.00  0.00    -0.344 N 
ATOM     24  C   VAL d   1     173.337 -47.202  26.209  0.00  0.00     0.241 C 
ATOM     25  O   VAL d   1     172.396 -46.496  26.564  0.00  0.00    -0.271 OA
ATOM     26  H13 THR d   1     175.330 -47.367  25.905  0.00  0.00     0.163 HD
BRANCH  24  27
ATOM     27  CA  VAL d   1     173.120 -48.718  25.869  0.00  0.00     0.092 C 
ATOM     28  H5  VAL d   1     172.084 -48.776  25.503  0.00  0.00     0.088 H 
BRANCH  27  29
ATOM     29  N   VAL d   1     173.944 -49.177  24.654  0.00  0.00    -0.348 N 
ATOM     30  C   ACE d   1     175.193 -49.803  24.522  0.00  0.00     0.214 C 
ATOM     31  O   ACE d   1     175.951 -50.197  25.429  0.00  0.00    -0.274 OA
ATOM     32  H4  VAL d   1     173.498 -48.991  23.778  0.00  0.00     0.163 HD
BRANCH  30  33
ATOM     33  CH3 ACE d   1     175.631 -50.018  23.046  0.00  0.00    -0.003 C 
ATOM     34  H1  ACE d   1     174.859 -49.618  22.372  0.00  0.00     0.040 H 
ATOM     35  H2  ACE d   1     175.763 -51.093  22.855  0.00  0.00     0.040 H 
ATOM     36  H3  ACE d   1     176.582 -49.495  22.866  0.00  0.00     0.040 H 
ENDBRANCH  30  33
ENDBRANCH  27  29
BRANCH  27  37
ATOM     37  CB  VAL d   1     173.094 -49.614  27.184  0.00  0.00    -0.033 C 
ATOM     38  H6  VAL d   1     173.139 -50.664  26.858  0.00  0.00     0.042 H 
BRANCH  37  39
ATOM     39  CG1 VAL d   1     171.765 -49.395  27.940  0.00  0.00    -0.071 C 
ATOM     40  H7  VAL d   1     171.753 -50.017  28.848  0.00  0.00     0.028 H 
ATOM     41  H8  VAL d   1     170.923 -49.677  27.291  0.00  0.00     0.028 H 
ATOM     42  H9  VAL d   1     171.673 -48.335  28.220  0.00  0.00     0.028 H 
ENDBRANCH  37  39
BRANCH  37  43
ATOM     43  CG2 VAL d   1     174.270 -49.390  28.178  0.00  0.00    -0.071 C 
ATOM     44  H10 VAL d   1     175.226 -49.542  27.655  0.00  0.00     0.028 H 
ATOM     45  H11 VAL d   1     174.189 -50.106  29.009  0.00  0.00     0.028 H 
ATOM     46  H12 VAL d   1     174.227 -48.364  28.572  0.00  0.00     0.028 H 
ENDBRANCH  37  43
ENDBRANCH  27  37
ENDBRANCH  24  27
ENDBRANCH  21  23
BRANCH  21  47
ATOM     47  CB  THR d   1     175.848 -45.096  27.557  0.00  0.00     0.060 C 
ATOM     48  H15 THR d   1     175.270 -44.664  28.387  0.00  0.00     0.086 H 
BRANCH  47  49
ATOM     49  OG1 THR d   1     176.868 -44.176  27.167  0.00  0.00    -0.393 OA
ATOM     50  H16 THR d   1     177.353 -44.535  26.434  0.00  0.00     0.210 HD
ENDBRANCH  47  49
BRANCH  47  51
ATOM     51  CG2 THR d   1     176.498 -46.401  28.042  0.00  0.00    -0.050 C 
ATOM     52  H17 THR d   1     177.163 -46.186  28.891  0.00  0.00     0.031 H 
ATOM     53  H18 THR d   1     177.082 -46.846  27.223  0.00  0.00     0.031 H 
ATOM     54  H19 THR d   1     175.715 -47.105  28.359  0.00  0.00     0.031 H 
ENDBRANCH  47  51
ENDBRANCH  21  47
ENDBRANCH   9  21
ENDBRANCH   4   7
ENDBRANCH   1   3
BRANCH   1  55
ATOM     55  C   VAL d   1     178.078 -41.670  19.961  0.00  0.00     0.241 C 
ATOM     56  O   VAL d   1     177.507 -42.366  19.109  0.00  0.00    -0.271 OA
ATOM     57  N   SRZ d   1     178.823 -40.588  19.632  0.00  0.00    -0.344 N 
ATOM     58  H46 SRZ d   1     179.233 -40.031  20.354  0.00  0.00     0.163 HD
BRANCH  57  59
ATOM     59  CA  SRZ d   1     179.035 -40.223  18.211  0.00  0.00     0.110 C 
ATOM     60  H45 SRZ d   1     178.077 -40.273  17.673  0.00  0.00     0.090 H 
BRANCH  59  61
ATOM     61  CB  SRZ d   1     179.647 -38.823  18.015  0.00  0.00     0.046 C 
ATOM     62  H43 SRZ d   1     180.742 -38.919  17.982  0.00  0.00     0.078 H 
ATOM     63  H44 SRZ d   1     179.286 -38.411  17.061  0.00  0.00     0.078 H 
BRANCH  61  64
ATOM     64  OG  SRZ d   1     179.297 -37.920  19.066  0.00  0.00    -0.389 OA
BRANCH  64  65
ATOM     65  CD  SRZ d   1     179.347 -36.577  18.572  0.00  0.00     0.019 C 
ATOM     66  H41 SRZ d   1     180.315 -36.397  18.082  0.00  0.00     0.074 H 
ATOM     67  H42 SRZ d   1     178.534 -36.416  17.849  0.00  0.00     0.074 H 
BRANCH  65  68
ATOM     68  CE  SRZ d   1     179.181 -35.622  19.759  0.00  0.00    -0.049 C 
ATOM     69  H39 SRZ d   1     178.820 -34.649  19.395  0.00  0.00     0.035 H 
ATOM     70  H40 SRZ d   1     178.450 -36.043  20.465  0.00  0.00     0.035 H 
BRANCH  68  71
ATOM     71  CZ  SRZ d   1     180.528 -35.429  20.476  0.00  0.00    -0.075 C 
ATOM     72  H36 SRZ d   1     180.396 -34.742  21.325  0.00  0.00     0.027 H 
ATOM     73  H37 SRZ d   1     181.261 -35.006  19.773  0.00  0.00     0.027 H 
ATOM     74  H38 SRZ d   1     180.891 -36.401  20.843  0.00  0.00     0.027 H 
ENDBRANCH  68  71
ENDBRANCH  65  68
ENDBRANCH  64  65
ENDBRANCH  61  64
ENDBRANCH  59  61
BRANCH  59  75
ATOM     75  C   SRZ d   1     180.024 -41.261  17.652  0.00  0.00     0.243 C 
ATOM     76  O   SRZ d   1     181.143 -41.395  18.161  0.00  0.00    -0.271 OA
ATOM     77  N   THR d   1     179.591 -42.029  16.643  0.00  0.00    -0.344 N 
ATOM     78  H47 THR d   1     178.675 -41.892  16.267  0.00  0.00     0.163 HD
BRANCH  77  79
ATOM     79  CA  THR d   1     180.471 -43.079  16.087  0.00  0.00     0.113 C 
ATOM     80  H48 THR d   1     181.439 -43.051  16.609  0.00  0.00     0.091 H 
BRANCH  79  81
ATOM     81  C   THR d   1     180.716 -42.810  14.603  0.00  0.00     0.243 C 
ATOM     82  O   THR d   1     179.893 -42.161  13.969  0.00  0.00    -0.271 OA
ATOM     83  N   ALA d   1     181.872 -43.281  14.095  0.00  0.00    -0.347 N 
ATOM     84  H54 ALA d   1     182.472 -43.819  14.688  0.00  0.00     0.163 HD
BRANCH  83  85
ATOM     85  CA  ALA d   1     182.291 -43.036  12.696  0.00  0.00     0.073 C 
ATOM     86  H55 ALA d   1     182.197 -41.957  12.506  0.00  0.00     0.085 H 
BRANCH  85  87
ATOM     87  C   ALA d   1     181.424 -43.769  11.678  0.00  0.00     0.171 C 
ATOM     88  O   ALA d   1     181.121 -45.072  11.920  0.00  0.00    -0.175 OA
ATOM     89  N   NH2 d   1     181.053 -43.059  10.608  0.00  0.00    -0.379 N 
ATOM     90  H59 NH2 d   1     180.484 -43.480   9.902  0.00  0.00     0.158 HD
ATOM     91  H60 NH2 d   1     181.345 -42.107  10.514  0.00  0.00     0.158 HD
ENDBRANCH  85  87
BRANCH  85  92
ATOM     92  CB  ALA d   1     183.751 -43.436  12.485  0.00  0.00    -0.050 C 
ATOM     93  H56 ALA d   1     184.036 -43.244  11.440  0.00  0.00     0.030 H 
ATOM     94  H57 ALA d   1     183.874 -44.506  12.708  0.00  0.00     0.030 H 
ATOM     95  H58 ALA d   1     184.393 -42.845  13.155  0.00  0.00     0.030 H 
ENDBRANCH  85  92
ENDBRANCH  83  85
ENDBRANCH  79  81
BRANCH  79  96
ATOM     96  CB  THR d   1     179.827 -44.440  16.331  0.00  0.00     0.060 C 
ATOM     97  H49 THR d   1     180.315 -45.203  15.706  0.00  0.00     0.086 H 
BRANCH  96  98
ATOM     98  OG1 THR d   1     178.462 -44.321  15.982  0.00  0.00    -0.393 OA
ATOM     99  H50 THR d   1     178.027 -45.154  16.122  0.00  0.00     0.210 HD
ENDBRANCH  96  98
BRANCH  96 100
ATOM    100  CG2 THR d   1     179.938 -44.846  17.821  0.00  0.00    -0.050 C 
ATOM    101  H51 THR d   1     179.467 -45.829  17.969  0.00  0.00     0.031 H 
ATOM    102  H52 THR d   1     179.427 -44.097  18.444  0.00  0.00     0.031 H 
ATOM    103  H53 THR d   1     180.998 -44.901  18.108  0.00  0.00     0.031 H 
ENDBRANCH  96 100
ENDBRANCH  79  96
ENDBRANCH  77  79
ENDBRANCH  59  75
ENDBRANCH  57  59
ENDBRANCH   1  55
BRANCH   1 104
ATOM    104  CB  VAL d   1     179.143 -42.978  21.845  0.00  0.00    -0.033 C 
ATOM    105  H29 VAL d   1     178.955 -43.943  21.351  0.00  0.00     0.042 H 
BRANCH 104 106
ATOM    106  CG1 VAL d   1     179.140 -43.204  23.366  0.00  0.00    -0.071 C 
ATOM    107  H30 VAL d   1     179.964 -43.880  23.638  0.00  0.00     0.028 H 
ATOM    108  H31 VAL d   1     178.182 -43.653  23.668  0.00  0.00     0.028 H 
ATOM    109  H32 VAL d   1     179.272 -42.240  23.880  0.00  0.00     0.028 H 
ENDBRANCH 104 106
BRANCH 104 110
ATOM    110  CG2 VAL d   1     180.530 -42.496  21.399  0.00  0.00    -0.071 C 
ATOM    111  H33 VAL d   1     180.530 -42.335  20.311  0.00  0.00     0.028 H 
ATOM    112  H34 VAL d   1     181.283 -43.255  21.657  0.00  0.00     0.028 H 
ATOM    113  H35 VAL d   1     180.772 -41.552  21.909  0.00  0.00     0.028 H 
ENDBRANCH 104 110
ENDBRANCH   1 104
TORSDOF 32
