REMARK  3 active torsions:
REMARK  status: ('A' for Active; 'I' for Inactive)
REMARK    1  A    between atoms: N_3  and  C_4 
REMARK    2  A    between atoms: C17_6  and  O2_7 
REMARK    3  A    between atoms: C15_9  and  O1_10 
ROOT
ATOM      1  O3  7FK d   1      19.883  -1.918  -6.175  0.00  0.00    -0.267 OA
ATOM      2  C19 7FK d   1      18.963  -2.707  -6.014  0.00  0.00     0.256 C 
ATOM      3  N   7FK d   1      17.946  -2.852  -6.886  0.00  0.00    -0.352 N 
ATOM      4  C18 7FK d   1      19.006  -3.592  -4.795  0.00  0.00     0.073 A 
ATOM      5  C17 7FK d   1      19.940  -4.666  -4.757  0.00  0.00     0.084 A 
ATOM      6  C16 7FK d   1      19.999  -5.518  -3.669  0.00  0.00    -0.016 A 
ATOM      7  C15 7FK d   1      19.150  -5.314  -2.596  0.00  0.00     0.090 A 
ATOM      8  C14 7FK d   1      18.258  -4.220  -2.652  0.00  0.00     0.075 A 
ATOM      9 CL   7FK d   1      17.323  -3.973  -1.243  0.00  0.00    -0.081 Cl
ATOM     10  C13 7FK d   1      18.124  -3.346  -3.724  0.00  0.00    -0.008 A 
ATOM     11  C12 7FK d   1      17.116  -2.210  -3.755  0.00  0.00     0.017 C 
ATOM     12  C11 7FK d   1      15.676  -2.626  -3.533  0.00  0.00     0.131 C 
ATOM     13  O   7FK d   1      15.263  -3.674  -3.972  0.00  0.00    -0.298 OA
ATOM     14  C10 7FK d   1      14.795  -1.711  -2.725  0.00  0.00    -0.009 C 
ATOM     15  C9  7FK d   1      13.310  -2.037  -2.737  0.00  0.00    -0.059 C 
ATOM     16  C8  7FK d   1      12.579  -1.147  -3.691  0.00  0.00    -0.065 C 
ATOM     17  C7  7FK d   1      12.950  -1.433  -5.137  0.00  0.00    -0.065 C 
ATOM     18  C6  7FK d   1      12.495  -0.406  -6.157  0.00  0.00    -0.062 C 
ATOM     19  C5  7FK d   1      12.893  -0.818  -7.578  0.00  0.00    -0.050 C 
ATOM     20  C4  7FK d   1      14.322  -0.434  -7.883  0.00  0.00    -0.106 C 
ATOM     21  C3  7FK d   1      15.407  -1.041  -7.410  0.00  0.00    -0.105 C 
ATOM     22  C2  7FK d   1      16.854  -0.674  -7.669  0.00  0.00    -0.035 C 
ATOM     23  C1  7FK d   1      17.748  -1.884  -7.965  0.00  0.00     0.000 C 
ATOM     24  H   7FK d   1      20.706  -6.340  -3.657  0.00  0.00     0.092 H 
ATOM     25  H   7FK d   1      17.182  -1.722  -4.738  0.00  0.00     0.051 H 
ATOM     26  H   7FK d   1      17.388  -1.490  -2.969  0.00  0.00     0.051 H 
ATOM     27  H   7FK d   1      14.919  -0.691  -3.117  0.00  0.00     0.044 H 
ATOM     28  H   7FK d   1      15.139  -1.747  -1.681  0.00  0.00     0.044 H 
ATOM     29  H   7FK d   1      12.901  -1.895  -1.726  0.00  0.00     0.033 H 
ATOM     30  H   7FK d   1      13.173  -3.084  -3.044  0.00  0.00     0.033 H 
ATOM     31  H   7FK d   1      12.828  -0.100  -3.461  0.00  0.00     0.033 H 
ATOM     32  H   7FK d   1      11.498  -1.303  -3.565  0.00  0.00     0.033 H 
ATOM     33  H   7FK d   1      12.506  -2.401  -5.413  0.00  0.00     0.033 H 
ATOM     34  H   7FK d   1      14.046  -1.502  -5.196  0.00  0.00     0.033 H 
ATOM     35  H   7FK d   1      12.960   0.563  -5.922  0.00  0.00     0.033 H 
ATOM     36  H   7FK d   1      11.400  -0.310  -6.105  0.00  0.00     0.033 H 
ATOM     37  H   7FK d   1      12.227  -0.317  -8.296  0.00  0.00     0.038 H 
ATOM     38  H   7FK d   1      12.786  -1.908  -7.678  0.00  0.00     0.038 H 
ATOM     39  H   7FK d   1      14.477   0.414  -8.548  0.00  0.00     0.076 H 
ATOM     40  H   7FK d   1      15.236  -1.900  -6.763  0.00  0.00     0.076 H 
ATOM     41  H   7FK d   1      17.247  -0.160  -6.780  0.00  0.00     0.041 H 
ATOM     42  H   7FK d   1      16.892   0.006  -8.533  0.00  0.00     0.041 H 
ATOM     43  H   7FK d   1      17.304  -2.423  -8.815  0.00  0.00     0.064 H 
ATOM     44  H   7FK d   1      18.739  -1.501  -8.251  0.00  0.00     0.064 H 
ENDROOT
BRANCH   3  45
ATOM     45  C   7FK d   1      16.946  -3.922  -6.761  0.00  0.00    -0.016 C 
ATOM     46  H   7FK d   1      16.218  -3.841  -7.581  0.00  0.00     0.056 H 
ATOM     47  H   7FK d   1      16.425  -3.826  -5.797  0.00  0.00     0.056 H 
ATOM     48  H   7FK d   1      17.447  -4.900  -6.811  0.00  0.00     0.056 H 
ENDBRANCH   3  45
BRANCH   5  49
ATOM     49  O2  7FK d   1      20.751  -4.869  -5.799  0.00  0.00    -0.360 OA
ATOM     50  H   7FK d   1      21.310  -5.616  -5.623  0.00  0.00     0.217 HD
ENDBRANCH   5  49
BRANCH   7  51
ATOM     51  O1  7FK d   1      19.119  -6.156  -1.535  0.00  0.00    -0.359 OA
ATOM     52  H   7FK d   1      18.883  -7.027  -1.831  0.00  0.00     0.217 HD
ENDBRANCH   7  51
TORSDOF 3
