REMARK  3 active torsions:
REMARK  status: ('A' for Active; 'I' for Inactive)
REMARK    1  A    between atoms: N_3  and  C_4 
REMARK    2  A    between atoms: C16_6  and  O2_7 
REMARK    3  A    between atoms: C14_9  and  O1_10 
ROOT
ATOM      1  O3  BO5 d   1      19.977  -2.066  -6.407  0.00  0.00    -0.267 OA
ATOM      2  C18 BO5 d   1      19.024  -2.765  -6.127  0.00  0.00     0.256 C 
ATOM      3  N   BO5 d   1      17.921  -2.835  -6.898  0.00  0.00    -0.352 N 
ATOM      4  C17 BO5 d   1      19.138  -3.622  -4.883  0.00  0.00     0.073 A 
ATOM      5  C16 BO5 d   1      20.106  -4.669  -4.910  0.00  0.00     0.084 A 
ATOM      6  C15 BO5 d   1      20.225  -5.552  -3.847  0.00  0.00    -0.016 A 
ATOM      7  C14 BO5 d   1      19.402  -5.429  -2.744  0.00  0.00     0.090 A 
ATOM      8  C13 BO5 d   1      18.489  -4.411  -2.700  0.00  0.00     0.075 A 
ATOM      9 CL   BO5 d   1      17.491  -4.336  -1.301  0.00  0.00    -0.081 Cl
ATOM     10  C12 BO5 d   1      18.323  -3.489  -3.732  0.00  0.00    -0.008 A 
ATOM     11  C11 BO5 d   1      17.285  -2.407  -3.517  0.00  0.00     0.017 C 
ATOM     12  C10 BO5 d   1      15.883  -2.946  -3.327  0.00  0.00     0.131 C 
ATOM     13  O   BO5 d   1      15.575  -4.031  -3.770  0.00  0.00    -0.298 OA
ATOM     14  C9  BO5 d   1      14.907  -2.109  -2.541  0.00  0.00    -0.009 C 
ATOM     15  C8  BO5 d   1      13.587  -1.827  -3.227  0.00  0.00    -0.059 C 
ATOM     16  C7  BO5 d   1      13.725  -0.854  -4.371  0.00  0.00    -0.064 C 
ATOM     17  C6  BO5 d   1      13.007  -1.280  -5.655  0.00  0.00    -0.062 C 
ATOM     18  C5  BO5 d   1      13.257  -0.348  -6.842  0.00  0.00    -0.050 C 
ATOM     19  C4  BO5 d   1      14.728  -0.181  -7.015  0.00  0.00    -0.106 C 
ATOM     20  C3  BO5 d   1      15.512  -0.938  -7.708  0.00  0.00    -0.105 C 
ATOM     21  C2  BO5 d   1      16.975  -0.761  -7.815  0.00  0.00    -0.035 C 
ATOM     22  C1  BO5 d   1      17.796  -2.016  -8.106  0.00  0.00     0.000 C 
ATOM     23  H   BO5 d   1      20.967  -6.342  -3.882  0.00  0.00     0.092 H 
ATOM     24  H   BO5 d   1      17.287  -1.743  -4.394  0.00  0.00     0.051 H 
ATOM     25  H   BO5 d   1      17.561  -1.832  -2.621  0.00  0.00     0.051 H 
ATOM     26  H   BO5 d   1      15.388  -1.144  -2.322  0.00  0.00     0.044 H 
ATOM     27  H   BO5 d   1      14.693  -2.634  -1.598  0.00  0.00     0.044 H 
ATOM     28  H   BO5 d   1      12.889  -1.406  -2.489  0.00  0.00     0.033 H 
ATOM     29  H   BO5 d   1      13.183  -2.773  -3.616  0.00  0.00     0.033 H 
ATOM     30  H   BO5 d   1      14.795  -0.739  -4.598  0.00  0.00     0.033 H 
ATOM     31  H   BO5 d   1      13.312   0.114  -4.051  0.00  0.00     0.033 H 
ATOM     32  H   BO5 d   1      11.925  -1.305  -5.455  0.00  0.00     0.033 H 
ATOM     33  H   BO5 d   1      13.353  -2.288  -5.927  0.00  0.00     0.033 H 
ATOM     34  H   BO5 d   1      12.793   0.631  -6.649  0.00  0.00     0.038 H 
ATOM     35  H   BO5 d   1      12.824  -0.785  -7.754  0.00  0.00     0.038 H 
ATOM     36  H   BO5 d   1      15.188   0.664  -6.506  0.00  0.00     0.076 H 
ATOM     37  H   BO5 d   1      15.062  -1.767  -8.253  0.00  0.00     0.076 H 
ATOM     38  H   BO5 d   1      17.331  -0.343  -6.862  0.00  0.00     0.041 H 
ATOM     39  H   BO5 d   1      17.166  -0.042  -8.625  0.00  0.00     0.041 H 
ATOM     40  H   BO5 d   1      17.296  -2.602  -8.891  0.00  0.00     0.064 H 
ATOM     41  H   BO5 d   1      18.799  -1.722  -8.450  0.00  0.00     0.064 H 
ENDROOT
BRANCH   3  42
ATOM     42  C   BO5 d   1      16.834  -3.786  -6.638  0.00  0.00    -0.016 C 
ATOM     43  H   BO5 d   1      16.046  -3.658  -7.395  0.00  0.00     0.056 H 
ATOM     44  H   BO5 d   1      16.416  -3.600  -5.638  0.00  0.00     0.056 H 
ATOM     45  H   BO5 d   1      17.226  -4.813  -6.687  0.00  0.00     0.056 H 
ENDBRANCH   3  42
BRANCH   5  46
ATOM     46  O2  BO5 d   1      20.927  -4.839  -5.988  0.00  0.00    -0.360 OA
ATOM     47  H   BO5 d   1      21.503  -5.579  -5.833  0.00  0.00     0.217 HD
ENDBRANCH   5  46
BRANCH   7  48
ATOM     48  O1  BO5 d   1      19.443  -6.314  -1.703  0.00  0.00    -0.359 OA
ATOM     49  H   BO5 d   1      19.240  -7.186  -2.022  0.00  0.00     0.217 HD
ENDBRANCH   7  48
TORSDOF 3
