REMARK  3 active torsions:
REMARK  status: ('A' for Active; 'I' for Inactive)
REMARK    1  A    between atoms: C3_3  and  O3_19 
REMARK    2  A    between atoms: C5_5  and  O4_20 
REMARK    3  A    between atoms: N_24  and  C18_17 
ROOT
ATOM      1  C1  L4V d   1      18.944  -2.554  -6.110  0.00  0.00     0.256 C 
ATOM      2  C2  L4V d   1      19.014  -3.465  -4.900  0.00  0.00     0.073 A 
ATOM      3  C3  L4V d   1      19.893  -4.575  -4.878  0.00  0.00     0.084 A 
ATOM      4  C4  L4V d   1      19.929  -5.445  -3.803  0.00  0.00    -0.016 A 
ATOM      5  C5  L4V d   1      19.111  -5.227  -2.712  0.00  0.00     0.090 A 
ATOM      6  C6  L4V d   1      18.273  -4.134  -2.708  0.00  0.00     0.075 A 
ATOM      7  C7  L4V d   1      18.183  -3.242  -3.774  0.00  0.00    -0.008 A 
ATOM      8  C8  L4V d   1      17.172  -2.115  -3.695  0.00  0.00     0.017 C 
ATOM      9  C9  L4V d   1      15.729  -2.573  -3.793  0.00  0.00     0.131 C 
ATOM     10  C10 L4V d   1      14.645  -1.713  -3.199  0.00  0.00    -0.009 C 
ATOM     11  C11 L4V d   1      14.061  -0.673  -4.143  0.00  0.00    -0.056 C 
ATOM     12  C12 L4V d   1      13.167  -1.246  -5.239  0.00  0.00    -0.050 C 
ATOM     13  C13 L4V d   1      13.025  -0.271  -6.379  0.00  0.00    -0.107 C 
ATOM     14  C14 L4V d   1      13.795  -0.158  -7.461  0.00  0.00    -0.106 C 
ATOM     15  C15 L4V d   1      14.988  -0.998  -7.852  0.00  0.00    -0.049 C 
ATOM     16  C16 L4V d   1      16.309  -0.653  -7.149  0.00  0.00    -0.047 C 
ATOM     17  O2  L4V d   1      19.905  -1.831  -6.325  0.00  0.00    -0.267 OA
ATOM     18 CL1  L4V d   1      17.323  -3.912  -1.294  0.00  0.00    -0.081 Cl
ATOM     19  C17 L4V d   1      17.471  -1.453  -7.730  0.00  0.00    -0.002 C 
ATOM     20  O5  L4V d   1      15.456  -3.628  -4.322  0.00  0.00    -0.298 OA
ATOM     21  N   L4V d   1      17.871  -2.607  -6.923  0.00  0.00    -0.352 N 
ATOM     22  H   L4V d   1      20.599  -6.297  -3.817  0.00  0.00     0.092 H 
ATOM     23  H   L4V d   1      17.369  -1.415  -4.520  0.00  0.00     0.051 H 
ATOM     24  H   L4V d   1      17.306  -1.597  -2.734  0.00  0.00     0.051 H 
ATOM     25  H   L4V d   1      15.065  -1.187  -2.329  0.00  0.00     0.044 H 
ATOM     26  H   L4V d   1      13.828  -2.372  -2.870  0.00  0.00     0.044 H 
ATOM     27  H   L4V d   1      14.894  -0.138  -4.623  0.00  0.00     0.034 H 
ATOM     28  H   L4V d   1      13.465   0.035  -3.548  0.00  0.00     0.034 H 
ATOM     29  H   L4V d   1      12.172  -1.457  -4.819  0.00  0.00     0.038 H 
ATOM     30  H   L4V d   1      13.612  -2.179  -5.616  0.00  0.00     0.038 H 
ATOM     31  H   L4V d   1      12.191   0.426  -6.311  0.00  0.00     0.076 H 
ATOM     32  H   L4V d   1      13.530   0.642  -8.151  0.00  0.00     0.076 H 
ATOM     33  H   L4V d   1      15.142  -0.882  -8.935  0.00  0.00     0.038 H 
ATOM     34  H   L4V d   1      14.750  -2.048  -7.626  0.00  0.00     0.038 H 
ATOM     35  H   L4V d   1      16.216  -0.883  -6.077  0.00  0.00     0.035 H 
ATOM     36  H   L4V d   1      16.513   0.420  -7.277  0.00  0.00     0.035 H 
ATOM     37  H   L4V d   1      18.338  -0.782  -7.825  0.00  0.00     0.064 H 
ATOM     38  H   L4V d   1      17.176  -1.815  -8.726  0.00  0.00     0.064 H 
ENDROOT
BRANCH  21  39
ATOM     39  C18 L4V d   1      17.056  -3.813  -7.070  0.00  0.00    -0.016 C 
ATOM     40  H   L4V d   1      16.240  -3.620  -7.782  0.00  0.00     0.056 H 
ATOM     41  H   L4V d   1      16.632  -4.090  -6.094  0.00  0.00     0.056 H 
ATOM     42  H   L4V d   1      17.683  -4.636  -7.445  0.00  0.00     0.056 H 
ENDBRANCH  21  39
BRANCH   3  43
ATOM     43  O3  L4V d   1      20.765  -4.784  -5.886  0.00  0.00    -0.360 OA
ATOM     44  H   L4V d   1      21.653  -4.730  -5.552  0.00  0.00     0.217 HD
ENDBRANCH   3  43
BRANCH   5  45
ATOM     45  O4  L4V d   1      19.089  -6.100  -1.675  0.00  0.00    -0.359 OA
ATOM     46  H   L4V d   1      19.721  -6.792  -1.831  0.00  0.00     0.217 HD
ENDBRANCH   5  45
TORSDOF 3
