REMARK  6 active torsions:
REMARK  status: ('A' for Active; 'I' for Inactive)
REMARK    1  A    between atoms: N7_4  and  C1_8 
REMARK    2  A    between atoms: C2_7  and  C7_9 
REMARK    3  A    between atoms: C23_17  and  O25_18 
REMARK    4  A    between atoms: O25_18  and  C26_19 
REMARK    5  A    between atoms: C29_22  and  C32_25 
REMARK    6  A    between atoms: C30_23  and  C18_29 
ROOT
ATOM      1  C7  992 d   1     513.501  44.3401048.542  0.00  0.00    -0.002 A 
ATOM      2  C10 992 d   1     514.826  44.0271048.911  0.00  0.00     0.047 A 
ATOM      3  C11 992 d   1     515.795  43.7951047.916  0.00  0.00    -0.031 A 
ATOM      4  C12 992 d   1     515.451  43.8631046.564  0.00  0.00     0.089 A 
ATOM      5  C13 992 d   1     514.107  44.1741046.198  0.00  0.00     0.065 A 
ATOM      6  C14 992 d   1     513.158  44.4051047.187  0.00  0.00    -0.042 A 
ATOM      7  N21 992 d   1     516.153  43.6911045.397  0.00  0.00    -0.206 NA
ATOM      8  N22 992 d   1     514.045  44.1781044.811  0.00  0.00    -0.318 N 
ATOM      9  C23 992 d   1     515.270  43.8911044.426  0.00  0.00     0.252 A 
ATOM     10 CL1  992 d   1     515.279  43.9371050.584  0.00  0.00    -0.083 Cl
ATOM     11  H7  992 d   1     516.815  43.5621048.201  0.00  0.00     0.089 H 
ATOM     12  H8  992 d   1     512.138  44.6391046.905  0.00  0.00     0.088 H 
ATOM     13  H9  992 d   1     513.224  44.3641044.217  0.00  0.00     0.169 HD
ENDROOT
BRANCH   1  14
ATOM     14  C2  992 d   1     512.433  44.5861049.582  0.00  0.00    -0.023 A 
ATOM     15  C21 992 d   1     512.526  45.6401050.501  0.00  0.00    -0.060 A 
ATOM     16  C6  992 d   1     511.486  45.8111051.452  0.00  0.00    -0.007 A 
ATOM     17  H1  992 d   1     513.376  46.3121050.486  0.00  0.00     0.086 H 
ATOM     18  C5  992 d   1     510.360  44.9361051.470  0.00  0.00     0.044 A 
ATOM     19  C8  992 d   1     511.299  46.7571052.486  0.00  0.00    -0.056 A 
ATOM     20  N7  992 d   1     509.562  45.3841052.495  0.00  0.00    -0.360 N 
ATOM     21  C4  992 d   1     510.295  43.8961050.533  0.00  0.00    -0.055 A 
ATOM     22  C9  992 d   1     510.094  46.4371053.092  0.00  0.00    -0.020 A 
ATOM     23  H17 992 d   1     509.653  46.9711053.932  0.00  0.00     0.111 H 
ATOM     24  C3  992 d   1     511.337  43.7441049.610  0.00  0.00    -0.070 A 
ATOM     25  H2  992 d   1     509.449  43.2181050.523  0.00  0.00     0.087 H 
ATOM     26  H3  992 d   1     511.282  42.9351048.890  0.00  0.00     0.084 H 
ATOM     27  H16 992 d   1     511.968  47.5741052.753  0.00  0.00     0.086 H 
BRANCH  20  28
ATOM     28  C1  992 d   1     508.298  44.7731052.867  0.00  0.00    -0.014 C 
ATOM     29  H4  992 d   1     507.861  45.3211053.715  0.00  0.00     0.057 H 
ATOM     30  H5  992 d   1     508.468  43.7251053.156  0.00  0.00     0.057 H 
ATOM     31  H6  992 d   1     507.607  44.8101052.012  0.00  0.00     0.057 H 
ENDBRANCH  20  28
ENDBRANCH   1  14
BRANCH   9  32
ATOM     32  O25 992 d   1     515.638  43.7911043.074  0.00  0.00    -0.278 OA
BRANCH  32  33
ATOM     33  C26 992 d   1     514.814  44.5711042.242  0.00  0.00     0.080 A 
ATOM     34  C27 992 d   1     515.081  45.8971042.055  0.00  0.00    -0.050 A 
ATOM     35  C28 992 d   1     514.287  46.6711041.234  0.00  0.00    -0.074 A 
ATOM     36  H10 992 d   1     515.928  46.3481042.559  0.00  0.00     0.087 H 
ATOM     37  C29 992 d   1     513.179  46.1101040.563  0.00  0.00    -0.045 A 
ATOM     38  H11 992 d   1     514.517  47.7221041.102  0.00  0.00     0.084 H 
ATOM     39  C30 992 d   1     512.898  44.7171040.753  0.00  0.00     0.049 A 
ATOM     40  C31 992 d   1     513.735  43.9741041.596  0.00  0.00    -0.033 A 
ATOM     41  H12 992 d   1     513.539  42.9191041.747  0.00  0.00     0.089 H 
BRANCH  37  42
ATOM     42  C32 992 d   1     512.308  46.9601039.664  0.00  0.00    -0.050 C 
ATOM     43  H13 992 d   1     512.689  47.9921039.653  0.00  0.00     0.033 H 
ATOM     44  H14 992 d   1     511.275  46.9551040.042  0.00  0.00     0.033 H 
ATOM     45  H15 992 d   1     512.327  46.5521038.643  0.00  0.00     0.033 H 
ENDBRANCH  37  42
BRANCH  39  46
ATOM     46  C18 992 d   1     511.754  44.0741040.079  0.00  0.00     0.210 C 
ATOM     47  O19 992 d   1     510.640  43.9821040.672  0.00  0.00    -0.644 OA
ATOM     48  O20 992 d   1     511.891  43.6221038.927  0.00  0.00    -0.644 OA
ENDBRANCH  39  46
ENDBRANCH  32  33
ENDBRANCH   9  32
TORSDOF 6
