REMARK  5 active torsions:
REMARK  status: ('A' for Active; 'I' for Inactive)
REMARK    1  A    between atoms: OAD_1  and  CAT_2 
REMARK    2  A    between atoms: CAX_7  and  OAB_8 
REMARK    3  A    between atoms: CAW_13  and  CAS_14 
REMARK    4  A    between atoms: CAR_19  and  CAV_20 
REMARK    5  A    between atoms: CAQ_25  and  OAC_26 
ROOT
ATOM      1  CAT C1V d   1     -59.852 -14.559 145.968  0.00  0.00     0.104 A 
ATOM      2  CAZ C1V d   1     -58.778 -13.862 145.306  0.00  0.00     0.046 A 
ATOM      3  CAU C1V d   1     -59.734 -14.740 147.385  0.00  0.00     0.131 A 
ATOM      4  CAE C1V d   1     -60.740 -15.444 148.277  0.00  0.00     0.107 C 
ATOM      5  NAA C1V d   1     -61.445 -15.961 149.011  0.00  0.00    -0.191 NA
ATOM      6  CAX C1V d   1     -58.602 -14.238 148.033  0.00  0.00     0.187 A 
ATOM      7  NAO C1V d   1     -57.647 -13.604 147.373  0.00  0.00    -0.215 NA
ATOM      8  CAY C1V d   1     -57.692 -13.399 146.052  0.00  0.00     0.114 A 
ATOM      9  SAP C1V d   1     -56.618 -12.629 144.981  0.00  0.00    -0.080 SA
ATOM     10  CAN C1V d   1     -57.475 -12.846 143.543  0.00  0.00    -0.031 A 
ATOM     11  CAW C1V d   1     -58.654 -13.536 143.845  0.00  0.00    -0.003 A 
ATOM     12  H3  C1V d   1     -57.165 -12.509 142.555  0.00  0.00     0.096 H 
ENDROOT
BRANCH   1  13
ATOM     13  OAD C1V d   1     -60.962 -15.040 145.259  0.00  0.00    -0.358 OA
ATOM     14  H1  C1V d   1     -61.560 -15.468 145.861  0.00  0.00     0.217 HD
ENDBRANCH   1  13
BRANCH   6  15
ATOM     15  OAB C1V d   1     -58.481 -14.413 149.419  0.00  0.00    -0.344 OA
ATOM     16  H2  C1V d   1     -59.240 -14.882 149.745  0.00  0.00     0.219 HD
ENDBRANCH   6  15
BRANCH  11  17
ATOM     17  CAS C1V d   1     -59.650 -13.891 142.711  0.00  0.00    -0.024 A 
ATOM     18  CAL C1V d   1     -59.287 -14.869 141.790  0.00  0.00    -0.071 A 
ATOM     19  CAJ C1V d   1     -60.147 -15.205 140.741  0.00  0.00    -0.071 A 
ATOM     20  H4  C1V d   1     -58.332 -15.373 141.887  0.00  0.00     0.084 H 
ATOM     21  CAR C1V d   1     -61.376 -14.558 140.619  0.00  0.00    -0.023 A 
ATOM     22  H5  C1V d   1     -59.860 -15.966 140.025  0.00  0.00     0.084 H 
ATOM     23  CAI C1V d   1     -61.734 -13.571 141.528  0.00  0.00    -0.071 A 
ATOM     24  CAK C1V d   1     -60.865 -13.231 142.578  0.00  0.00    -0.071 A 
ATOM     25  H7  C1V d   1     -62.686 -13.062 141.427  0.00  0.00     0.084 H 
ATOM     26  H6  C1V d   1     -61.142 -12.455 143.283  0.00  0.00     0.084 H 
BRANCH  21  27
ATOM     27  CAV C1V d   1     -62.326 -14.928 139.453  0.00  0.00     0.007 A 
ATOM     28  CAM C1V d   1     -62.714 -13.923 138.585  0.00  0.00    -0.070 A 
ATOM     29  CAG C1V d   1     -63.561 -14.206 137.525  0.00  0.00    -0.082 A 
ATOM     30  H8  C1V d   1     -62.355 -12.911 138.734  0.00  0.00     0.085 H 
ATOM     31  CAF C1V d   1     -64.017 -15.503 137.331  0.00  0.00    -0.080 A 
ATOM     32  H9  C1V d   1     -63.867 -13.416 136.849  0.00  0.00     0.083 H 
ATOM     33  CAH C1V d   1     -63.624 -16.511 138.199  0.00  0.00    -0.050 A 
ATOM     34  H10 C1V d   1     -64.679 -15.727 136.502  0.00  0.00     0.083 H 
ATOM     35  CAQ C1V d   1     -62.781 -16.229 139.259  0.00  0.00     0.076 A 
ATOM     36  H11 C1V d   1     -63.979 -17.524 138.046  0.00  0.00     0.087 H 
BRANCH  35  37
ATOM     37  OAC C1V d   1     -62.390 -17.270 140.135  0.00  0.00    -0.360 OA
ATOM     38  H12 C1V d   1     -61.932 -17.941 139.643  0.00  0.00     0.217 HD
ENDBRANCH  35  37
ENDBRANCH  21  27
ENDBRANCH  11  17
TORSDOF 5
