REMARK  6 active torsions:
REMARK  status: ('A' for Active; 'I' for Inactive)
REMARK    1  A    between atoms: CAT_6  and  CAS_7 
REMARK    2  A    between atoms: CAS_7  and  O6_8 
REMARK    3  A    between atoms: O6_8  and  C6_9 
REMARK    4  A    between atoms: C2_11  and  N2_12 
REMARK    5  A    between atoms: C8_18  and  CAJ_19 
REMARK    6  A    between atoms: CAO_24  and  CAP_25 
ROOT
ATOM      1  C6  4QE d   1      -7.892 -21.975  23.233  0.00  0.00     0.216 A 
ATOM      2  N1  4QE d   1      -9.191 -21.640  23.216  0.00  0.00    -0.036 NA
ATOM      3  C2  4QE d   1     -10.055 -22.358  23.941  0.00  0.00     0.724 A 
ATOM      4  N3  4QE d   1      -9.642 -23.398  24.671  0.00  0.00    -0.043 NA
ATOM      5  C4  4QE d   1      -8.361 -23.732  24.692  0.00  0.00     0.182 A 
ATOM      6  N4  4QE d   1      -7.760 -24.714  25.339  0.00  0.00    -0.322 N 
ATOM      7  C5  4QE d   1      -7.466 -23.031  23.977  0.00  0.00     0.159 A 
ATOM      8  N7  4QE d   1      -6.276 -23.601  24.193  0.00  0.00    -0.222 NA
ATOM      9  C8  4QE d   1      -6.476 -24.640  25.026  0.00  0.00     0.141 A 
ATOM     10  H   4QE d   1      -8.203 -25.402  25.964  0.00  0.00     0.169 HD
ENDROOT
BRANCH   1  11
ATOM     11  O6  4QE d   1      -7.001 -21.228  22.498  0.00  0.00    -0.332 OA
BRANCH  11  12
ATOM     12  CAS 4QE d   1      -6.266 -22.055  21.628  0.00  0.00     0.031 C 
ATOM     13  H   4QE d   1      -5.406 -22.482  22.164  0.00  0.00     0.075 H 
ATOM     14  H   4QE d   1      -6.910 -22.868  21.261  0.00  0.00     0.075 H 
BRANCH  12  15
ATOM     15  CAT 4QE d   1      -5.784 -21.244  20.478  0.00  0.00    -0.033 C 
ATOM     16  CAU 4QE d   1      -4.702 -20.302  21.016  0.00  0.00    -0.060 C 
ATOM     17  CAV 4QE d   1      -3.831 -19.798  19.945  0.00  0.00    -0.065 C 
ATOM     18  H   4QE d   1      -5.188 -19.448  21.510  0.00  0.00     0.033 H 
ATOM     19  H   4QE d   1      -4.087 -20.848  21.747  0.00  0.00     0.033 H 
ATOM     20  CAW 4QE d   1      -3.167 -20.996  19.267  0.00  0.00    -0.065 C 
ATOM     21  H   4QE d   1      -3.062 -19.137  20.371  0.00  0.00     0.033 H 
ATOM     22  H   4QE d   1      -4.429 -19.239  19.211  0.00  0.00     0.033 H 
ATOM     23  CAX 4QE d   1      -4.236 -21.733  18.501  0.00  0.00    -0.065 C 
ATOM     24  H   4QE d   1      -2.724 -21.659  20.025  0.00  0.00     0.033 H 
ATOM     25  H   4QE d   1      -2.382 -20.650  18.578  0.00  0.00     0.033 H 
ATOM     26  CAY 4QE d   1      -5.253 -22.292  19.468  0.00  0.00    -0.060 C 
ATOM     27  H   4QE d   1      -3.779 -22.557  17.933  0.00  0.00     0.033 H 
ATOM     28  H   4QE d   1      -4.733 -21.040  17.806  0.00  0.00     0.033 H 
ATOM     29  H   4QE d   1      -4.784 -23.112  20.031  0.00  0.00     0.033 H 
ATOM     30  H   4QE d   1      -6.104 -22.683  18.891  0.00  0.00     0.033 H 
ATOM     31  H   4QE d   1      -6.597 -20.657  20.026  0.00  0.00     0.043 H 
ENDBRANCH  12  15
ENDBRANCH  11  12
ENDBRANCH   1  11
BRANCH   3  32
ATOM     32  N2  4QE d   1     -11.334 -22.048  23.939  0.00  0.00    -0.231 N 
ATOM     33  H   4QE d   1     -11.669 -21.249  23.382  0.00  0.00     0.174 HD
ATOM     34  H   4QE d   1     -12.000 -22.604  24.495  0.00  0.00     0.174 HD
ENDBRANCH   3  32
BRANCH   9  35
ATOM     35  CAJ 4QE d   1      -5.533 -25.488  25.495  0.00  0.00     0.016 A 
ATOM     36  CAK 4QE d   1      -5.572 -25.908  26.834  0.00  0.00    -0.069 A 
ATOM     37  CAL 4QE d   1      -4.604 -26.773  27.357  0.00  0.00    -0.082 A 
ATOM     38  H   4QE d   1      -6.370 -25.554  27.477  0.00  0.00     0.085 H 
ATOM     39  CAM 4QE d   1      -3.589 -27.253  26.532  0.00  0.00    -0.082 A 
ATOM     40  H   4QE d   1      -4.644 -27.068  28.399  0.00  0.00     0.083 H 
ATOM     41  CAN 4QE d   1      -3.538 -26.857  25.194  0.00  0.00    -0.076 A 
ATOM     42  H   4QE d   1      -2.842 -27.931  26.927  0.00  0.00     0.083 H 
ATOM     43  CAO 4QE d   1      -4.504 -25.983  24.671  0.00  0.00    -0.048 A 
ATOM     44  H   4QE d   1      -2.746 -27.228  24.554  0.00  0.00     0.084 H 
BRANCH  43  45
ATOM     45  CAP 4QE d   1      -4.390 -25.609  23.329  0.00  0.00    -0.050 C 
ATOM     46  H   4QE d   1      -5.213 -24.927  23.067  0.00  0.00     0.033 H 
ATOM     47  H   4QE d   1      -4.440 -26.505  22.693  0.00  0.00     0.033 H 
ATOM     48  H   4QE d   1      -3.428 -25.100  23.171  0.00  0.00     0.033 H 
ENDBRANCH  43  45
ENDBRANCH   9  35
TORSDOF 6
