REMARK  7 active torsions:
REMARK  status: ('A' for Active; 'I' for Inactive)
REMARK    1  A    between atoms: C21_7  and  C15_8 
REMARK    2  A    between atoms: C15_8  and  C14_9 
REMARK    3  A    between atoms: C14_9  and  N13_10 
REMARK    4  A    between atoms: N13_10  and  C12_11 
REMARK    5  A    between atoms: C12_11  and  C11_12 
REMARK    6  A    between atoms: C11_12  and  C08_13 
REMARK    7  A    between atoms: C02_22  and  N02_23 
ROOT
ATOM      1  C12 M48 d   1      11.634  14.549  34.832  0.00  0.00     0.085 C 
ATOM      2  H   M48 d   1      11.595  14.929  33.800  0.00  0.00     0.076 H 
ATOM      3  H   M48 d   1      10.730  14.865  35.373  0.00  0.00     0.076 H 
ENDROOT
BRANCH   1   4
ATOM      4  N13 M48 d   1      12.803  15.114  35.498  0.00  0.00    -0.075 N 
ATOM      5  H   M48 d   1      13.526  15.159  34.797  0.00  0.00     0.277 HD
ATOM      6  H   M48 d   1      12.541  16.048  35.772  0.00  0.00     0.277 HD
BRANCH   4   7
ATOM      7  C14 M48 d   1      13.420  14.511  36.671  0.00  0.00     0.085 C 
ATOM      8  H   M48 d   1      12.850  13.611  36.945  0.00  0.00     0.076 H 
ATOM      9  H   M48 d   1      14.453  14.228  36.419  0.00  0.00     0.076 H 
BRANCH   7  10
ATOM     10  C15 M48 d   1      13.450  15.457  37.873  0.00  0.00    -0.018 C 
ATOM     11  H   M48 d   1      13.031  16.428  37.571  0.00  0.00     0.042 H 
ATOM     12  H   M48 d   1      12.836  15.028  38.679  0.00  0.00     0.042 H 
BRANCH  10  13
ATOM     13  C21 M48 d   1      14.861  15.670  38.391  0.00  0.00    -0.054 A 
ATOM     14  C22 M48 d   1      15.365  16.970  38.520  0.00  0.00    -0.040 A 
ATOM     15  C23 M48 d   1      16.664  17.181  38.997  0.00  0.00     0.116 A 
ATOM     16  H   M48 d   1      14.746  17.818  38.249  0.00  0.00     0.089 H 
ATOM     17  F23 M48 d   1      17.145  18.435  39.119  0.00  0.00    -0.206 F 
ATOM     18  C24 M48 d   1      17.464  16.091  39.349  0.00  0.00    -0.046 A 
ATOM     19  C25 M48 d   1      16.965  14.793  39.224  0.00  0.00    -0.080 A 
ATOM     20  H   M48 d   1      18.470  16.253  39.718  0.00  0.00     0.088 H 
ATOM     21  C26 M48 d   1      15.667  14.582  38.752  0.00  0.00    -0.077 A 
ATOM     22  H   M48 d   1      17.586  13.947  39.494  0.00  0.00     0.083 H 
ATOM     23  H   M48 d   1      15.282  13.572  38.665  0.00  0.00     0.084 H 
ENDBRANCH  10  13
ENDBRANCH   7  10
ENDBRANCH   4   7
ENDBRANCH   1   4
BRANCH   1  24
ATOM     24  C11 M48 d   1      11.675  13.031  34.793  0.00  0.00    -0.018 C 
ATOM     25  H   M48 d   1      11.430  12.656  35.798  0.00  0.00     0.042 H 
ATOM     26  H   M48 d   1      12.697  12.723  34.526  0.00  0.00     0.042 H 
BRANCH  24  27
ATOM     27  C08 M48 d   1      10.718  12.394  33.806  0.00  0.00    -0.054 A 
ATOM     28  C07 M48 d   1      11.216  11.375  32.992  0.00  0.00    -0.076 A 
ATOM     29  C06 M48 d   1      10.386  10.747  32.069  0.00  0.00    -0.070 A 
ATOM     30  H   M48 d   1      12.253  11.072  33.080  0.00  0.00     0.084 H 
ATOM     31  C05 M48 d   1       9.046  11.102  31.965  0.00  0.00    -0.007 A 
ATOM     32  H   M48 d   1      10.788   9.973  31.425  0.00  0.00     0.084 H 
ATOM     33  C10 M48 d   1       8.518  12.105  32.790  0.00  0.00     0.070 A 
ATOM     34  C04 M48 d   1       8.238  10.457  31.038  0.00  0.00    -0.067 A 
ATOM     35  C09 M48 d   1       9.357  12.751  33.717  0.00  0.00    -0.048 A 
ATOM     36  N01 M48 d   1       7.203  12.415  32.681  0.00  0.00    -0.231 NA
ATOM     37  H   M48 d   1       8.957  13.524  34.363  0.00  0.00     0.087 H 
ATOM     38  C02 M48 d   1       6.397  11.791  31.783  0.00  0.00     0.121 A 
ATOM     39  C03 M48 d   1       6.898  10.805  30.921  0.00  0.00    -0.038 A 
ATOM     40  H   M48 d   1       6.259  10.329  30.186  0.00  0.00     0.089 H 
ATOM     41  H   M48 d   1       8.653   9.681  30.405  0.00  0.00     0.085 H 
BRANCH  38  42
ATOM     42  N02 M48 d   1       5.109  12.111  31.720  0.00  0.00    -0.384 N 
ATOM     43  H   M48 d   1       4.494  11.640  31.041  0.00  0.00     0.157 HD
ATOM     44  H   M48 d   1       4.725  12.830  32.350  0.00  0.00     0.157 HD
ENDBRANCH  38  42
ENDBRANCH  24  27
ENDBRANCH   1  24
TORSDOF 7
