REMARK  7 active torsions:
REMARK  status: ('A' for Active; 'I' for Inactive)
REMARK    1  A    between atoms: CAV_6  and  CAU_7 
REMARK    2  A    between atoms: CAU_7  and  O6_8 
REMARK    3  A    between atoms: O6_8  and  C6_9 
REMARK    4  A    between atoms: C2_11  and  N2_12 
REMARK    5  A    between atoms: C8_18  and  CAJ_19 
REMARK    6  A    between atoms: CAN_23  and  CAQ_24 
REMARK    7  A    between atoms: CAO_27  and  CAP_28 
ROOT
ATOM      1  C6  2WC d   1      -7.522  21.509 -23.021  0.00  0.00     0.214 A 
ATOM      2  N1  2WC d   1      -8.807  21.146 -22.751  0.00  0.00    -0.036 NA
ATOM      3  C2  2WC d   1      -9.824  21.783 -23.411  0.00  0.00     0.724 A 
ATOM      4  N3  2WC d   1      -9.570  22.745 -24.319  0.00  0.00    -0.041 NA
ATOM      5  C4  2WC d   1      -8.281  23.083 -24.553  0.00  0.00     0.201 A 
ATOM      6  N9  2WC d   1      -7.744  24.031 -25.313  0.00  0.00    -0.208 NA
ATOM      7  C5  2WC d   1      -7.241  22.504 -23.901  0.00  0.00     0.137 A 
ATOM      8  N7  2WC d   1      -6.065  23.081 -24.306  0.00  0.00    -0.334 N 
ATOM      9  C8  2WC d   1      -6.392  24.021 -25.205  0.00  0.00     0.141 A 
ATOM     10  H   2WC d   1      -5.117  22.840 -23.983  0.00  0.00     0.168 HD
ENDROOT
BRANCH   1  11
ATOM     11  O6  2WC d   1      -6.437  20.903 -22.436  0.00  0.00    -0.332 OA
BRANCH  11  12
ATOM     12  CAU 2WC d   1      -6.718  20.105 -21.250  0.00  0.00     0.031 C 
ATOM     13  H   2WC d   1      -7.686  20.361 -20.794  0.00  0.00     0.075 H 
ATOM     14  H   2WC d   1      -6.684  19.025 -21.455  0.00  0.00     0.075 H 
BRANCH  12  15
ATOM     15  CAV 2WC d   1      -5.578  20.556 -20.434  0.00  0.00    -0.033 C 
ATOM     16  CAW 2WC d   1      -5.980  21.644 -19.415  0.00  0.00    -0.060 C 
ATOM     17  CAX 2WC d   1      -4.715  22.293 -18.963  0.00  0.00    -0.065 C 
ATOM     18  H   2WC d   1      -6.638  22.386 -19.892  0.00  0.00     0.033 H 
ATOM     19  H   2WC d   1      -6.500  21.189 -18.559  0.00  0.00     0.033 H 
ATOM     20  CAY 2WC d   1      -3.707  21.241 -18.382  0.00  0.00    -0.065 C 
ATOM     21  H   2WC d   1      -4.951  23.031 -18.183  0.00  0.00     0.033 H 
ATOM     22  H   2WC d   1      -4.248  22.801 -19.819  0.00  0.00     0.033 H 
ATOM     23  CAZ 2WC d   1      -3.498  19.983 -19.285  0.00  0.00    -0.065 C 
ATOM     24  H   2WC d   1      -4.085  20.905 -17.405  0.00  0.00     0.033 H 
ATOM     25  H   2WC d   1      -2.733  21.735 -18.248  0.00  0.00     0.033 H 
ATOM     26  CBA 2WC d   1      -4.926  19.388 -19.709  0.00  0.00    -0.060 C 
ATOM     27  H   2WC d   1      -2.934  19.221 -18.728  0.00  0.00     0.033 H 
ATOM     28  H   2WC d   1      -2.937  20.268 -20.187  0.00  0.00     0.033 H 
ATOM     29  H   2WC d   1      -5.511  19.095 -18.825  0.00  0.00     0.033 H 
ATOM     30  H   2WC d   1      -4.811  18.522 -20.377  0.00  0.00     0.033 H 
ATOM     31  H   2WC d   1      -4.834  20.992 -21.116  0.00  0.00     0.043 H 
ENDBRANCH  12  15
ENDBRANCH  11  12
ENDBRANCH   1  11
BRANCH   3  32
ATOM     32  N2  2WC d   1     -11.064  21.391 -23.172  0.00  0.00    -0.231 N 
ATOM     33  H   2WC d   1     -11.246  20.654 -22.475  0.00  0.00     0.174 HD
ATOM     34  H   2WC d   1     -11.848  21.822 -23.682  0.00  0.00     0.174 HD
ENDBRANCH   3  32
BRANCH   9  35
ATOM     35  CAJ 2WC d   1      -5.574  24.864 -25.891  0.00  0.00     0.017 A 
ATOM     36  CAK 2WC d   1      -5.855  25.138 -27.234  0.00  0.00    -0.069 A 
ATOM     37  CAL 2WC d   1      -5.036  25.999 -27.986  0.00  0.00    -0.081 A 
ATOM     38  H   2WC d   1      -6.718  24.679 -27.703  0.00  0.00     0.085 H 
ATOM     39  CAM 2WC d   1      -3.933  26.648 -27.388  0.00  0.00    -0.066 A 
ATOM     40  H   2WC d   1      -5.253  26.166 -29.035  0.00  0.00     0.083 H 
ATOM     41  CAN 2WC d   1      -3.638  26.382 -26.039  0.00  0.00     0.047 A 
ATOM     42  H   2WC d   1      -3.324  27.339 -27.959  0.00  0.00     0.085 H 
ATOM     43  CAO 2WC d   1      -4.452  25.517 -25.274  0.00  0.00    -0.031 A 
BRANCH  41  44
ATOM     44  CAQ 2WC d   1      -2.534  27.024 -25.423  0.00  0.00     0.209 C 
ATOM     45  OAS 2WC d   1      -2.756  27.864 -24.508  0.00  0.00    -0.644 OA
ATOM     46  OAR 2WC d   1      -1.332  26.723 -25.716  0.00  0.00    -0.644 OA
ENDBRANCH  41  44
BRANCH  43  47
ATOM     47  CAP 2WC d   1      -4.137  25.274 -23.893  0.00  0.00    -0.049 C 
ATOM     48  H   2WC d   1      -4.876  24.581 -23.465  0.00  0.00     0.033 H 
ATOM     49  H   2WC d   1      -4.161  26.224 -23.339  0.00  0.00     0.033 H 
ATOM     50  H   2WC d   1      -3.133  24.831 -23.818  0.00  0.00     0.033 H 
ENDBRANCH  43  47
ENDBRANCH   9  35
TORSDOF 7
