REMARK  7 active torsions:
REMARK  status: ('A' for Active; 'I' for Inactive)
REMARK    1  A    between atoms: C2_2  and  N2_3 
REMARK    2  A    between atoms: C6_7  and  O6_8 
REMARK    3  A    between atoms: O6_8  and  CAK_12 
REMARK    4  A    between atoms: C8_10  and  CAN_14 
REMARK    5  A    between atoms: CAK_12  and  CAL_13 
REMARK    6  A    between atoms: CAR_18  and  OAU_21 
REMARK    7  A    between atoms: CAS_19  and  CAT_20 
ROOT
ATOM      1  N1  75X d   1     -32.774 -15.874 -29.338  0.00  0.00    -0.036 NA
ATOM      2  C2  75X d   1     -32.433 -16.172 -28.062  0.00  0.00     0.724 A 
ATOM      3  N3  75X d   1     -32.049 -17.437 -27.683  0.00  0.00    -0.041 NA
ATOM      4  C4  75X d   1     -32.168 -18.459 -28.620  0.00  0.00     0.201 A 
ATOM      5  C5  75X d   1     -32.545 -18.182 -29.934  0.00  0.00     0.137 A 
ATOM      6  C6  75X d   1     -32.827 -16.886 -30.239  0.00  0.00     0.214 A 
ATOM      7  N7  75X d   1     -32.553 -19.375 -30.653  0.00  0.00    -0.334 N 
ATOM      8  C8  75X d   1     -32.179 -20.372 -29.775  0.00  0.00     0.141 A 
ATOM      9  N9  75X d   1     -31.934 -19.809 -28.561  0.00  0.00    -0.208 NA
ATOM     10  H   75X d   1     -32.792 -19.491 -31.648  0.00  0.00     0.168 HD
ENDROOT
BRANCH   6  11
ATOM     11  O6  75X d   1     -33.240 -16.586 -31.521  0.00  0.00    -0.332 OA
BRANCH  11  12
ATOM     12  CAK 75X d   1     -33.949 -15.305 -31.741  0.00  0.00     0.031 C 
ATOM     13  H   75X d   1     -33.270 -14.466 -31.951  0.00  0.00     0.075 H 
ATOM     14  H   75X d   1     -34.621 -15.035 -30.913  0.00  0.00     0.075 H 
BRANCH  12  15
ATOM     15  CAL 75X d   1     -34.665 -15.782 -32.934  0.00  0.00    -0.033 C 
ATOM     16  CAV 75X d   1     -36.220 -15.882 -32.743  0.00  0.00    -0.060 C 
ATOM     17  CAW 75X d   1     -36.623 -16.985 -33.723  0.00  0.00    -0.065 C 
ATOM     18  H   75X d   1     -36.711 -14.931 -32.997  0.00  0.00     0.033 H 
ATOM     19  H   75X d   1     -36.473 -16.161 -31.709  0.00  0.00     0.033 H 
ATOM     20  CAX 75X d   1     -36.389 -16.465 -35.156  0.00  0.00    -0.065 C 
ATOM     21  H   75X d   1     -37.685 -17.235 -33.586  0.00  0.00     0.033 H 
ATOM     22  H   75X d   1     -36.010 -17.881 -33.547  0.00  0.00     0.033 H 
ATOM     23  CAY 75X d   1     -34.921 -15.992 -35.404  0.00  0.00    -0.065 C 
ATOM     24  H   75X d   1     -37.065 -15.616 -35.335  0.00  0.00     0.033 H 
ATOM     25  H   75X d   1     -36.620 -17.274 -35.864  0.00  0.00     0.033 H 
ATOM     26  CAZ 75X d   1     -34.301 -15.041 -34.254  0.00  0.00    -0.060 C 
ATOM     27  H   75X d   1     -34.898 -15.437 -36.353  0.00  0.00     0.033 H 
ATOM     28  H   75X d   1     -34.285 -16.886 -35.486  0.00  0.00     0.033 H 
ATOM     29  H   75X d   1     -33.211 -14.949 -34.365  0.00  0.00     0.033 H 
ATOM     30  H   75X d   1     -34.758 -14.041 -34.282  0.00  0.00     0.033 H 
ATOM     31  H   75X d   1     -34.319 -16.816 -33.076  0.00  0.00     0.043 H 
ENDBRANCH  12  15
ENDBRANCH  11  12
ENDBRANCH   6  11
BRANCH   2  32
ATOM     32  N2  75X d   1     -32.458 -15.145 -27.298  0.00  0.00    -0.231 N 
ATOM     33  H   75X d   1     -32.761 -14.234 -27.670  0.00  0.00     0.174 HD
ATOM     34  H   75X d   1     -32.175 -15.230 -26.311  0.00  0.00     0.174 HD
ENDBRANCH   2  32
BRANCH   8  35
ATOM     35  CAN 75X d   1     -31.896 -21.693 -29.999  0.00  0.00     0.019 A 
ATOM     36  CAO 75X d   1     -30.639 -22.175 -29.483  0.00  0.00    -0.069 A 
ATOM     37  CAP 75X d   1     -30.147 -23.478 -29.639  0.00  0.00    -0.079 A 
ATOM     38  H   75X d   1     -30.025 -21.473 -28.930  0.00  0.00     0.085 H 
ATOM     39  CAQ 75X d   1     -30.927 -24.413 -30.318  0.00  0.00    -0.050 A 
ATOM     40  H   75X d   1     -29.178 -23.754 -29.239  0.00  0.00     0.083 H 
ATOM     41  CAR 75X d   1     -32.142 -23.941 -30.856  0.00  0.00     0.072 A 
ATOM     42  H   75X d   1     -30.617 -25.446 -30.426  0.00  0.00     0.087 H 
ATOM     43  CAS 75X d   1     -32.663 -22.597 -30.759  0.00  0.00    -0.015 A 
BRANCH  41  44
ATOM     44  OAU 75X d   1     -32.872 -24.824 -31.552  0.00  0.00    -0.360 OA
ATOM     45  H   75X d   1     -32.435 -25.668 -31.548  0.00  0.00     0.217 HD
ENDBRANCH  41  44
BRANCH  43  46
ATOM     46  CAT 75X d   1     -33.917 -22.175 -31.306  0.00  0.00    -0.048 C 
ATOM     47  H   75X d   1     -34.070 -21.107 -31.091  0.00  0.00     0.033 H 
ATOM     48  H   75X d   1     -34.730 -22.761 -30.853  0.00  0.00     0.033 H 
ATOM     49  H   75X d   1     -33.914 -22.333 -32.395  0.00  0.00     0.033 H 
ENDBRANCH  43  46
ENDBRANCH   8  35
TORSDOF 7
