REMARK  8 active torsions:
REMARK  status: ('A' for Active; 'I' for Inactive)
REMARK    1  A    between atoms: C2_2  and  N2_3 
REMARK    2  A    between atoms: C6_7  and  O6_8 
REMARK    3  A    between atoms: O6_8  and  CAK_12 
REMARK    4  A    between atoms: C8_10  and  CAM_14 
REMARK    5  A    between atoms: CAK_12  and  CAL_13 
REMARK    6  A    between atoms: CAW_23  and  SAZ_26 
REMARK    7  A    between atoms: CAX_24  and  CAY_25 
REMARK    8  A    between atoms: SAZ_26  and  NBB_28 
ROOT
ATOM      1  N1  SQ9 d   1     -33.957  13.648  29.950  0.00  0.00    -0.036 NA
ATOM      2  C2  SQ9 d   1     -33.689  14.117  28.720  0.00  0.00     0.724 A 
ATOM      3  N3  SQ9 d   1     -33.454  15.428  28.511  0.00  0.00    -0.041 NA
ATOM      4  C4  SQ9 d   1     -33.505  16.283  29.551  0.00  0.00     0.201 A 
ATOM      5  C5  SQ9 d   1     -33.805  15.855  30.808  0.00  0.00     0.137 A 
ATOM      6  C6  SQ9 d   1     -34.038  14.529  30.992  0.00  0.00     0.214 A 
ATOM      7  N7  SQ9 d   1     -33.806  16.924  31.639  0.00  0.00    -0.334 N 
ATOM      8  C8  SQ9 d   1     -33.524  17.986  30.856  0.00  0.00     0.141 A 
ATOM      9  N9  SQ9 d   1     -33.337  17.601  29.578  0.00  0.00    -0.208 NA
ATOM     10  H3  SQ9 d   1     -33.984  16.926  32.654  0.00  0.00     0.168 HD
ENDROOT
BRANCH   6  11
ATOM     11  O6  SQ9 d   1     -34.299  14.101  32.288  0.00  0.00    -0.332 OA
BRANCH  11  12
ATOM     12  CAK SQ9 d   1     -35.632  13.571  32.504  0.00  0.00     0.031 C 
ATOM     13  H4  SQ9 d   1     -35.820  12.750  31.797  0.00  0.00     0.075 H 
ATOM     14  H5  SQ9 d   1     -36.374  14.368  32.347  0.00  0.00     0.075 H 
BRANCH  12  15
ATOM     15  CAL SQ9 d   1     -35.742  13.043  33.946  0.00  0.00    -0.033 C 
ATOM     16  CAP SQ9 d   1     -34.938  13.966  34.898  0.00  0.00    -0.060 C 
ATOM     17  CAQ SQ9 d   1     -35.451  13.885  36.328  0.00  0.00    -0.065 C 
ATOM     18  H8  SQ9 d   1     -35.026  15.004  34.546  0.00  0.00     0.033 H 
ATOM     19  H9  SQ9 d   1     -33.881  13.662  34.881  0.00  0.00     0.033 H 
ATOM     20  CAR SQ9 d   1     -36.919  14.545  36.413  0.00  0.00    -0.065 C 
ATOM     21  H10 SQ9 d   1     -34.766  14.429  36.994  0.00  0.00     0.033 H 
ATOM     22  H11 SQ9 d   1     -35.505  12.831  36.639  0.00  0.00     0.033 H 
ATOM     23  CAS SQ9 d   1     -37.725  14.377  35.109  0.00  0.00    -0.065 C 
ATOM     24  H12 SQ9 d   1     -36.810  15.619  36.623  0.00  0.00     0.033 H 
ATOM     25  H13 SQ9 d   1     -37.473  14.065  37.233  0.00  0.00     0.033 H 
ATOM     26  CAT SQ9 d   1     -37.276  13.021  34.383  0.00  0.00    -0.060 C 
ATOM     27  H14 SQ9 d   1     -37.532  15.232  34.444  0.00  0.00     0.033 H 
ATOM     28  H15 SQ9 d   1     -38.799  14.331  35.343  0.00  0.00     0.033 H 
ATOM     29  H16 SQ9 d   1     -37.434  12.181  35.075  0.00  0.00     0.033 H 
ATOM     30  H17 SQ9 d   1     -37.897  12.879  33.486  0.00  0.00     0.033 H 
ATOM     31  H6  SQ9 d   1     -35.333  12.023  33.995  0.00  0.00     0.043 H 
ENDBRANCH  12  15
ENDBRANCH  11  12
ENDBRANCH   6  11
BRANCH   2  32
ATOM     32  N2  SQ9 d   1     -33.640  13.287  27.712  0.00  0.00    -0.231 N 
ATOM     33  H1  SQ9 d   1     -33.818  12.284  27.862  0.00  0.00     0.174 HD
ATOM     34  H2  SQ9 d   1     -33.423  13.636  26.767  0.00  0.00     0.174 HD
ENDBRANCH   2  32
BRANCH   8  35
ATOM     35  CAM SQ9 d   1     -33.403  19.276  31.189  0.00  0.00     0.017 A 
ATOM     36  CAU SQ9 d   1     -32.241  19.931  30.782  0.00  0.00    -0.069 A 
ATOM     37  CAO SQ9 d   1     -32.005  21.280  31.035  0.00  0.00    -0.081 A 
ATOM     38  H18 SQ9 d   1     -31.488  19.365  30.245  0.00  0.00     0.085 H 
ATOM     39  CAV SQ9 d   1     -32.975  21.995  31.710  0.00  0.00    -0.060 A 
ATOM     40  H7  SQ9 d   1     -31.086  21.755  30.711  0.00  0.00     0.083 H 
ATOM     41  CAW SQ9 d   1     -34.154  21.378  32.129  0.00  0.00     0.086 A 
ATOM     42  H19 SQ9 d   1     -32.818  23.048  31.916  0.00  0.00     0.085 H 
ATOM     43  CAX SQ9 d   1     -34.396  20.014  31.864  0.00  0.00    -0.025 A 
BRANCH  41  44
ATOM     44  SAZ SQ9 d   1     -35.319  22.488  32.930  0.00  0.00     0.257 S 
ATOM     45  OBA SQ9 d   1     -34.659  23.912  32.938  0.00  0.00    -0.201 OA
ATOM     46  OBC SQ9 d   1     -36.662  22.472  32.157  0.00  0.00    -0.201 OA
BRANCH  44  47
ATOM     47  NBB SQ9 d   1     -35.630  22.126  34.298  0.00  0.00    -0.324 N 
ATOM     48  H23 SQ9 d   1     -36.269  22.682  34.830  0.00  0.00     0.169 HD
ATOM     49  H24 SQ9 d   1     -35.206  21.320  34.711  0.00  0.00     0.169 HD
ENDBRANCH  44  47
ENDBRANCH  41  44
BRANCH  43  50
ATOM     50  CAY SQ9 d   1     -35.588  19.414  32.253  0.00  0.00    -0.049 C 
ATOM     51  H20 SQ9 d   1     -35.580  18.355  31.956  0.00  0.00     0.033 H 
ATOM     52  H21 SQ9 d   1     -36.432  19.925  31.766  0.00  0.00     0.033 H 
ATOM     53  H22 SQ9 d   1     -35.696  19.487  33.345  0.00  0.00     0.033 H 
ENDBRANCH  43  50
ENDBRANCH   8  35
TORSDOF 8
