REMARK  7 active torsions:
REMARK  status: ('A' for Active; 'I' for Inactive)
REMARK    1  A    between atoms: C2_2  and  N2_3 
REMARK    2  A    between atoms: C6_7  and  O6_8 
REMARK    3  A    between atoms: O6_8  and  CAL_12 
REMARK    4  A    between atoms: C8_10  and  CAS_19 
REMARK    5  A    between atoms: CAL_12  and  CAM_13 
REMARK    6  A    between atoms: CAW_23  and  SAY_25 
REMARK    7  A    between atoms: SAY_25  and  NBA_27 
ROOT
ATOM      1  N1  G6T d   1     -34.552  14.200  30.404  0.00  0.00    -0.036 NA
ATOM      2  C2  G6T d   1     -33.977  14.373  29.221  0.00  0.00     0.724 A 
ATOM      3  N3  G6T d   1     -33.639  15.595  28.799  0.00  0.00    -0.041 NA
ATOM      4  C4  G6T d   1     -33.868  16.659  29.569  0.00  0.00     0.201 A 
ATOM      5  C5  G6T d   1     -34.436  16.501  30.747  0.00  0.00     0.137 A 
ATOM      6  C6  G6T d   1     -34.765  15.286  31.146  0.00  0.00     0.214 A 
ATOM      7  N7  G6T d   1     -34.566  17.688  31.324  0.00  0.00    -0.334 N 
ATOM      8  C8  G6T d   1     -34.055  18.570  30.483  0.00  0.00     0.141 A 
ATOM      9  N9  G6T d   1     -33.634  17.945  29.397  0.00  0.00    -0.208 NA
ATOM     10  H   G6T d   1     -34.983  17.884  32.245  0.00  0.00     0.168 HD
ENDROOT
BRANCH   6  11
ATOM     11  O6  G6T d   1     -35.350  15.254  32.350  0.00  0.00    -0.332 OA
BRANCH  11  12
ATOM     12  CAL G6T d   1     -35.036  14.165  33.193  0.00  0.00     0.031 C 
ATOM     13  H   G6T d   1     -33.948  14.035  33.286  0.00  0.00     0.075 H 
ATOM     14  H   G6T d   1     -35.487  13.232  32.822  0.00  0.00     0.075 H 
BRANCH  12  15
ATOM     15  CAM G6T d   1     -35.641  14.577  34.489  0.00  0.00    -0.033 C 
ATOM     16  CAN G6T d   1     -37.111  14.961  34.297  0.00  0.00    -0.060 C 
ATOM     17  CAO G6T d   1     -37.671  15.423  35.574  0.00  0.00    -0.065 C 
ATOM     18  H   G6T d   1     -37.675  14.085  33.946  0.00  0.00     0.033 H 
ATOM     19  H   G6T d   1     -37.184  15.767  33.552  0.00  0.00     0.033 H 
ATOM     20  CAP G6T d   1     -37.575  14.251  36.548  0.00  0.00    -0.065 C 
ATOM     21  H   G6T d   1     -38.722  15.720  35.441  0.00  0.00     0.033 H 
ATOM     22  H   G6T d   1     -37.093  16.279  35.953  0.00  0.00     0.033 H 
ATOM     23  CAQ G6T d   1     -36.118  13.814  36.735  0.00  0.00    -0.065 C 
ATOM     24  H   G6T d   1     -38.157  13.405  36.153  0.00  0.00     0.033 H 
ATOM     25  H   G6T d   1     -37.987  14.556  37.521  0.00  0.00     0.033 H 
ATOM     26  CAR G6T d   1     -35.548  13.410  35.413  0.00  0.00    -0.060 C 
ATOM     27  H   G6T d   1     -36.077  12.961  37.429  0.00  0.00     0.033 H 
ATOM     28  H   G6T d   1     -35.534  14.650  37.147  0.00  0.00     0.033 H 
ATOM     29  H   G6T d   1     -34.495  13.115  35.536  0.00  0.00     0.033 H 
ATOM     30  H   G6T d   1     -36.120  12.564  35.004  0.00  0.00     0.033 H 
ATOM     31  H   G6T d   1     -35.090  15.433  34.904  0.00  0.00     0.043 H 
ENDBRANCH  12  15
ENDBRANCH  11  12
ENDBRANCH   6  11
BRANCH   2  32
ATOM     32  N2  G6T d   1     -33.754  13.330  28.461  0.00  0.00    -0.231 N 
ATOM     33  H   G6T d   1     -34.015  12.389  28.788  0.00  0.00     0.174 HD
ATOM     34  H   G6T d   1     -33.317  13.451  27.536  0.00  0.00     0.174 HD
ENDBRANCH   2  32
BRANCH   8  35
ATOM     35  CAS G6T d   1     -33.996  19.887  30.667  0.00  0.00     0.011 A 
ATOM     36  CAT G6T d   1     -33.398  20.683  29.692  0.00  0.00    -0.069 A 
ATOM     37  CAU G6T d   1     -33.323  22.052  29.835  0.00  0.00    -0.081 A 
ATOM     38  H   G6T d   1     -32.984  20.217  28.805  0.00  0.00     0.085 H 
ATOM     39  CAV G6T d   1     -33.858  22.641  30.960  0.00  0.00    -0.060 A 
ATOM     40  H   G6T d   1     -32.849  22.658  29.072  0.00  0.00     0.083 H 
ATOM     41  CAW G6T d   1     -34.464  21.870  31.936  0.00  0.00     0.080 A 
ATOM     42  H   G6T d   1     -33.804  23.717  31.081  0.00  0.00     0.085 H 
ATOM     43  CAX G6T d   1     -34.538  20.484  31.804  0.00  0.00    -0.047 A 
ATOM     44  H   G6T d   1     -35.009  19.881  32.572  0.00  0.00     0.087 H 
BRANCH  41  45
ATOM     45  SAY G6T d   1     -35.073  22.716  33.265  0.00  0.00     0.256 S 
ATOM     46  OAZ G6T d   1     -33.881  23.317  34.016  0.00  0.00    -0.201 OA
ATOM     47  OBB G6T d   1     -35.989  23.827  32.761  0.00  0.00    -0.201 OA
BRANCH  45  48
ATOM     48  NBA G6T d   1     -35.841  21.848  34.176  0.00  0.00    -0.324 N 
ATOM     49  H   G6T d   1     -36.254  22.231  35.002  0.00  0.00     0.169 HD
ATOM     50  H   G6T d   1     -35.949  20.876  33.968  0.00  0.00     0.169 HD
ENDBRANCH  45  48
ENDBRANCH  41  45
ENDBRANCH   8  35
TORSDOF 7
