REMARK  10 active torsions:
REMARK  status: ('A' for Active; 'I' for Inactive)
REMARK    1  A    between atoms: C1_7  and  C29_13 
REMARK    2  A    between atoms: C10_19  and  C2_10 
REMARK    3  A    between atoms: C14_14  and  C16_20 
REMARK       I    between atoms: N13_25  and  C14_14 
REMARK    4  A    between atoms: C11_17  and  C10_19 
REMARK    5  A    between atoms: C12_18  and  N13_25 
REMARK    6  A    between atoms: C16_20  and  C17_21 
REMARK    7  A    between atoms: C17_21  and  C18_22 
REMARK    8  A    between atoms: C18_22  and  C19_23 
REMARK    9  A    between atoms: C19_23  and  C20_24 
REMARK   10  A    between atoms: C20_24  and  N21_26 
ROOT
ATOM      1  C27 NZL d   1      -8.690  40.792  -0.705  0.00  0.00    -0.082 A 
ATOM      2  C26 NZL d   1      -9.811  41.264  -1.349  0.00  0.00    -0.082 A 
ATOM      3  C28 NZL d   1      -8.081  41.561   0.257  0.00  0.00    -0.076 A 
ATOM      4  C25 NZL d   1     -10.343  42.499  -1.039  0.00  0.00    -0.076 A 
ATOM      5  C23 NZL d   1      -8.618  42.788   0.554  0.00  0.00    -0.049 A 
ATOM      6  C24 NZL d   1      -9.729  43.269  -0.078  0.00  0.00    -0.045 A 
ATOM      7  C22 NZL d   1      -8.091  43.735   1.554  0.00  0.00    -0.021 C 
ATOM      8  C11 NZL d   1     -10.099  44.619   0.438  0.00  0.00    -0.004 C 
ATOM      9  C12 NZL d   1      -8.794  45.004   1.124  0.00  0.00     0.023 C 
ATOM     10  H1  NZL d   1      -8.289  39.817  -0.956  0.00  0.00     0.083 H 
ATOM     11  H2  NZL d   1     -10.284  40.656  -2.112  0.00  0.00     0.083 H 
ATOM     12  H3  NZL d   1      -7.195  41.206   0.770  0.00  0.00     0.084 H 
ATOM     13  H4  NZL d   1     -11.232  42.857  -1.545  0.00  0.00     0.084 H 
ATOM     14  H7  NZL d   1      -6.997  43.833   1.485  0.00  0.00     0.043 H 
ATOM     15  H8  NZL d   1      -8.369  43.443   2.577  0.00  0.00     0.043 H 
ATOM     16  H11 NZL d   1     -10.927  44.529   1.157  0.00  0.00     0.051 H 
ATOM     17  H12 NZL d   1      -8.157  45.543   0.407  0.00  0.00     0.074 H 
ENDROOT
BRANCH   9  18
ATOM     18  N13 NZL d   1      -9.036  45.857   2.252  0.00  0.00    -0.355 N 
ATOM     19  C14 NZL d   1      -8.615  47.163   2.210  0.00  0.00     0.217 C 
ATOM     20  O15 NZL d   1      -8.062  47.697   1.262  0.00  0.00    -0.274 OA
ATOM     21  H25 NZL d   1      -9.507  45.504   3.061  0.00  0.00     0.162 HD
BRANCH  19  22
ATOM     22  C16 NZL d   1      -8.903  47.896   3.480  0.00  0.00     0.009 C 
ATOM     23  H15 NZL d   1      -8.289  48.808   3.529  0.00  0.00     0.047 H 
ATOM     24  H16 NZL d   1      -8.671  47.251   4.341  0.00  0.00     0.047 H 
BRANCH  22  25
ATOM     25  C17 NZL d   1     -10.368  48.267   3.502  0.00  0.00    -0.057 C 
ATOM     26  H17 NZL d   1     -10.970  47.366   3.690  0.00  0.00     0.033 H 
ATOM     27  H18 NZL d   1     -10.649  48.700   2.531  0.00  0.00     0.033 H 
BRANCH  25  28
ATOM     28  C18 NZL d   1     -10.626  49.280   4.596  0.00  0.00    -0.063 C 
ATOM     29  H19 NZL d   1     -11.663  49.639   4.523  0.00  0.00     0.033 H 
ATOM     30  H20 NZL d   1      -9.936  50.128   4.477  0.00  0.00     0.033 H 
BRANCH  28  31
ATOM     31  C19 NZL d   1     -10.410  48.645   5.950  0.00  0.00    -0.043 C 
ATOM     32  H21 NZL d   1      -9.335  48.469   6.103  0.00  0.00     0.035 H 
ATOM     33  H22 NZL d   1     -10.949  47.687   5.994  0.00  0.00     0.035 H 
BRANCH  31  34
ATOM     34  C20 NZL d   1     -10.926  49.559   7.033  0.00  0.00     0.080 C 
ATOM     35  H23 NZL d   1     -10.866  50.605   6.699  0.00  0.00     0.075 H 
ATOM     36  H24 NZL d   1     -10.327  49.431   7.947  0.00  0.00     0.075 H 
BRANCH  34  37
ATOM     37  N21 NZL d   1     -12.334  49.198   7.302  0.00  0.00    -0.079 N 
ATOM     38  H26 NZL d   1     -12.702  49.797   8.024  0.00  0.00     0.274 HD
ATOM     39  H27 NZL d   1     -12.383  48.238   7.604  0.00  0.00     0.274 HD
ATOM     40  H28 NZL d   1     -12.877  49.313   6.461  0.00  0.00     0.274 HD
ENDBRANCH  34  37
ENDBRANCH  31  34
ENDBRANCH  28  31
ENDBRANCH  25  28
ENDBRANCH  22  25
ENDBRANCH  19  22
ENDBRANCH   9  18
BRANCH   8  41
ATOM     41  C10 NZL d   1     -10.463  45.700  -0.572  0.00  0.00    -0.031 C 
ATOM     42  H13 NZL d   1     -10.598  46.649  -0.033  0.00  0.00     0.041 H 
ATOM     43  H14 NZL d   1      -9.635  45.800  -1.289  0.00  0.00     0.041 H 
BRANCH  41  44
ATOM     44  C2  NZL d   1     -11.719  45.403  -1.335  0.00  0.00    -0.037 A 
ATOM     45  C3  NZL d   1     -11.520  45.077  -2.668  0.00  0.00    -0.073 A 
ATOM     46  C4  NZL d   1     -12.568  44.773  -3.509  0.00  0.00    -0.047 A 
ATOM     47  H5  NZL d   1     -10.509  45.061  -3.060  0.00  0.00     0.084 H 
ATOM     48  C5  NZL d   1     -13.826  44.813  -2.978  0.00  0.00     0.106 A 
ATOM     49  H6  NZL d   1     -12.401  44.513  -4.548  0.00  0.00     0.087 H 
ATOM     50  C6  NZL d   1     -14.037  45.139  -1.672  0.00  0.00     0.122 A 
ATOM     51  O9  NZL d   1     -14.971  44.541  -3.658  0.00  0.00    -0.323 OA
ATOM     52  C1  NZL d   1     -13.009  45.441  -0.807  0.00  0.00     0.083 A 
ATOM     53  O7  NZL d   1     -15.373  45.116  -1.350  0.00  0.00    -0.322 OA
ATOM     54  C8  NZL d   1     -15.924  44.622  -2.585  0.00  0.00     0.115 C 
ATOM     55  H9  NZL d   1     -16.329  43.615  -2.405  0.00  0.00     0.118 H 
ATOM     56  H10 NZL d   1     -16.738  45.295  -2.895  0.00  0.00     0.118 H 
BRANCH  52  57
ATOM     57  C29 NZL d   1     -13.373  45.786   0.602  0.00  0.00     0.212 C 
ATOM     58  O31 NZL d   1     -14.336  45.159   1.133  0.00  0.00    -0.644 OA
ATOM     59  O30 NZL d   1     -12.731  46.712   1.166  0.00  0.00    -0.644 OA
ENDBRANCH  52  57
ENDBRANCH  41  44
ENDBRANCH   8  41
TORSDOF 10
