REMARK WARNING: 32 MAX_TORS EXCEEDED!!!
REMARK  33 active torsions:
REMARK  status: ('A' for Active; 'I' for Inactive)
REMARK    1  A    between atoms: N_1  and  CA_2 
REMARK    2  A    between atoms: CA_2  and  C_3 
REMARK    3  A    between atoms: CA_2  and  CB_5 
REMARK       I    between atoms: C_3  and  N_9 
REMARK    4  A    between atoms: CB_5  and  CG_6 
REMARK    5  A    between atoms: N_9  and  CA_10 
REMARK    6  A    between atoms: CA_10  and  C_11 
REMARK    7  A    between atoms: CA_10  and  CB_13 
REMARK       I    between atoms: C_11  and  N_17 
REMARK    8  A    between atoms: CB_13  and  CG_14 
REMARK    9  A    between atoms: CG_14  and  CD1_15 
REMARK   10  A    between atoms: CG_14  and  CD2_16 
REMARK   11  A    between atoms: N_17  and  CA_18 
REMARK   12  A    between atoms: CA_18  and  C_19 
REMARK   13  A    between atoms: CA_18  and  CB_21 
REMARK       I    between atoms: C_19  and  N_33 
REMARK   14  A    between atoms: CB_21  and  CG_22 
REMARK   15  A    between atoms: CZ_27  and  OH_28 
REMARK   16  A    between atoms: OH_28  and  P_29 
REMARK   17  A    between atoms: N_33  and  CA_34 
REMARK   18  A    between atoms: CA_34  and  C_35 
REMARK   19  A    between atoms: CA_34  and  CB_37 
REMARK       I    between atoms: C_35  and  N_41 
REMARK   20  A    between atoms: CB_37  and  CG_38 
REMARK   21  A    between atoms: N_41  and  CA_42 
REMARK   22  A    between atoms: CA_42  and  C_43 
REMARK   23  A    between atoms: CA_42  and  CB_45 
REMARK       I    between atoms: C_43  and  N_57 
REMARK   24  A    between atoms: CB_45  and  CG_46 
REMARK   25  A    between atoms: CZ_51  and  OH_52 
REMARK   26  A    between atoms: OH_52  and  P_53 
REMARK   27  A    between atoms: N_57  and  CA_58 
REMARK   28  A    between atoms: CA_58  and  C_59 
REMARK   29  A    between atoms: CA_58  and  CB_61 
REMARK       I    between atoms: C_59  and  N_73 
REMARK   30  A    between atoms: CB_61  and  CG_62 
REMARK   31  A    between atoms: CZ_67  and  OH_68 
REMARK   32  A    between atoms: OH_68  and  P_69 
REMARK   33  A    between atoms: CA_74  and  C_75 
ROOT
ATOM      1  CA  ASP d   1     -29.294 -15.654  -7.526  0.00  0.00     0.098 C 
ATOM      2  H27 ASP d   1     -29.802 -16.509  -7.997  0.00  0.00     0.088 H 
ENDROOT
BRANCH   1   3
ATOM      3  N   ASP d   1     -27.893 -15.738  -7.714  0.00  0.00    -0.345 N 
ATOM      4  C   PTR d   1     -27.353 -15.918  -8.932  0.00  0.00     0.241 C 
ATOM      5  O   PTR d   1     -28.077 -16.158  -9.924  0.00  0.00    -0.271 OA
ATOM      6  H26 ASP d   1     -27.290 -15.661  -6.920  0.00  0.00     0.163 HD
BRANCH   4   7
ATOM      7  CA  PTR d   1     -25.847 -15.831  -9.019  0.00  0.00     0.093 C 
ATOM      8  H19 PTR d   1     -25.402 -16.077  -8.043  0.00  0.00     0.088 H 
BRANCH   7   9
ATOM      9  N   PTR d   1     -25.352 -16.785 -10.032  0.00  0.00    -0.346 N 
ATOM     10  C   LEU d   1     -24.532 -17.767  -9.781  0.00  0.00     0.241 C 
ATOM     11  O   LEU d   1     -24.109 -18.004  -8.649  0.00  0.00    -0.271 OA
ATOM     12  H18 PTR d   1     -25.667 -16.670 -10.974  0.00  0.00     0.163 HD
BRANCH  10  13
ATOM     13  CA  LEU d   1     -24.076 -18.587 -11.045  0.00  0.00     0.089 C 
ATOM     14  H8  LEU d   1     -23.575 -19.510 -10.718  0.00  0.00     0.087 H 
BRANCH  13  15
ATOM     15  N   LEU d   1     -25.195 -18.909 -11.889  0.00  0.00    -0.346 N 
ATOM     16  C   ASP d   1     -26.052 -19.833 -11.537  0.00  0.00     0.249 C 
ATOM     17  O   ASP d   1     -26.067 -20.237 -10.388  0.00  0.00    -0.271 OA
ATOM     18  H7  LEU d   1     -25.319 -18.422 -12.754  0.00  0.00     0.163 HD
BRANCH  16  19
ATOM     19  CA  ASP d   1     -26.984 -20.384 -12.652  0.00  0.00     0.185 C 
ATOM     20  H4  ASP d   1     -26.417 -21.160 -13.187  0.00  0.00     0.100 H 
BRANCH  19  21
ATOM     21  N   ASP d   1     -28.198 -21.049 -12.100  0.00  0.00    -0.066 N 
ATOM     22  H1  ASP d   1     -28.769 -21.389 -12.858  0.00  0.00     0.275 HD
ATOM     23  H2  ASP d   1     -28.725 -20.386 -11.553  0.00  0.00     0.275 HD
ATOM     24  H3  ASP d   1     -27.921 -21.822 -11.515  0.00  0.00     0.275 HD
ENDBRANCH  19  21
BRANCH  19  25
ATOM     25  CB  ASP d   1     -27.326 -19.288 -13.686  0.00  0.00     0.050 C 
ATOM     26  H5  ASP d   1     -27.800 -18.443 -13.165  0.00  0.00     0.052 H 
ATOM     27  H6  ASP d   1     -28.027 -19.703 -14.425  0.00  0.00     0.052 H 
BRANCH  25  28
ATOM     28  CG  ASP d   1     -26.062 -18.777 -14.425  0.00  0.00     0.175 C 
ATOM     29  OD1 ASP d   1     -25.157 -19.610 -14.664  0.00  0.00    -0.648 OA
ATOM     30  OD2 ASP d   1     -25.914 -17.571 -14.717  0.00  0.00    -0.648 OA
ENDBRANCH  25  28
ENDBRANCH  19  25
ENDBRANCH  16  19
ENDBRANCH  13  15
BRANCH  13  31
ATOM     31  CB  LEU d   1     -23.125 -17.740 -11.896  0.00  0.00    -0.035 C 
ATOM     32  H9  LEU d   1     -23.706 -16.874 -12.246  0.00  0.00     0.037 H 
ATOM     33  H10 LEU d   1     -22.839 -18.361 -12.757  0.00  0.00     0.037 H 
BRANCH  31  34
ATOM     34  CG  LEU d   1     -21.851 -17.195 -11.322  0.00  0.00    -0.059 C 
ATOM     35  H11 LEU d   1     -22.080 -16.665 -10.385  0.00  0.00     0.038 H 
BRANCH  34  36
ATOM     36  CD1 LEU d   1     -20.832 -18.259 -11.011  0.00  0.00    -0.073 C 
ATOM     37  H12 LEU d   1     -19.928 -17.790 -10.595  0.00  0.00     0.028 H 
ATOM     38  H13 LEU d   1     -20.574 -18.800 -11.933  0.00  0.00     0.028 H 
ATOM     39  H14 LEU d   1     -21.250 -18.964 -10.277  0.00  0.00     0.028 H 
ENDBRANCH  34  36
BRANCH  34  40
ATOM     40  CD2 LEU d   1     -21.339 -16.218 -12.328  0.00  0.00    -0.073 C 
ATOM     41  H15 LEU d   1     -22.110 -15.459 -12.528  0.00  0.00     0.028 H 
ATOM     42  H16 LEU d   1     -21.095 -16.747 -13.261  0.00  0.00     0.028 H 
ATOM     43  H17 LEU d   1     -20.435 -15.728 -11.937  0.00  0.00     0.028 H 
ENDBRANCH  34  40
ENDBRANCH  31  34
ENDBRANCH  13  31
ENDBRANCH  10  13
ENDBRANCH   7   9
BRANCH   7  44
ATOM     44  CB  PTR d   1     -25.491 -14.414  -9.393  0.00  0.00    -0.014 C 
ATOM     45  H20 PTR d   1     -26.063 -13.743  -8.736  0.00  0.00     0.043 H 
ATOM     46  H21 PTR d   1     -25.801 -14.257 -10.437  0.00  0.00     0.043 H 
BRANCH  44  47
ATOM     47  CG  PTR d   1     -24.085 -14.040  -9.290  0.00  0.00    -0.056 A 
ATOM     48  CD1 PTR d   1     -23.403 -13.956  -8.043  0.00  0.00    -0.074 A 
ATOM     49  CE1 PTR d   1     -22.072 -13.623  -7.934  0.00  0.00    -0.050 A 
ATOM     50  H22 PTR d   1     -23.959 -14.164  -7.136  0.00  0.00     0.084 H 
ATOM     51  CZ  PTR d   1     -21.368 -13.258  -9.068  0.00  0.00     0.082 A 
ATOM     52  H24 PTR d   1     -21.580 -13.646  -6.968  0.00  0.00     0.087 H 
ATOM     53  CE2 PTR d   1     -22.077 -13.270 -10.285  0.00  0.00    -0.050 A 
ATOM     54  CD2 PTR d   1     -23.387 -13.657 -10.413  0.00  0.00    -0.074 A 
ATOM     55  H25 PTR d   1     -21.553 -12.953 -11.179  0.00  0.00     0.087 H 
ATOM     56  H23 PTR d   1     -23.866 -13.661 -11.385  0.00  0.00     0.084 H 
BRANCH  51  57
ATOM     57  OH  PTR d   1     -20.052 -12.898  -8.982  0.00  0.00    -0.240 OA
BRANCH  57  58
ATOM     58  P   PTR d   1     -19.224 -11.786  -9.842  0.00  0.00     0.427 P 
ATOM     59  O1P PTR d   1     -20.220 -10.741 -10.311  0.00  0.00    -0.617 OA
ATOM     60  O2P PTR d   1     -18.823 -12.699 -10.981  0.00  0.00    -0.617 OA
ATOM     61  O3P PTR d   1     -18.085 -11.374  -8.954  0.00  0.00    -0.617 OA
ENDBRANCH  57  58
ENDBRANCH  51  57
ENDBRANCH  44  47
ENDBRANCH   7  44
ENDBRANCH   4   7
ENDBRANCH   1   3
BRANCH   1  62
ATOM     62  C   ASP d   1     -29.797 -14.336  -8.127  0.00  0.00     0.241 C 
ATOM     63  O   ASP d   1     -29.287 -13.263  -7.816  0.00  0.00    -0.271 OA
ATOM     64  N   PTR d   1     -30.843 -14.459  -8.961  0.00  0.00    -0.346 N 
ATOM     65  H30 PTR d   1     -31.160 -15.375  -9.205  0.00  0.00     0.163 HD
BRANCH  64  66
ATOM     66  CA  PTR d   1     -31.551 -13.272  -9.538  0.00  0.00     0.093 C 
ATOM     67  H31 PTR d   1     -32.177 -13.639 -10.365  0.00  0.00     0.088 H 
BRANCH  66  68
ATOM     68  C   PTR d   1     -30.590 -12.233 -10.073  0.00  0.00     0.241 C 
ATOM     69  O   PTR d   1     -30.630 -11.071  -9.660  0.00  0.00    -0.271 OA
ATOM     70  N   PTR d   1     -29.679 -12.641 -10.945  0.00  0.00    -0.346 N 
ATOM     71  H38 PTR d   1     -29.636 -13.608 -11.197  0.00  0.00     0.163 HD
BRANCH  70  72
ATOM     72  CA  PTR d   1     -28.735 -11.697 -11.545  0.00  0.00     0.093 C 
ATOM     73  H39 PTR d   1     -29.224 -10.723 -11.694  0.00  0.00     0.088 H 
BRANCH  72  74
ATOM     74  C   PTR d   1     -28.400 -12.333 -12.874  0.00  0.00     0.243 C 
ATOM     75  O   PTR d   1     -28.209 -13.573 -12.908  0.00  0.00    -0.271 OA
ATOM     76  N   PRO d   1     -28.440 -11.528 -13.982  0.00  0.00    -0.336 N 
ATOM     77  CA  PRO d   1     -28.830 -10.083 -14.047  0.00  0.00     0.098 C 
ATOM     78  CD  PRO d   1     -28.056 -12.054 -15.313  0.00  0.00    -0.001 C 
ATOM     79  CB  PRO d   1     -28.363  -9.643 -15.468  0.00  0.00    -0.035 C 
ATOM     80  H46 PRO d   1     -28.285  -9.523 -13.273  0.00  0.00     0.089 H 
ATOM     81  CG  PRO d   1     -28.325 -10.901 -16.281  0.00  0.00    -0.048 C 
ATOM     82  H47 PRO d   1     -27.364  -9.185 -15.420  0.00  0.00     0.036 H 
ATOM     83  H48 PRO d   1     -29.075  -8.925 -15.902  0.00  0.00     0.036 H 
ATOM     84  H49 PRO d   1     -27.522 -10.842 -17.030  0.00  0.00     0.035 H 
ATOM     85  H50 PRO d   1     -29.289 -11.052 -16.788  0.00  0.00     0.035 H 
ATOM     86  H51 PRO d   1     -28.667 -12.930 -15.575  0.00  0.00     0.064 H 
ATOM     87  H52 PRO d   1     -26.992 -12.332 -15.328  0.00  0.00     0.064 H 
BRANCH  77  88
ATOM     88  C   PRO d   1     -30.331  -9.799 -13.874  0.00  0.00     0.196 C 
ATOM     89  O   PRO d   1     -31.144 -10.751 -14.016  0.00  0.00    -0.646 OA
ATOM     90  O   PRO d   1     -30.739  -8.640 -13.596  0.00  0.00    -0.646 OA
ENDBRANCH  77  88
ENDBRANCH  72  74
BRANCH  72  91
ATOM     91  CB  PTR d   1     -27.480 -11.483 -10.733  0.00  0.00    -0.014 C 
ATOM     92  H40 PTR d   1     -26.907 -12.420 -10.677  0.00  0.00     0.043 H 
ATOM     93  H41 PTR d   1     -27.743 -11.152  -9.717  0.00  0.00     0.043 H 
BRANCH  91  94
ATOM     94  CG  PTR d   1     -26.655 -10.415 -11.425  0.00  0.00    -0.056 A 
ATOM     95  CD1 PTR d   1     -25.691 -10.837 -12.359  0.00  0.00    -0.074 A 
ATOM     96  CE1 PTR d   1     -24.917  -9.877 -13.007  0.00  0.00    -0.050 A 
ATOM     97  H42 PTR d   1     -25.553 -11.891 -12.571  0.00  0.00     0.084 H 
ATOM     98  CZ  PTR d   1     -25.047  -8.518 -12.692  0.00  0.00     0.082 A 
ATOM     99  H44 PTR d   1     -24.205 -10.185 -13.764  0.00  0.00     0.087 H 
ATOM    100  CE2 PTR d   1     -25.993  -8.092 -11.757  0.00  0.00    -0.050 A 
ATOM    101  CD2 PTR d   1     -26.789  -9.053 -11.098  0.00  0.00    -0.074 A 
ATOM    102  H45 PTR d   1     -26.114  -7.037 -11.540  0.00  0.00     0.087 H 
ATOM    103  H43 PTR d   1     -27.502  -8.743 -10.342  0.00  0.00     0.084 H 
BRANCH  98 104
ATOM    104  OH  PTR d   1     -24.289  -7.640 -13.437  0.00  0.00    -0.240 OA
BRANCH 104 105
ATOM    105  P   PTR d   1     -23.319  -6.446 -12.992  0.00  0.00     0.427 P 
ATOM    106  O1P PTR d   1     -22.886  -6.007 -14.368  0.00  0.00    -0.617 OA
ATOM    107  O2P PTR d   1     -22.163  -6.965 -12.140  0.00  0.00    -0.617 OA
ATOM    108  O3P PTR d   1     -24.246  -5.496 -12.280  0.00  0.00    -0.617 OA
ENDBRANCH 104 105
ENDBRANCH  98 104
ENDBRANCH  91  94
ENDBRANCH  72  91
ENDBRANCH  70  72
ENDBRANCH  66  68
BRANCH  66 109
ATOM    109  CB  PTR d   1     -32.461 -12.510  -8.531  0.00  0.00    -0.014 C 
ATOM    110  H32 PTR d   1     -32.825 -11.594  -9.020  0.00  0.00     0.043 H 
ATOM    111  H33 PTR d   1     -31.855 -12.242  -7.653  0.00  0.00     0.043 H 
BRANCH 109 112
ATOM    112  CG  PTR d   1     -33.641 -13.290  -8.063  0.00  0.00    -0.056 A 
ATOM    113  CD1 PTR d   1     -33.887 -13.518  -6.698  0.00  0.00    -0.074 A 
ATOM    114  CE1 PTR d   1     -35.005 -14.286  -6.303  0.00  0.00    -0.050 A 
ATOM    115  H34 PTR d   1     -33.220 -13.105  -5.950  0.00  0.00     0.084 H 
ATOM    116  CZ  PTR d   1     -35.904 -14.799  -7.232  0.00  0.00     0.082 A 
ATOM    117  H36 PTR d   1     -35.166 -14.480  -5.249  0.00  0.00     0.087 H 
ATOM    118  CE2 PTR d   1     -35.678 -14.513  -8.582  0.00  0.00    -0.050 A 
ATOM    119  CD2 PTR d   1     -34.590 -13.770  -8.986  0.00  0.00    -0.074 A 
ATOM    120  H37 PTR d   1     -36.373 -14.884  -9.326  0.00  0.00     0.087 H 
ATOM    121  H35 PTR d   1     -34.462 -13.550 -10.040  0.00  0.00     0.084 H 
BRANCH 116 122
ATOM    122  OH  PTR d   1     -37.005 -15.518  -6.777  0.00  0.00    -0.240 OA
BRANCH 122 123
ATOM    123  P   PTR d   1     -38.463 -15.244  -7.407  0.00  0.00     0.427 P 
ATOM    124  O1P PTR d   1     -38.660 -13.708  -7.174  0.00  0.00    -0.617 OA
ATOM    125  O2P PTR d   1     -39.295 -16.215  -6.601  0.00  0.00    -0.617 OA
ATOM    126  O3P PTR d   1     -38.505 -15.447  -8.908  0.00  0.00    -0.617 OA
ENDBRANCH 122 123
ENDBRANCH 116 122
ENDBRANCH 109 112
ENDBRANCH  66 109
ENDBRANCH  64  66
ENDBRANCH   1  62
BRANCH   1 127
ATOM    127  CB  ASP d   1     -29.550 -15.638  -6.007  0.00  0.00     0.043 C 
ATOM    128  H28 ASP d   1     -29.116 -14.715  -5.594  0.00  0.00     0.052 H 
ATOM    129  H29 ASP d   1     -29.047 -16.510  -5.564  0.00  0.00     0.052 H 
BRANCH 127 130
ATOM    130  CG  ASP d   1     -30.971 -15.686  -5.631  0.00  0.00     0.175 C 
ATOM    131  OD1 ASP d   1     -31.676 -16.672  -5.874  0.00  0.00    -0.648 OA
ATOM    132  OD2 ASP d   1     -31.427 -14.701  -5.035  0.00  0.00    -0.648 OA
ENDBRANCH 127 130
ENDBRANCH   1 127
TORSDOF 33
