REMARK  1 active torsions:
REMARK  status: ('A' for Active; 'I' for Inactive)
REMARK    1  A    between atoms: N09_9  and  C08_8 
ROOT
ATOM      1  N09 EF2 d   1      -1.896   5.966  13.669  0.00  0.00    -0.266 N 
ATOM      2  C11 EF2 d   1      -1.160   1.494  12.472  0.00  0.00    -0.082 A 
ATOM      3  C12 EF2 d   1      -0.521   2.751  12.388  0.00  0.00    -0.067 A 
ATOM      4  C13 EF2 d   1      -1.227   3.848  12.907  0.00  0.00     0.048 A 
ATOM      5  C14 EF2 d   1      -2.505   3.704  13.476  0.00  0.00     0.048 A 
ATOM      6  O16 EF2 d   1       0.186   5.793  12.604  0.00  0.00    -0.267 OA
ATOM      7  O18 EF2 d   1      -3.993   5.348  14.401  0.00  0.00    -0.267 OA
ATOM      8  C19 EF2 d   1      -3.147   2.454  13.535  0.00  0.00    -0.067 A 
ATOM      9  C20 EF2 d   1      -2.454   1.343  13.013  0.00  0.00    -0.082 A 
ATOM     10  C3  EF2 d   1      -2.900   5.091  13.926  0.00  0.00     0.262 A 
ATOM     11  C4  EF2 d   1      -0.868   5.316  13.043  0.00  0.00     0.262 A 
ATOM     12  H   EF2 d   1      -0.638   0.616  12.108  0.00  0.00     0.083 H 
ATOM     13  H   EF2 d   1       0.463   2.863  11.946  0.00  0.00     0.085 H 
ATOM     14  H   EF2 d   1      -4.136   2.349  13.965  0.00  0.00     0.085 H 
ATOM     15  H   EF2 d   1      -2.920   0.364  13.027  0.00  0.00     0.083 H 
ENDROOT
BRANCH   1  16
ATOM     16  C08 EF2 d   1      -2.001   7.399  13.899  0.00  0.00     0.101 C 
ATOM     17  C02 EF2 d   1      -1.715   8.198  12.649  0.00  0.00     0.247 C 
ATOM     18  O01 EF2 d   1      -1.923   7.695  11.553  0.00  0.00    -0.271 OA
ATOM     19  N03 EF2 d   1      -1.294   9.480  12.795  0.00  0.00    -0.296 N 
ATOM     20  C04 EF2 d   1      -1.071  10.098  13.979  0.00  0.00     0.224 C 
ATOM     21  H   EF2 d   1      -1.136  10.010  11.962  0.00  0.00     0.171 HD
ATOM     22  O05 EF2 d   1      -0.693  11.248  14.006  0.00  0.00    -0.273 OA
ATOM     23  C06 EF2 d   1      -1.306   9.377  15.284  0.00  0.00     0.012 C 
ATOM     24  C07 EF2 d   1      -1.111   7.854  15.077  0.00  0.00    -0.029 C 
ATOM     25  H   EF2 d   1      -2.332   9.571  15.630  0.00  0.00     0.047 H 
ATOM     26  H   EF2 d   1      -0.590   9.739  16.037  0.00  0.00     0.047 H 
ATOM     27  H   EF2 d   1      -1.402   7.316  15.991  0.00  0.00     0.037 H 
ATOM     28  H   EF2 d   1      -0.056   7.643  14.847  0.00  0.00     0.037 H 
ATOM     29  H   EF2 d   1      -3.044   7.604  14.182  0.00  0.00     0.088 H 
ENDBRANCH   1  16
TORSDOF 1
