REMARK  2 active torsions:
REMARK  status: ('A' for Active; 'I' for Inactive)
REMARK    1  A    between atoms: N10_10  and  C1_1 
REMARK    2  A    between atoms: C14_14  and  N17_17 
ROOT
ATOM      1  C7  LVY d   1      84.106 152.712  13.165  0.00  0.00     0.042 A 
ATOM      2  C8  LVY d   1      85.417 153.010  12.790  0.00  0.00     0.002 A 
ATOM      3  C9  LVY d   1      85.721 154.487  12.998  0.00  0.00     0.026 A 
ATOM      4  N10 LVY d   1      84.453 154.974  13.532  0.00  0.00    -0.330 N 
ATOM      5  C11 LVY d   1      83.502 154.007  13.641  0.00  0.00     0.255 A 
ATOM      6  C12 LVY d   1      84.453 150.404  12.599  0.00  0.00    -0.080 A 
ATOM      7  C13 LVY d   1      85.790 150.710  12.234  0.00  0.00    -0.057 A 
ATOM      8  C14 LVY d   1      86.300 152.026  12.319  0.00  0.00     0.034 A 
ATOM      9  C15 LVY d   1      83.580 151.414  13.063  0.00  0.00    -0.067 A 
ATOM     10  O16 LVY d   1      82.330 154.090  14.040  0.00  0.00    -0.267 OA
ATOM     11  H   LVY d   1      85.974 154.982  12.049  0.00  0.00     0.071 H 
ATOM     12  H   LVY d   1      86.541 154.631  13.717  0.00  0.00     0.071 H 
ATOM     13  H   LVY d   1      84.097 149.383  12.521  0.00  0.00     0.083 H 
ATOM     14  H   LVY d   1      86.436 149.915  11.881  0.00  0.00     0.086 H 
ATOM     15  H   LVY d   1      82.552 151.197  13.328  0.00  0.00     0.085 H 
ENDROOT
BRANCH   4  16
ATOM     16  C1  LVY d   1      84.230 156.371  13.871  0.00  0.00     0.093 C 
ATOM     17  C2  LVY d   1      85.153 156.878  15.009  0.00  0.00    -0.030 C 
ATOM     18  C3  LVY d   1      84.846 158.363  15.282  0.00  0.00     0.012 C 
ATOM     19  H   LVY d   1      86.205 156.769  14.707  0.00  0.00     0.037 H 
ATOM     20  H   LVY d   1      84.971 156.290  15.921  0.00  0.00     0.037 H 
ATOM     21  C4  LVY d   1      85.010 159.150  14.003  0.00  0.00     0.224 C 
ATOM     22  H   LVY d   1      85.541 158.748  16.042  0.00  0.00     0.047 H 
ATOM     23  H   LVY d   1      83.813 158.464  15.646  0.00  0.00     0.047 H 
ATOM     24  N5  LVY d   1      84.782 158.539  12.808  0.00  0.00    -0.296 N 
ATOM     25  O19 LVY d   1      85.305 160.331  14.074  0.00  0.00    -0.273 OA
ATOM     26  C6  LVY d   1      84.432 157.230  12.643  0.00  0.00     0.247 C 
ATOM     27  H   LVY d   1      84.879 159.095  11.983  0.00  0.00     0.171 HD
ATOM     28  O18 LVY d   1      84.217 156.737  11.543  0.00  0.00    -0.271 OA
ATOM     29  H   LVY d   1      83.188 156.476  14.207  0.00  0.00     0.087 H 
ENDBRANCH   4  16
BRANCH   8  30
ATOM     30  N17 LVY d   1      87.576 152.361  11.975  0.00  0.00    -0.399 N 
ATOM     31  H   LVY d   1      87.892 153.338  12.058  0.00  0.00     0.156 HD
ATOM     32  H   LVY d   1      88.224 151.637  11.632  0.00  0.00     0.156 HD
ENDBRANCH   8  30
TORSDOF 2
