REMARK  1 active torsions:
REMARK  status: ('A' for Active; 'I' for Inactive)
REMARK    1  A    between atoms: N8_8  and  C12_12 
ROOT
ATOM      1  C1  Y70 d   1      -1.697   0.575 -11.315  0.00  0.00    -0.057 A 
ATOM      2  C2  Y70 d   1      -1.928  -0.638 -10.644  0.00  0.00    -0.080 A 
ATOM      3  C3  Y70 d   1      -3.149  -0.897 -10.015  0.00  0.00    -0.067 A 
ATOM      4  C4  Y70 d   1      -4.102   0.117 -10.068  0.00  0.00     0.050 A 
ATOM      5  C5  Y70 d   1      -3.853   1.331 -10.711  0.00  0.00     0.074 A 
ATOM      6  C6  Y70 d   1      -2.662   1.598 -11.366  0.00  0.00     0.042 A 
ATOM      7  C7  Y70 d   1      -5.496   0.211  -9.501  0.00  0.00     0.262 A 
ATOM      8  N8  Y70 d   1      -6.001   1.463  -9.828  0.00  0.00    -0.266 N 
ATOM      9  C9  Y70 d   1      -5.084   2.169 -10.557  0.00  0.00     0.264 A 
ATOM     10  N10 Y70 d   1      -2.485   2.787 -12.012  0.00  0.00    -0.398 N 
ATOM     11  O11 Y70 d   1      -5.171   3.289 -11.051  0.00  0.00    -0.267 OA
ATOM     12  O13 Y70 d   1      -5.993  -0.744  -8.881  0.00  0.00    -0.267 OA
ATOM     13  H   Y70 d   1      -0.744   0.728 -11.809  0.00  0.00     0.086 H 
ATOM     14  H   Y70 d   1      -1.145  -1.387 -10.614  0.00  0.00     0.083 H 
ATOM     15  H   Y70 d   1      -3.344  -1.837  -9.512  0.00  0.00     0.085 H 
ATOM     16  H   Y70 d   1      -1.598   2.982 -12.498  0.00  0.00     0.156 HD
ATOM     17  H   Y70 d   1      -3.238   3.489 -12.014  0.00  0.00     0.156 HD
ENDROOT
BRANCH   8  18
ATOM     18  C12 Y70 d   1      -7.336   1.965  -9.514  0.00  0.00     0.101 C 
ATOM     19  C14 Y70 d   1      -7.245   3.059  -8.420  0.00  0.00    -0.029 C 
ATOM     20  C18 Y70 d   1      -8.658   3.639  -8.167  0.00  0.00     0.012 C 
ATOM     21  H   Y70 d   1      -6.572   3.861  -8.756  0.00  0.00     0.037 H 
ATOM     22  H   Y70 d   1      -6.855   2.619  -7.490  0.00  0.00     0.037 H 
ATOM     23  C17 Y70 d   1      -9.277   4.117  -9.465  0.00  0.00     0.224 C 
ATOM     24  H   Y70 d   1      -8.582   4.486  -7.469  0.00  0.00     0.047 H 
ATOM     25  H   Y70 d   1      -9.296   2.858  -7.728  0.00  0.00     0.047 H 
ATOM     26  N16 Y70 d   1      -8.913   3.523 -10.632  0.00  0.00    -0.296 N 
ATOM     27  O20 Y70 d   1     -10.120   5.000  -9.428  0.00  0.00    -0.273 OA
ATOM     28  C15 Y70 d   1      -8.016   2.508 -10.758  0.00  0.00     0.247 C 
ATOM     29  H   Y70 d   1      -9.341   3.861 -11.470  0.00  0.00     0.171 HD
ATOM     30  O19 Y70 d   1      -7.766   1.995 -11.845  0.00  0.00    -0.271 OA
ATOM     31  H   Y70 d   1      -7.940   1.131  -9.126  0.00  0.00     0.088 H 
ENDBRANCH   8  18
TORSDOF 1
