REMARK  3 active torsions:
REMARK  status: ('A' for Active; 'I' for Inactive)
REMARK    1  A    between atoms: C4_4  and  C13_13 
REMARK    2  A    between atoms: C6_6  and  C7_7 
REMARK    3  A    between atoms: C13_13  and  C14_14 
ROOT
ATOM      1  C1  XO3 d   1      -5.396  -0.227  14.856  0.00  0.00    -0.034 C 
ATOM      2  C2  XO3 d   1      -5.111  -1.736  14.878  0.00  0.00     0.083 C 
ATOM      3  N3  XO3 d   1      -4.873  -2.050  16.311  0.00  0.00    -0.071 N 
ATOM      4  C4  XO3 d   1      -6.128  -1.903  17.075  0.00  0.00     0.106 C 
ATOM      5  C5  XO3 d   1      -6.487  -0.394  17.120  0.00  0.00    -0.029 C 
ATOM      6  C6  XO3 d   1      -6.679   0.033  15.665  0.00  0.00    -0.002 C 
ATOM      7  H   XO3 d   1      -5.536   0.110  13.818  0.00  0.00     0.036 H 
ATOM      8  H   XO3 d   1      -4.554   0.317  15.308  0.00  0.00     0.036 H 
ATOM      9  H   XO3 d   1      -4.222  -1.972  14.275  0.00  0.00     0.075 H 
ATOM     10  H   XO3 d   1      -5.974  -2.300  14.495  0.00  0.00     0.075 H 
ATOM     11  H   XO3 d   1      -4.181  -1.417  16.681  0.00  0.00     0.277 HD
ATOM     12  H   XO3 d   1      -4.540  -2.998  16.394  0.00  0.00     0.277 HD
ATOM     13  H   XO3 d   1      -6.937  -2.498  16.626  0.00  0.00     0.084 H 
ATOM     14  H   XO3 d   1      -5.671   0.180  17.583  0.00  0.00     0.037 H 
ATOM     15  H   XO3 d   1      -7.415  -0.238  17.690  0.00  0.00     0.037 H 
ATOM     16  H   XO3 d   1      -7.502  -0.542  15.216  0.00  0.00     0.050 H 
ENDROOT
BRANCH   4  17
ATOM     17  C13 XO3 d   1      -5.865  -2.316  18.520  0.00  0.00    -0.014 C 
ATOM     18  H   XO3 d   1      -5.256  -1.542  19.009  0.00  0.00     0.043 H 
ATOM     19  H   XO3 d   1      -5.319  -3.271  18.526  0.00  0.00     0.043 H 
BRANCH  17  20
ATOM     20  C14 XO3 d   1      -7.162  -2.483  19.288  0.00  0.00    -0.056 A 
ATOM     21  C15 XO3 d   1      -7.362  -1.748  20.449  0.00  0.00    -0.077 A 
ATOM     22  C16 XO3 d   1      -8.520  -1.915  21.193  0.00  0.00    -0.082 A 
ATOM     23  H   XO3 d   1      -6.609  -1.040  20.775  0.00  0.00     0.084 H 
ATOM     24  C17 XO3 d   1      -9.501  -2.795  20.760  0.00  0.00    -0.083 A 
ATOM     25  H   XO3 d   1      -8.659  -1.358  22.113  0.00  0.00     0.083 H 
ATOM     26  C18 XO3 d   1      -9.286  -3.542  19.613  0.00  0.00    -0.082 A 
ATOM     27  H   XO3 d   1     -10.427  -2.897  21.314  0.00  0.00     0.083 H 
ATOM     28  C19 XO3 d   1      -8.126  -3.382  18.871  0.00  0.00    -0.077 A 
ATOM     29  H   XO3 d   1     -10.033  -4.259  19.292  0.00  0.00     0.083 H 
ATOM     30  H   XO3 d   1      -7.975  -3.960  17.966  0.00  0.00     0.084 H 
ENDBRANCH  17  20
ENDBRANCH   4  17
BRANCH   6  31
ATOM     31  C7  XO3 d   1      -7.040   1.483  15.683  0.00  0.00     0.086 A 
ATOM     32  O8  XO3 d   1      -8.225   1.982  16.057  0.00  0.00    -0.239 OA
ATOM     33  N9  XO3 d   1      -8.245   3.197  15.962  0.00  0.00    -0.226 N 
ATOM     34  C10 XO3 d   1      -7.039   3.649  15.565  0.00  0.00     0.267 A 
ATOM     35  H   XO3 d   1      -9.040   3.774  16.151  0.00  0.00     0.198 HD
ATOM     36  C11 XO3 d   1      -6.217   2.504  15.376  0.00  0.00     0.015 A 
ATOM     37  O12 XO3 d   1      -6.702   4.793  15.376  0.00  0.00    -0.266 OA
ATOM     38  H   XO3 d   1      -5.176   2.463  15.060  0.00  0.00     0.096 H 
ENDBRANCH   6  31
TORSDOF 3
