REMARK  6 active torsions:
REMARK  status: ('A' for Active; 'I' for Inactive)
REMARK    1  A    between atoms: OAE_1  and  CAM_2 
REMARK    2  A    between atoms: CAL_3  and  OAD_4 
REMARK    3  A    between atoms: CAN_6  and  CAJ_7 
REMARK    4  A    between atoms: CAN_6  and  OAF_10 
REMARK    5  A    between atoms: CAK_12  and  CAH_13 
REMARK    6  A    between atoms: CAH_13  and  OAB_14 
ROOT
ATOM      1  CAM 48P d   1      13.379   2.704  40.993  0.00  0.00     0.084 C 
ATOM      2  CAL 48P d   1      11.873   2.398  41.086  0.00  0.00     0.067 C 
ATOM      3  CAI 48P d   1      11.438   1.533  39.918  0.00  0.00     0.003 C 
ATOM      4  CAN 48P d   1      11.670   2.291  38.612  0.00  0.00     0.166 C 
ATOM      5  CAG 48P d   1      12.892   2.968  38.593  0.00  0.00    -0.053 C 
ATOM      6  CAK 48P d   1      13.723   3.166  39.701  0.00  0.00    -0.026 C 
ATOM      7  H   48P d   1      13.944   1.782  41.195  0.00  0.00     0.094 H 
ATOM      8  H   48P d   1      11.312   3.344  41.067  0.00  0.00     0.087 H 
ATOM      9  H   48P d   1      10.369   1.292  40.018  0.00  0.00     0.042 H 
ATOM     10  H   48P d   1      12.025   0.603  39.912  0.00  0.00     0.042 H 
ATOM     11  H   48P d   1      13.225   3.374  37.639  0.00  0.00     0.083 H 
ENDROOT
BRANCH   4  12
ATOM     12  CAJ 48P d   1      11.659   1.395  37.524  0.00  0.00     0.213 C 
ATOM     13  OAC 48P d   1      10.741   1.524  36.691  0.00  0.00    -0.645 OA
ATOM     14  OAA 48P d   1      12.585   0.551  37.439  0.00  0.00    -0.645 OA
ENDBRANCH   4  12
BRANCH   4  15
ATOM     15  OAF 48P d   1      10.640   3.277  38.463  0.00  0.00    -0.375 OA
ATOM     16  H   48P d   1       9.794   2.846  38.426  0.00  0.00     0.211 HD
ENDBRANCH   4  15
BRANCH   2  17
ATOM     17  OAD 48P d   1      11.590   1.699  42.309  0.00  0.00    -0.393 OA
ATOM     18  H   48P d   1      11.847   2.239  43.047  0.00  0.00     0.210 HD
ENDBRANCH   2  17
BRANCH   6  19
ATOM     19  CAH 48P d   1      14.895   3.868  39.468  0.00  0.00     0.039 C 
ATOM     20  H   48P d   1      15.406   4.081  40.419  0.00  0.00     0.081 H 
ATOM     21  H   48P d   1      14.675   4.813  38.950  0.00  0.00     0.081 H 
BRANCH  19  22
ATOM     22  OAB 48P d   1      15.714   3.031  38.643  0.00  0.00    -0.397 OA
ATOM     23  H   48P d   1      16.533   3.475  38.457  0.00  0.00     0.209 HD
ENDBRANCH  19  22
ENDBRANCH   6  19
BRANCH   1  24
ATOM     24  OAE 48P d   1      13.708   3.683  41.996  0.00  0.00    -0.389 OA
ATOM     25  H   48P d   1      14.636   3.882  41.950  0.00  0.00     0.210 HD
ENDBRANCH   1  24
TORSDOF 6
