REMARK  8 active torsions:
REMARK  status: ('A' for Active; 'I' for Inactive)
REMARK    1  A    between atoms: CAQ_6  and  CAM_7 
REMARK    2  A    between atoms: CAM_7  and  CAR_8 
REMARK    3  A    between atoms: CAR_8  and  OAC_9 
REMARK    4  A    between atoms: CAR_8  and  CAP_10 
REMARK    5  A    between atoms: CAU_12  and  CAO_13 
REMARK    6  A    between atoms: CAU_12  and  OAF_16 
REMARK    7  A    between atoms: CAS_18  and  OAD_19 
REMARK    8  A    between atoms: CAT_20  and  OAE_21 
ROOT
ATOM      1  CAP W4N d   1       8.418 -28.717 -45.278  0.00  0.00    -0.021 C 
ATOM      2  CAG W4N d   1       7.270 -28.703 -44.483  0.00  0.00    -0.053 C 
ATOM      3  CAU W4N d   1       7.220 -29.066 -43.135  0.00  0.00     0.166 C 
ATOM      4  CAN W4N d   1       8.464 -29.796 -42.672  0.00  0.00     0.003 C 
ATOM      5  CAS W4N d   1       9.681 -29.059 -43.239  0.00  0.00     0.067 C 
ATOM      6  CAT W4N d   1       9.662 -29.126 -44.765  0.00  0.00     0.084 C 
ATOM      7  H   W4N d   1       6.340 -28.384 -44.951  0.00  0.00     0.083 H 
ATOM      8  H   W4N d   1       8.449 -30.832 -43.042  0.00  0.00     0.042 H 
ATOM      9  H   W4N d   1       8.508 -29.799 -41.573  0.00  0.00     0.042 H 
ATOM     10  H   W4N d   1       9.661 -28.010 -42.909  0.00  0.00     0.087 H 
ATOM     11  H   W4N d   1       9.853 -30.159 -45.091  0.00  0.00     0.094 H 
ENDROOT
BRANCH   1  12
ATOM     12  CAR W4N d   1       8.260 -28.337 -46.625  0.00  0.00     0.063 C 
ATOM     13  H   W4N d   1       7.350 -27.723 -46.701  0.00  0.00     0.090 H 
BRANCH  12  14
ATOM     14  CAM W4N d   1       8.081 -29.588 -47.484  0.00  0.00    -0.013 C 
ATOM     15  H   W4N d   1       8.305 -29.343 -48.533  0.00  0.00     0.044 H 
ATOM     16  H   W4N d   1       8.771 -30.370 -47.135  0.00  0.00     0.044 H 
BRANCH  14  17
ATOM     17  CAQ W4N d   1       6.765 -30.056 -47.389  0.00  0.00    -0.056 A 
ATOM     18  CAK W4N d   1       6.462 -31.147 -46.560  0.00  0.00    -0.077 A 
ATOM     19  CAI W4N d   1       5.152 -31.622 -46.471  0.00  0.00    -0.082 A 
ATOM     20  H   W4N d   1       7.249 -31.623 -45.986  0.00  0.00     0.084 H 
ATOM     21  CAH W4N d   1       4.144 -31.002 -47.207  0.00  0.00    -0.083 A 
ATOM     22  H   W4N d   1       4.920 -32.468 -45.834  0.00  0.00     0.083 H 
ATOM     23  CAJ W4N d   1       4.434 -29.915 -48.035  0.00  0.00    -0.082 A 
ATOM     24  H   W4N d   1       3.126 -31.367 -47.136  0.00  0.00     0.083 H 
ATOM     25  CAL W4N d   1       5.743 -29.443 -48.127  0.00  0.00    -0.077 A 
ATOM     26  H   W4N d   1       3.644 -29.440 -48.605  0.00  0.00     0.083 H 
ATOM     27  H   W4N d   1       5.971 -28.601 -48.770  0.00  0.00     0.084 H 
ENDBRANCH  14  17
ENDBRANCH  12  14
BRANCH  12  28
ATOM     28  OAC W4N d   1       9.368 -27.556 -47.131  0.00  0.00    -0.391 OA
ATOM     29  H   W4N d   1      10.162 -28.077 -47.100  0.00  0.00     0.210 HD
ENDBRANCH  12  28
ENDBRANCH   1  12
BRANCH   6  30
ATOM     30  OAE W4N d   1      10.720 -28.278 -45.219  0.00  0.00    -0.389 OA
ATOM     31  H   W4N d   1      10.747 -28.288 -46.169  0.00  0.00     0.210 HD
ENDBRANCH   6  30
BRANCH   3  32
ATOM     32  CAO W4N d   1       6.087 -29.882 -42.956  0.00  0.00     0.213 C 
ATOM     33  OAB W4N d   1       6.242 -31.110 -42.789  0.00  0.00    -0.645 OA
ATOM     34  OAA W4N d   1       4.981 -29.318 -43.005  0.00  0.00    -0.645 OA
ENDBRANCH   3  32
BRANCH   3  35
ATOM     35  OAF W4N d   1       7.054 -27.890 -42.349  0.00  0.00    -0.375 OA
ATOM     36  H   W4N d   1       6.273 -27.429 -42.631  0.00  0.00     0.211 HD
ENDBRANCH   3  35
BRANCH   5  37
ATOM     37  OAD W4N d   1      10.908 -29.697 -42.786  0.00  0.00    -0.393 OA
ATOM     38  H   W4N d   1      11.656 -29.232 -43.143  0.00  0.00     0.210 HD
ENDBRANCH   5  37
TORSDOF 8
