REMARK  6 active torsions:
REMARK  status: ('A' for Active; 'I' for Inactive)
REMARK    1  A    between atoms: C1_1  and  C16_11 
REMARK    2  A    between atoms: C1_1  and  C17_12 
REMARK    3  A    between atoms: C5_5  and  C18_13 
REMARK    4  A    between atoms: C6_6  and  C7_7 
REMARK    5  A    between atoms: C8_8  and  C9_9 
REMARK    6  A    between atoms: C9_9  and  C19_14 
ROOT
ATOM      1  C1  RET d   1      -6.068  15.182  12.290  0.00  0.00    -0.041 C 
ATOM      2  C2  RET d   1      -7.093  14.759  13.354  0.00  0.00    -0.058 C 
ATOM      3  C3  RET d   1      -8.332  15.639  13.302  0.00  0.00    -0.064 C 
ATOM      4  C4  RET d   1      -9.047  15.475  11.971  0.00  0.00    -0.061 C 
ATOM      5  C5  RET d   1      -8.115  15.221  10.823  0.00  0.00    -0.050 C 
ATOM      6  C6  RET d   1      -6.773  15.283  10.955  0.00  0.00    -0.028 C 
ATOM      7  H   RET d   1      -6.633  14.845  14.350  0.00  0.00     0.034 H 
ATOM      8  H   RET d   1      -7.387  13.714  13.174  0.00  0.00     0.034 H 
ATOM      9  H   RET d   1      -8.034  16.691  13.426  0.00  0.00     0.033 H 
ATOM     10  H   RET d   1      -9.014  15.353  14.117  0.00  0.00     0.033 H 
ATOM     11  H   RET d   1      -9.614  16.395  11.764  0.00  0.00     0.033 H 
ATOM     12  H   RET d   1      -9.742  14.626  12.050  0.00  0.00     0.033 H 
ATOM     13  H   RET d   1      -8.191  16.237  10.409  0.00  0.00     0.040 H 
ATOM     14  H   RET d   1      -6.749  16.382  10.920  0.00  0.00     0.047 H 
ENDROOT
BRANCH   6  15
ATOM     15  C7  RET d   1      -5.906  15.091   9.799  0.00  0.00    -0.098 C 
ATOM     16  C8  RET d   1      -4.977  15.921   9.322  0.00  0.00    -0.081 C 
ATOM     17  H   RET d   1      -4.717  16.809   9.896  0.00  0.00     0.083 H 
ATOM     18  H   RET d   1      -6.032  14.154   9.258  0.00  0.00     0.077 H 
BRANCH  16  19
ATOM     19  C9  RET d   1      -4.297  15.673   8.049  0.00  0.00    -0.072 C 
ATOM     20  C10 RET d   1      -2.956  15.842   7.931  0.00  0.00    -0.116 C 
ATOM     21  H   RET d   1      -2.465  15.653   6.977  0.00  0.00     0.067 H 
ATOM     22  H   RET d   1      -2.370  16.166   8.790  0.00  0.00     0.067 H 
BRANCH  19  23
ATOM     23  C19 RET d   1      -5.152  15.225   6.895  0.00  0.00    -0.052 C 
ATOM     24  H   RET d   1      -6.201  15.157   7.220  0.00  0.00     0.033 H 
ATOM     25  H   RET d   1      -4.811  14.238   6.548  0.00  0.00     0.033 H 
ATOM     26  H   RET d   1      -5.069  15.952   6.073  0.00  0.00     0.033 H 
ENDBRANCH  19  23
ENDBRANCH  16  19
ENDBRANCH   6  15
BRANCH   1  27
ATOM     27  C16 RET d   1      -5.429  16.535  12.674  0.00  0.00    -0.069 C 
ATOM     28  H   RET d   1      -4.923  16.439  13.646  0.00  0.00     0.028 H 
ATOM     29  H   RET d   1      -6.212  17.304  12.743  0.00  0.00     0.028 H 
ATOM     30  H   RET d   1      -4.697  16.826  11.906  0.00  0.00     0.028 H 
ENDBRANCH   1  27
BRANCH   1  31
ATOM     31  C17 RET d   1      -4.934  14.143  12.251  0.00  0.00    -0.069 C 
ATOM     32  H   RET d   1      -5.347  13.160  11.980  0.00  0.00     0.028 H 
ATOM     33  H   RET d   1      -4.459  14.081  13.241  0.00  0.00     0.028 H 
ATOM     34  H   RET d   1      -4.186  14.445  11.504  0.00  0.00     0.028 H 
ENDBRANCH   1  31
BRANCH   5  35
ATOM     35  C18 RET d   1      -8.758  14.552   9.658  0.00  0.00    -0.072 C 
ATOM     36  H   RET d   1      -9.852  14.620   9.754  0.00  0.00     0.028 H 
ATOM     37  H   RET d   1      -8.457  13.494   9.630  0.00  0.00     0.028 H 
ATOM     38  H   RET d   1      -8.440  15.048   8.729  0.00  0.00     0.028 H 
ENDBRANCH   5  35
TORSDOF 6
