REMARK  5 active torsions:
REMARK  status: ('A' for Active; 'I' for Inactive)
REMARK    1  A    between atoms: O5'_1  and  C5'_2 
REMARK    2  A    between atoms: C5'_2  and  C4'_3 
REMARK    3  A    between atoms: C3'_5  and  O3'_6 
REMARK    4  A    between atoms: C2'_7  and  O2'_8 
REMARK    5  A    between atoms: C1'_9  and  N9_10 
ROOT
ATOM      1  C4' ADN d   1      64.735   8.378   8.292  0.00  0.00     0.088 C 
ATOM      2  O4' ADN d   1      63.296   8.334   8.492  0.00  0.00    -0.353 OA
ATOM      3  C3' ADN d   1      65.350   8.695   9.658  0.00  0.00     0.091 C 
ATOM      4  C2' ADN d   1      64.261   8.261  10.628  0.00  0.00     0.105 C 
ATOM      5  C1' ADN d   1      62.998   8.605   9.845  0.00  0.00     0.139 C 
ATOM      6  H   ADN d   1      64.986   9.197   7.602  0.00  0.00     0.090 H 
ATOM      7  H   ADN d   1      66.294   8.155   9.823  0.00  0.00     0.091 H 
ATOM      8  H   ADN d   1      64.324   7.179  10.813  0.00  0.00     0.093 H 
ATOM      9  H   ADN d   1      62.762   9.670   9.983  0.00  0.00     0.122 H 
ENDROOT
BRANCH   5  10
ATOM     10  N9  ADN d   1      61.832   7.807  10.222  0.00  0.00    -0.294 N 
ATOM     11  C8  ADN d   1      61.679   6.484   9.994  0.00  0.00     0.071 A 
ATOM     12  N7  ADN d   1      60.484   6.051  10.472  0.00  0.00    -0.236 NA
ATOM     13  H   ADN d   1      62.413   5.852   9.496  0.00  0.00     0.144 H 
ATOM     14  C5  ADN d   1      59.862   7.120  11.024  0.00  0.00     0.149 A 
ATOM     15  C6  ADN d   1      58.572   7.368  11.706  0.00  0.00     0.155 A 
ATOM     16  C4  ADN d   1      60.757   8.273  10.857  0.00  0.00     0.167 A 
ATOM     17  N6  ADN d   1      57.684   6.362  11.905  0.00  0.00    -0.382 N 
ATOM     18  N1  ADN d   1      58.311   8.627  12.122  0.00  0.00    -0.222 NA
ATOM     19  H   ADN d   1      56.790   6.551  12.381  0.00  0.00     0.157 HD
ATOM     20  H   ADN d   1      57.903   5.410  11.580  0.00  0.00     0.157 HD
ATOM     21  C2  ADN d   1      59.186   9.635  11.934  0.00  0.00     0.091 A 
ATOM     22  N3  ADN d   1      60.371   9.487  11.321  0.00  0.00    -0.222 NA
ATOM     23  H   ADN d   1      58.918  10.620  12.298  0.00  0.00     0.146 H 
ENDBRANCH   5  10
BRANCH   4  24
ATOM     24  O2' ADN d   1      64.296   8.928  11.870  0.00  0.00    -0.388 OA
ATOM     25  H   ADN d   1      64.190   9.862  11.730  0.00  0.00     0.210 HD
ENDBRANCH   4  24
BRANCH   1  26
ATOM     26  C5' ADN d   1      65.189   7.084   7.654  0.00  0.00     0.043 C 
ATOM     27  H   ADN d   1      64.710   6.987   6.669  0.00  0.00     0.078 H 
ATOM     28  H   ADN d   1      66.281   7.115   7.529  0.00  0.00     0.078 H 
BRANCH  26  29
ATOM     29  O5' ADN d   1      64.849   5.949   8.443  0.00  0.00    -0.398 OA
ATOM     30  H   ADN d   1      63.906   5.911   8.551  0.00  0.00     0.209 HD
ENDBRANCH  26  29
ENDBRANCH   1  26
BRANCH   3  31
ATOM     31  O3' ADN d   1      65.541  10.106   9.779  0.00  0.00    -0.390 OA
ATOM     32  H   ADN d   1      65.923  10.301  10.627  0.00  0.00     0.210 HD
ENDBRANCH   3  31
TORSDOF 5
