REMARK  6 active torsions:
REMARK  status: ('A' for Active; 'I' for Inactive)
REMARK    1  A    between atoms: O5'_1  and  C5'_2 
REMARK    2  A    between atoms: C5'_2  and  C4'_3 
REMARK    3  A    between atoms: C3'_5  and  O3'_6 
REMARK    4  A    between atoms: C2'_7  and  O2'_8 
REMARK    5  A    between atoms: C1'_9  and  N9_10 
REMARK    6  A    between atoms: C6_14  and  N6_15 
ROOT
ATOM      1  C4' ADN d   1      29.242  10.859   8.662  0.00  0.00     0.088 C 
ATOM      2  O4' ADN d   1      27.847  11.196   8.447  0.00  0.00    -0.353 OA
ATOM      3  C3' ADN d   1      29.377  10.761  10.177  0.00  0.00     0.091 C 
ATOM      4  C2' ADN d   1      28.393  11.780  10.682  0.00  0.00     0.105 C 
ATOM      5  C1' ADN d   1      27.282  11.693   9.641  0.00  0.00     0.139 C 
ATOM      6  H   ADN d   1      29.893  11.666   8.294  0.00  0.00     0.090 H 
ATOM      7  H   ADN d   1      29.123   9.751  10.533  0.00  0.00     0.091 H 
ATOM      8  H   ADN d   1      28.048  11.580  11.707  0.00  0.00     0.093 H 
ATOM      9  H   ADN d   1      26.872  12.701   9.477  0.00  0.00     0.122 H 
ENDROOT
BRANCH   5  10
ATOM     10  N9  ADN d   1      26.183  10.786  10.006  0.00  0.00    -0.294 N 
ATOM     11  C8  ADN d   1      26.055   9.438   9.733  0.00  0.00     0.071 A 
ATOM     12  N7  ADN d   1      24.939   8.911  10.167  0.00  0.00    -0.236 NA
ATOM     13  H   ADN d   1      26.815   8.865   9.204  0.00  0.00     0.144 H 
ATOM     14  C5  ADN d   1      24.270  10.000  10.743  0.00  0.00     0.149 A 
ATOM     15  C6  ADN d   1      23.046  10.105  11.413  0.00  0.00     0.155 A 
ATOM     16  C4  ADN d   1      25.035  11.147  10.647  0.00  0.00     0.167 A 
ATOM     17  N1  ADN d   1      22.733  11.311  11.952  0.00  0.00    -0.222 NA
ATOM     18  C2  ADN d   1      23.578  12.337  11.793  0.00  0.00     0.091 A 
ATOM     19  N3  ADN d   1      24.749  12.363  11.160  0.00  0.00    -0.222 NA
ATOM     20  H   ADN d   1      23.267  13.274  12.240  0.00  0.00     0.146 H 
BRANCH  15  21
ATOM     21  N6  ADN d   1      22.190   9.094  11.583  0.00  0.00    -0.382 N 
ATOM     22  H   ADN d   1      21.306   9.247  12.088  0.00  0.00     0.157 HD
ATOM     23  H   ADN d   1      22.414   8.161  11.209  0.00  0.00     0.157 HD
ENDBRANCH  15  21
ENDBRANCH   5  10
BRANCH   4  24
ATOM     24  O2' ADN d   1      28.990  13.069  10.555  0.00  0.00    -0.388 OA
ATOM     25  H   ADN d   1      29.788  13.099  11.070  0.00  0.00     0.210 HD
ENDBRANCH   4  24
BRANCH   1  26
ATOM     26  C5' ADN d   1      29.574   9.603   7.900  0.00  0.00     0.043 C 
ATOM     27  H   ADN d   1      29.034   9.604   6.942  0.00  0.00     0.078 H 
ATOM     28  H   ADN d   1      30.657   9.567   7.710  0.00  0.00     0.078 H 
BRANCH  26  29
ATOM     29  O5' ADN d   1      29.190   8.464   8.656  0.00  0.00    -0.398 OA
ATOM     30  H   ADN d   1      29.657   8.462   9.483  0.00  0.00     0.209 HD
ENDBRANCH  26  29
ENDBRANCH   1  26
BRANCH   3  31
ATOM     31  O3' ADN d   1      30.678  11.097  10.589  0.00  0.00    -0.390 OA
ATOM     32  H   ADN d   1      30.873  11.988  10.322  0.00  0.00     0.210 HD
ENDBRANCH   3  31
TORSDOF 6
