REMARK  10 active torsions:
REMARK  status: ('A' for Active; 'I' for Inactive)
REMARK    1  A    between atoms: C01_1  and  C02_2 
REMARK    2  A    between atoms: C02_2  and  N03_3 
REMARK    3  A    between atoms: N06_6  and  C09_9 
REMARK    4  A    between atoms: C09_9  and  C10_10 
REMARK    5  A    between atoms: C13_13  and  C20_20 
REMARK    6  A    between atoms: C15_15  and  C16_16 
REMARK       I    between atoms: C20_20  and  N21_21 
REMARK    7  A    between atoms: N21_21  and  C22_22 
REMARK    8  A    between atoms: C25_25  and  C26_26 
REMARK    9  A    between atoms: C27_27  and  O29_29 
REMARK   10  A    between atoms: O29_29  and  C30_30 
ROOT
ATOM      1  C10 DI1 d   1      -2.617  35.411  14.695  0.00  0.00    -0.017 A 
ATOM      2  C11 DI1 d   1      -1.922  36.380  13.987  0.00  0.00    -0.073 A 
ATOM      3  C12 DI1 d   1      -0.667  36.122  13.477  0.00  0.00    -0.067 A 
ATOM      4  C13 DI1 d   1      -0.085  34.875  13.648  0.00  0.00     0.033 A 
ATOM      5  C14 DI1 d   1      -0.765  33.906  14.368  0.00  0.00    -0.052 A 
ATOM      6  C15 DI1 d   1      -2.023  34.165  14.895  0.00  0.00     0.056 A 
ATOM      7  H   DI1 d   1      -2.372  37.354  13.832  0.00  0.00     0.084 H 
ATOM      8  H   DI1 d   1      -0.133  36.898  12.940  0.00  0.00     0.085 H 
ATOM      9  H   DI1 d   1      -0.309  32.934  14.522  0.00  0.00     0.086 H 
ENDROOT
BRANCH   4  10
ATOM     10  C20 DI1 d   1       1.287  34.501  13.210  0.00  0.00     0.256 C 
ATOM     11  N21 DI1 d   1       2.095  35.522  12.851  0.00  0.00    -0.323 N 
ATOM     12  H   DI1 d   1       1.677  36.429  12.805  0.00  0.00     0.169 HD
ATOM     13  O40 DI1 d   1       1.596  33.327  13.094  0.00  0.00    -0.267 OA
BRANCH  11  14
ATOM     14  C22 DI1 d   1       3.469  35.440  12.534  0.00  0.00     0.037 A 
ATOM     15  C23 DI1 d   1       4.422  36.191  13.198  0.00  0.00    -0.057 A 
ATOM     16  C24 DI1 d   1       5.755  36.054  12.872  0.00  0.00    -0.072 A 
ATOM     17  H   DI1 d   1       4.122  36.886  13.973  0.00  0.00     0.086 H 
ATOM     18  C25 DI1 d   1       6.175  35.155  11.905  0.00  0.00    -0.028 A 
ATOM     19  H   DI1 d   1       6.491  36.663  13.384  0.00  0.00     0.084 H 
ATOM     20  C27 DI1 d   1       5.196  34.427  11.227  0.00  0.00     0.084 A 
ATOM     21  C28 DI1 d   1       3.860  34.576  11.527  0.00  0.00    -0.024 A 
ATOM     22  H   DI1 d   1       3.115  34.016  10.974  0.00  0.00     0.091 H 
BRANCH  18  23
ATOM     23  C26 DI1 d   1       7.636  34.976  11.612  0.00  0.00    -0.049 C 
ATOM     24  H   DI1 d   1       8.224  35.645  12.258  0.00  0.00     0.033 H 
ATOM     25  H   DI1 d   1       7.831  35.220  10.557  0.00  0.00     0.033 H 
ATOM     26  H   DI1 d   1       7.924  33.932  11.806  0.00  0.00     0.033 H 
ENDBRANCH  18  23
BRANCH  20  27
ATOM     27  O29 DI1 d   1       5.336  33.340  10.431  0.00  0.00    -0.310 OA
BRANCH  27  28
ATOM     28  C30 DI1 d   1       6.222  32.304  10.438  0.00  0.00     0.076 A 
ATOM     29  C31 DI1 d   1       6.572  31.776   9.214  0.00  0.00    -0.048 A 
ATOM     30  C32 DI1 d   1       7.198  30.548   9.146  0.00  0.00    -0.054 A 
ATOM     31  H   DI1 d   1       6.356  32.325   8.305  0.00  0.00     0.087 H 
ATOM     32  C33 DI1 d   1       7.494  29.881  10.315  0.00  0.00     0.041 A 
ATOM     33  H   DI1 d   1       7.453  30.114   8.186  0.00  0.00     0.087 H 
ATOM     34  C34 DI1 d   1       7.160  30.418  11.552  0.00  0.00    -0.020 A 
ATOM     35  N37 DI1 d   1       8.141  28.674  10.498  0.00  0.00    -0.326 N 
ATOM     36  C35 DI1 d   1       7.633  29.468  12.606  0.00  0.00     0.035 A 
ATOM     37  C39 DI1 d   1       6.520  31.642  11.619  0.00  0.00    -0.042 A 
ATOM     38  C36 DI1 d   1       8.248  28.351  11.813  0.00  0.00     0.226 A 
ATOM     39  H   DI1 d   1       6.792  29.103  13.214  0.00  0.00     0.054 H 
ATOM     40  H   DI1 d   1       8.379  29.944  13.260  0.00  0.00     0.054 H 
ATOM     41  O38 DI1 d   1       8.745  27.330  12.244  0.00  0.00    -0.273 OA
ATOM     42  H   DI1 d   1       6.256  32.076  12.577  0.00  0.00     0.088 H 
ATOM     43  H   DI1 d   1       8.489  28.106   9.752  0.00  0.00     0.169 HD
ENDBRANCH  27  28
ENDBRANCH  20  27
ENDBRANCH  11  14
ENDBRANCH   4  10
BRANCH   6  44
ATOM     44  C16 DI1 d   1      -2.712  33.071  15.634  0.00  0.00     0.418 C 
ATOM     45  F17 DI1 d   1      -3.081  33.425  16.780  0.00  0.00    -0.166 F 
ATOM     46  F18 DI1 d   1      -1.987  32.025  15.783  0.00  0.00    -0.166 F 
ATOM     47  F19 DI1 d   1      -3.746  32.669  15.051  0.00  0.00    -0.166 F 
ENDBRANCH   6  44
BRANCH   1  48
ATOM     48  C09 DI1 d   1      -4.016  35.685  15.185  0.00  0.00     0.108 C 
ATOM     49  H   DI1 d   1      -4.509  34.726  15.405  0.00  0.00     0.083 H 
ATOM     50  H   DI1 d   1      -3.958  36.287  16.104  0.00  0.00     0.083 H 
BRANCH  48  51
ATOM     51  N06 DI1 d   1      -4.814  36.409  14.197  0.00  0.00    -0.064 N 
ATOM     52  C05 DI1 d   1      -6.056  36.931  14.779  0.00  0.00     0.106 C 
ATOM     53  C04 DI1 d   1      -6.843  37.709  13.739  0.00  0.00     0.106 C 
ATOM     54  H   DI1 d   1      -6.667  36.091  15.142  0.00  0.00     0.078 H 
ATOM     55  H   DI1 d   1      -5.810  37.596  15.620  0.00  0.00     0.078 H 
ATOM     56  N03 DI1 d   1      -7.117  36.874  12.565  0.00  0.00    -0.068 N 
ATOM     57  H   DI1 d   1      -7.796  38.038  14.179  0.00  0.00     0.078 H 
ATOM     58  H   DI1 d   1      -6.260  38.589  13.428  0.00  0.00     0.078 H 
ATOM     59  C08 DI1 d   1      -5.859  36.358  12.013  0.00  0.00     0.106 C 
ATOM     60  H   DI1 d   1      -7.705  36.103  12.840  0.00  0.00     0.280 HD
ATOM     61  C07 DI1 d   1      -5.117  35.569  13.043  0.00  0.00     0.106 C 
ATOM     62  H   DI1 d   1      -5.235  37.202  11.685  0.00  0.00     0.078 H 
ATOM     63  H   DI1 d   1      -6.081  35.710  11.152  0.00  0.00     0.078 H 
ATOM     64  H   DI1 d   1      -5.736  34.718  13.365  0.00  0.00     0.078 H 
ATOM     65  H   DI1 d   1      -4.178  35.196  12.608  0.00  0.00     0.078 H 
ATOM     66  H   DI1 d   1      -4.268  37.193  13.877  0.00  0.00     0.280 HD
BRANCH  56  67
ATOM     67  C02 DI1 d   1      -7.791  37.651  11.529  0.00  0.00     0.080 C 
ATOM     68  H   DI1 d   1      -7.150  38.509  11.279  0.00  0.00     0.075 H 
ATOM     69  H   DI1 d   1      -7.904  37.008  10.644  0.00  0.00     0.075 H 
BRANCH  67  70
ATOM     70  C01 DI1 d   1      -9.126  38.171  11.886  0.00  0.00    -0.053 C 
ATOM     71  H   DI1 d   1      -9.538  38.737  11.037  0.00  0.00     0.029 H 
ATOM     72  H   DI1 d   1      -9.040  38.832  12.761  0.00  0.00     0.029 H 
ATOM     73  H   DI1 d   1      -9.795  37.331  12.126  0.00  0.00     0.029 H 
ENDBRANCH  67  70
ENDBRANCH  56  67
ENDBRANCH  48  51
ENDBRANCH   1  48
TORSDOF 10
