REMARK  22 active torsions:
REMARK  status: ('A' for Active; 'I' for Inactive)
REMARK    1  A    between atoms: C15_2  and  C25_3 
REMARK       I    between atoms: C15_2  and  N1_26 
REMARK    2  A    between atoms: C27_6  and  N2_7 
REMARK    3  A    between atoms: C23_16  and  C28_17 
REMARK       I    between atoms: C28_17  and  N3_18 
REMARK    4  A    between atoms: N3_18  and  C33_19 
REMARK    5  A    between atoms: N3_18  and  C36_22 
REMARK    6  A    between atoms: C33_19  and  C34_20 
REMARK    7  A    between atoms: C34_20  and  C35_21 
REMARK    8  A    between atoms: C36_22  and  C37_23 
REMARK    9  A    between atoms: C37_23  and  C38_24 
REMARK   10  A    between atoms: N1_26  and  C11_27 
REMARK   11  A    between atoms: C11_27  and  C14_28 
REMARK   12  A    between atoms: C11_27  and  C10_35 
REMARK   13  A    between atoms: C14_28  and  C19_29 
REMARK   14  A    between atoms: C10_35  and  O2_36 
REMARK   15  A    between atoms: C10_35  and  C9_37 
REMARK   16  A    between atoms: C9_37  and  N4_38 
REMARK   17  A    between atoms: N4_38  and  C7_39 
REMARK   18  A    between atoms: C7_39  and  C12_40 
REMARK   19  A    between atoms: C7_39  and  C13_41 
REMARK   20  A    between atoms: C7_39  and  C3_42 
REMARK   21  A    between atoms: C5_46  and  O1_48 
REMARK   22  A    between atoms: O1_48  and  C8_49 
ROOT
ATOM      1  O3  P2F d   1      -0.267 -12.492 -45.211  0.00  0.00    -0.268 OA
ATOM      2  C15 P2F d   1      -0.452 -13.414 -45.953  0.00  0.00     0.252 C 
ATOM      3  N1  P2F d   1      -1.528 -13.461 -46.792  0.00  0.00    -0.349 N 
ATOM      4  H   P2F d   1      -1.688 -14.253 -47.381  0.00  0.00     0.163 HD
ENDROOT
BRANCH   3   5
ATOM      5  C11 P2F d   1      -2.451 -12.304 -46.804  0.00  0.00     0.042 C 
ATOM      6  H   P2F d   1      -2.014 -11.434 -46.293  0.00  0.00     0.077 H 
BRANCH   5   7
ATOM      7  C14 P2F d   1      -2.684 -12.007 -48.269  0.00  0.00    -0.020 C 
ATOM      8  H   P2F d   1      -3.425 -11.200 -48.369  0.00  0.00     0.043 H 
ATOM      9  H   P2F d   1      -3.056 -12.911 -48.774  0.00  0.00     0.043 H 
BRANCH   7  10
ATOM     10  C19 P2F d   1      -1.365 -11.573 -48.903  0.00  0.00    -0.056 A 
ATOM     11  C20 P2F d   1      -0.696 -12.372 -49.828  0.00  0.00    -0.077 A 
ATOM     12  C21 P2F d   1       0.536 -11.972 -50.366  0.00  0.00    -0.082 A 
ATOM     13  H   P2F d   1      -1.133 -13.315 -50.136  0.00  0.00     0.084 H 
ATOM     14  C16 P2F d   1       1.042 -10.739 -49.983  0.00  0.00    -0.083 A 
ATOM     15  H   P2F d   1       1.076 -12.607 -51.059  0.00  0.00     0.083 H 
ATOM     16  C17 P2F d   1       0.355  -9.951 -49.076  0.00  0.00    -0.082 A 
ATOM     17  H   P2F d   1       1.981 -10.390 -50.397  0.00  0.00     0.083 H 
ATOM     18  C18 P2F d   1      -0.859 -10.383 -48.511  0.00  0.00    -0.077 A 
ATOM     19  H   P2F d   1       0.759  -8.985 -48.796  0.00  0.00     0.083 H 
ATOM     20  H   P2F d   1      -1.377  -9.775 -47.778  0.00  0.00     0.084 H 
ENDBRANCH   7  10
ENDBRANCH   5   7
BRANCH   5  21
ATOM     21  C10 P2F d   1      -3.760 -12.731 -46.107  0.00  0.00     0.078 C 
ATOM     22  H   P2F d   1      -4.187 -13.608 -46.615  0.00  0.00     0.088 H 
BRANCH  21  23
ATOM     23  O2  P2F d   1      -4.668 -11.625 -46.149  0.00  0.00    -0.392 OA
ATOM     24  H   P2F d   1      -5.482 -11.869 -45.724  0.00  0.00     0.210 HD
ENDBRANCH  21  23
BRANCH  21  25
ATOM     25  C9  P2F d   1      -3.521 -13.040 -44.619  0.00  0.00     0.108 C 
ATOM     26  H   P2F d   1      -3.191 -12.128 -44.100  0.00  0.00     0.079 H 
ATOM     27  H   P2F d   1      -2.749 -13.817 -44.522  0.00  0.00     0.079 H 
BRANCH  25  28
ATOM     28  N4  P2F d   1      -4.796 -13.523 -44.020  0.00  0.00    -0.060 N 
ATOM     29  H   P2F d   1      -4.964 -14.464 -44.338  0.00  0.00     0.278 HD
ATOM     30  H   P2F d   1      -5.545 -12.924 -44.331  0.00  0.00     0.278 HD
BRANCH  28  31
ATOM     31  C7  P2F d   1      -4.775 -13.522 -42.526  0.00  0.00     0.145 C 
BRANCH  31  32
ATOM     32  C12 P2F d   1      -4.950 -12.098 -42.031  0.00  0.00    -0.042 C 
ATOM     33  H   P2F d   1      -4.936 -12.088 -40.931  0.00  0.00     0.031 H 
ATOM     34  H   P2F d   1      -5.911 -11.701 -42.389  0.00  0.00     0.031 H 
ATOM     35  H   P2F d   1      -4.130 -11.473 -42.414  0.00  0.00     0.031 H 
ENDBRANCH  31  32
BRANCH  31  36
ATOM     36  C13 P2F d   1      -5.955 -14.383 -42.063  0.00  0.00    -0.042 C 
ATOM     37  H   P2F d   1      -5.979 -14.411 -40.964  0.00  0.00     0.031 H 
ATOM     38  H   P2F d   1      -5.839 -15.405 -42.453  0.00  0.00     0.031 H 
ATOM     39  H   P2F d   1      -6.894 -13.951 -42.440  0.00  0.00     0.031 H 
ENDBRANCH  31  36
BRANCH  31  40
ATOM     40  C3  P2F d   1      -3.513 -14.183 -41.965  0.00  0.00    -0.021 A 
ATOM     41  C2  P2F d   1      -2.950 -15.344 -42.495  0.00  0.00    -0.074 A 
ATOM     42  C1  P2F d   1      -1.785 -15.984 -41.976  0.00  0.00    -0.080 A 
ATOM     43  H   P2F d   1      -3.430 -15.790 -43.359  0.00  0.00     0.084 H 
ATOM     44  C6  P2F d   1      -1.212 -15.434 -40.828  0.00  0.00    -0.051 A 
ATOM     45  H   P2F d   1      -1.363 -16.861 -42.453  0.00  0.00     0.083 H 
ATOM     46  C5  P2F d   1      -1.798 -14.300 -40.274  0.00  0.00     0.068 A 
ATOM     47  H   P2F d   1      -0.332 -15.880 -40.379  0.00  0.00     0.087 H 
ATOM     48  C4  P2F d   1      -2.919 -13.694 -40.841  0.00  0.00    -0.042 A 
ATOM     49  H   P2F d   1      -3.330 -12.807 -40.373  0.00  0.00     0.088 H 
BRANCH  46  50
ATOM     50  O1  P2F d   1      -1.322 -13.679 -39.147  0.00  0.00    -0.356 OA
BRANCH  50  51
ATOM     51  C8  P2F d   1       0.080 -13.470 -38.934  0.00  0.00     0.010 C 
ATOM     52  H   P2F d   1       0.232 -12.958 -37.972  0.00  0.00     0.066 H 
ATOM     53  H   P2F d   1       0.486 -12.851 -39.748  0.00  0.00     0.066 H 
ATOM     54  H   P2F d   1       0.597 -14.441 -38.919  0.00  0.00     0.066 H 
ENDBRANCH  50  51
ENDBRANCH  46  50
ENDBRANCH  31  40
ENDBRANCH  28  31
ENDBRANCH  25  28
ENDBRANCH  21  25
ENDBRANCH   5  21
ENDBRANCH   3   5
BRANCH   2  55
ATOM     55  C25 P2F d   1       0.471 -14.583 -45.984  0.00  0.00     0.035 A 
ATOM     56  C24 P2F d   1       0.797 -15.136 -47.223  0.00  0.00    -0.053 A 
ATOM     57  C23 P2F d   1       1.656 -16.219 -47.282  0.00  0.00     0.029 A 
ATOM     58  H   P2F d   1       0.380 -14.720 -48.133  0.00  0.00     0.086 H 
ATOM     59  C22 P2F d   1       2.153 -16.764 -46.126  0.00  0.00    -0.042 A 
ATOM     60  C27 P2F d   1       1.808 -16.224 -44.900  0.00  0.00     0.046 A 
ATOM     61  H   P2F d   1       2.817 -17.619 -46.173  0.00  0.00     0.088 H 
ATOM     62  C26 P2F d   1       0.971 -15.118 -44.807  0.00  0.00    -0.041 A 
ATOM     63  H   P2F d   1       0.717 -14.688 -43.845  0.00  0.00     0.088 H 
BRANCH  57  64
ATOM     64  C28 P2F d   1       2.019 -16.826 -48.591  0.00  0.00     0.233 C 
ATOM     65  N3  P2F d   1       3.022 -16.341 -49.421  0.00  0.00    -0.249 NA
ATOM     66  O6  P2F d   1       1.374 -17.804 -48.910  0.00  0.00    -0.274 OA
BRANCH  65  67
ATOM     67  C33 P2F d   1       3.813 -17.464 -49.982  0.00  0.00    -0.014 C 
ATOM     68  H   P2F d   1       3.637 -18.361 -49.370  0.00  0.00     0.056 H 
ATOM     69  H   P2F d   1       4.880 -17.198 -49.946  0.00  0.00     0.056 H 
BRANCH  67  70
ATOM     70  C34 P2F d   1       3.437 -17.771 -51.414  0.00  0.00    -0.057 C 
ATOM     71  H   P2F d   1       3.724 -16.926 -52.057  0.00  0.00     0.034 H 
ATOM     72  H   P2F d   1       2.351 -17.930 -51.481  0.00  0.00     0.034 H 
BRANCH  70  73
ATOM     73  C35 P2F d   1       4.161 -19.026 -51.875  0.00  0.00    -0.075 C 
ATOM     74  H   P2F d   1       3.885 -19.247 -52.917  0.00  0.00     0.027 H 
ATOM     75  H   P2F d   1       3.874 -19.872 -51.233  0.00  0.00     0.027 H 
ATOM     76  H   P2F d   1       5.247 -18.868 -51.809  0.00  0.00     0.027 H 
ENDBRANCH  70  73
ENDBRANCH  67  70
ENDBRANCH  65  67
BRANCH  65  77
ATOM     77  C36 P2F d   1       3.958 -15.423 -48.702  0.00  0.00    -0.014 C 
ATOM     78  H   P2F d   1       4.979 -15.829 -48.760  0.00  0.00     0.056 H 
ATOM     79  H   P2F d   1       3.653 -15.348 -47.648  0.00  0.00     0.056 H 
BRANCH  77  80
ATOM     80  C37 P2F d   1       3.934 -14.039 -49.329  0.00  0.00    -0.057 C 
ATOM     81  H   P2F d   1       2.893 -13.749 -49.533  0.00  0.00     0.034 H 
ATOM     82  H   P2F d   1       4.502 -14.056 -50.271  0.00  0.00     0.034 H 
BRANCH  80  83
ATOM     83  C38 P2F d   1       4.562 -13.028 -48.379  0.00  0.00    -0.075 C 
ATOM     84  H   P2F d   1       4.541 -12.030 -48.840  0.00  0.00     0.027 H 
ATOM     85  H   P2F d   1       5.604 -13.315 -48.174  0.00  0.00     0.027 H 
ATOM     86  H   P2F d   1       3.995 -13.009 -47.437  0.00  0.00     0.027 H 
ENDBRANCH  80  83
ENDBRANCH  77  80
ENDBRANCH  65  77
ENDBRANCH  57  64
BRANCH  60  87
ATOM     87  N2  P2F d   1       2.323 -16.788 -43.740  0.00  0.00    -0.276 N 
ATOM     88  C30 P2F d   1       1.750 -17.964 -43.131  0.00  0.00     0.010 C 
ATOM     89  C31 P2F d   1       2.776 -19.050 -43.413  0.00  0.00    -0.048 C 
ATOM     90  H   P2F d   1       0.781 -18.211 -43.589  0.00  0.00     0.066 H 
ATOM     91  H   P2F d   1       1.618 -17.821 -42.048  0.00  0.00     0.066 H 
ATOM     92  C32 P2F d   1       4.228 -18.561 -43.274  0.00  0.00    -0.050 C 
ATOM     93  H   P2F d   1       2.626 -19.414 -44.440  0.00  0.00     0.035 H 
ATOM     94  H   P2F d   1       2.615 -19.875 -42.704  0.00  0.00     0.035 H 
ATOM     95  C29 P2F d   1       4.384 -17.353 -42.366  0.00  0.00     0.047 C 
ATOM     96  H   P2F d   1       4.601 -18.294 -44.274  0.00  0.00     0.034 H 
ATOM     97  H   P2F d   1       4.833 -19.383 -42.864  0.00  0.00     0.034 H 
ATOM     98  S1  P2F d   1       3.497 -16.124 -43.051  0.00  0.00     0.233 S 
ATOM     99  H   P2F d   1       5.443 -17.064 -42.298  0.00  0.00     0.058 H 
ATOM    100  H   P2F d   1       4.001 -17.582 -41.361  0.00  0.00     0.058 H 
ATOM    101  O4  P2F d   1       4.313 -15.355 -43.945  0.00  0.00    -0.205 OA
ATOM    102  O5  P2F d   1       2.881 -15.339 -42.013  0.00  0.00    -0.205 OA
ENDBRANCH  60  87
ENDBRANCH   2  55
TORSDOF 22
