REMARK  17 active torsions:
REMARK  status: ('A' for Active; 'I' for Inactive)
REMARK    1  A    between atoms: C01_1  and  C05_2 
REMARK    2  A    between atoms: C05_2  and  C07_3 
REMARK    3  A    between atoms: C05_2  and  O11_4 
REMARK    4  A    between atoms: O11_4  and  C12_5 
REMARK       I    between atoms: C12_5  and  N14_7 
REMARK    5  A    between atoms: N14_7  and  C16_8 
REMARK    6  A    between atoms: C21_10  and  C23_11 
REMARK       I    between atoms: N27_12  and  C28_13 
REMARK    7  A    between atoms: C28_13  and  C29_14 
REMARK    8  A    between atoms: C39_19  and  C43_22 
REMARK    9  A    between atoms: C48_25  and  N49_26 
REMARK       I    between atoms: N49_26  and  C51_27 
REMARK   10  A    between atoms: C51_27  and  C53_29 
REMARK   11  A    between atoms: C53_29  and  C56_30 
REMARK   12  A    between atoms: C56_30  and  C59_31 
REMARK   13  A    between atoms: C59_31  and  C62_32 
REMARK   14  A    between atoms: C62_32  and  C65_33 
REMARK   15  A    between atoms: C65_33  and  C68_34 
REMARK   16  A    between atoms: C68_34  and  C71_35 
REMARK       I    between atoms: C71_35  and  N73_37 
REMARK   17  A    between atoms: N73_37  and  O75_38 
ROOT
ATOM      1  C16 IES d   1      27.704  49.162  -1.638  0.00  0.00     0.044 C 
ATOM      2  C18 IES d   1      26.259  49.643  -1.551  0.00  0.00    -0.023 C 
ATOM      3  C21 IES d   1      25.417  48.863  -0.537  0.00  0.00     0.018 C 
ATOM      4  N27 IES d   1      26.231  48.041   0.385  0.00  0.00    -0.313 N 
ATOM      5  C28 IES d   1      25.698  46.871   0.866  0.00  0.00     0.220 C 
ATOM      6  O33 IES d   1      24.571  46.525   0.540  0.00  0.00    -0.273 OA
ATOM      7  C34 IES d   1      27.510  48.561   0.744  0.00  0.00     0.046 A 
ATOM      8  C35 IES d   1      27.956  48.529   2.055  0.00  0.00    -0.056 A 
ATOM      9  C37 IES d   1      29.194  49.039   2.372  0.00  0.00    -0.070 A 
ATOM     10  C39 IES d   1      30.024  49.599   1.406  0.00  0.00    -0.025 A 
ATOM     11  C40 IES d   1      29.559  49.647   0.087  0.00  0.00    -0.062 A 
ATOM     12  C42 IES d   1      28.317  49.105  -0.257  0.00  0.00    -0.007 A 
ATOM     13  H   IES d   1      27.720  48.151  -2.071  0.00  0.00     0.080 H 
ATOM     14  H   IES d   1      25.796  49.537  -2.543  0.00  0.00     0.039 H 
ATOM     15  H   IES d   1      26.262  50.704  -1.259  0.00  0.00     0.039 H 
ATOM     16  H   IES d   1      24.813  48.157  -1.126  0.00  0.00     0.073 H 
ATOM     17  H   IES d   1      27.330  48.102   2.831  0.00  0.00     0.087 H 
ATOM     18  H   IES d   1      29.532  49.004   3.401  0.00  0.00     0.084 H 
ATOM     19  H   IES d   1      30.170  50.111  -0.679  0.00  0.00     0.085 H 
ENDROOT
BRANCH  10  20
ATOM     20  C43 IES d   1      31.347  50.152   1.794  0.00  0.00    -0.026 A 
ATOM     21  C44 IES d   1      31.896  51.261   1.153  0.00  0.00    -0.070 A 
ATOM     22  C46 IES d   1      33.102  51.804   1.564  0.00  0.00    -0.056 A 
ATOM     23  H   IES d   1      31.369  51.707   0.317  0.00  0.00     0.084 H 
ATOM     24  C48 IES d   1      33.771  51.272   2.662  0.00  0.00     0.034 A 
ATOM     25  H   IES d   1      33.526  52.646   1.029  0.00  0.00     0.086 H 
ATOM     26  C77 IES d   1      33.240  50.160   3.301  0.00  0.00    -0.056 A 
ATOM     27  C79 IES d   1      32.046  49.619   2.876  0.00  0.00    -0.070 A 
ATOM     28  H   IES d   1      33.767  49.715   4.138  0.00  0.00     0.086 H 
ATOM     29  H   IES d   1      31.640  48.758   3.396  0.00  0.00     0.084 H 
BRANCH  24  30
ATOM     30  N49 IES d   1      35.039  51.750   3.071  0.00  0.00    -0.327 N 
ATOM     31  C51 IES d   1      35.615  51.679   4.290  0.00  0.00     0.222 C 
ATOM     32  O52 IES d   1      35.066  51.220   5.287  0.00  0.00    -0.273 OA
ATOM     33  H   IES d   1      35.581  52.201   2.362  0.00  0.00     0.169 HD
BRANCH  31  34
ATOM     34  C53 IES d   1      37.037  52.178   4.344  0.00  0.00     0.010 C 
ATOM     35  H   IES d   1      37.190  52.733   5.281  0.00  0.00     0.047 H 
ATOM     36  H   IES d   1      37.218  52.846   3.489  0.00  0.00     0.047 H 
BRANCH  34  37
ATOM     37  C56 IES d   1      38.022  51.009   4.286  0.00  0.00    -0.057 C 
ATOM     38  H   IES d   1      37.831  50.357   5.152  0.00  0.00     0.033 H 
ATOM     39  H   IES d   1      39.042  51.417   4.351  0.00  0.00     0.033 H 
BRANCH  37  40
ATOM     40  C59 IES d   1      37.930  50.157   3.019  0.00  0.00    -0.065 C 
ATOM     41  H   IES d   1      38.426  50.705   2.204  0.00  0.00     0.033 H 
ATOM     42  H   IES d   1      36.866  50.023   2.776  0.00  0.00     0.033 H 
BRANCH  40  43
ATOM     43  C62 IES d   1      38.574  48.764   3.117  0.00  0.00    -0.065 C 
ATOM     44  H   IES d   1      38.411  48.242   2.163  0.00  0.00     0.033 H 
ATOM     45  H   IES d   1      38.076  48.211   3.927  0.00  0.00     0.033 H 
BRANCH  43  46
ATOM     46  C65 IES d   1      40.066  48.780   3.400  0.00  0.00    -0.057 C 
ATOM     47  H   IES d   1      40.226  49.179   4.412  0.00  0.00     0.033 H 
ATOM     48  H   IES d   1      40.555  49.437   2.665  0.00  0.00     0.033 H 
BRANCH  46  49
ATOM     49  C68 IES d   1      40.708  47.391   3.316  0.00  0.00     0.011 C 
ATOM     50  H   IES d   1      41.798  47.514   3.235  0.00  0.00     0.047 H 
ATOM     51  H   IES d   1      40.328  46.884   2.417  0.00  0.00     0.047 H 
BRANCH  49  52
ATOM     52  C71 IES d   1      40.410  46.525   4.518  0.00  0.00     0.240 C 
ATOM     53  O72 IES d   1      40.522  46.951   5.665  0.00  0.00    -0.271 OA
ATOM     54  N73 IES d   1      40.018  45.297   4.237  0.00  0.00    -0.237 N 
ATOM     55  H   IES d   1      39.937  44.997   3.287  0.00  0.00     0.197 HD
BRANCH  54  56
ATOM     56  O75 IES d   1      39.719  44.424   5.279  0.00  0.00    -0.287 OA
ATOM     57  H   IES d   1      39.012  44.785   5.800  0.00  0.00     0.244 HD
ENDBRANCH  54  56
ENDBRANCH  49  52
ENDBRANCH  46  49
ENDBRANCH  43  46
ENDBRANCH  40  43
ENDBRANCH  37  40
ENDBRANCH  34  37
ENDBRANCH  31  34
ENDBRANCH  24  30
ENDBRANCH  10  20
BRANCH   1  58
ATOM     58  N14 IES d   1      28.456  50.064  -2.513  0.00  0.00    -0.328 N 
ATOM     59  C12 IES d   1      29.380  49.636  -3.394  0.00  0.00     0.361 C 
ATOM     60  O13 IES d   1      29.903  50.346  -4.222  0.00  0.00    -0.238 OA
ATOM     61  H   IES d   1      28.274  51.046  -2.453  0.00  0.00     0.165 HD
BRANCH  59  62
ATOM     62  O11 IES d   1      29.839  48.413  -3.055  0.00  0.00    -0.299 OA
BRANCH  62  63
ATOM     63  C05 IES d   1      31.014  47.893  -3.822  0.00  0.00     0.043 C 
ATOM     64  H   IES d   1      31.543  48.715  -4.326  0.00  0.00     0.083 H 
BRANCH  63  65
ATOM     65  C01 IES d   1      31.921  47.245  -2.823  0.00  0.00    -0.052 C 
ATOM     66  H   IES d   1      32.806  46.843  -3.338  0.00  0.00     0.030 H 
ATOM     67  H   IES d   1      31.387  46.426  -2.320  0.00  0.00     0.030 H 
ATOM     68  H   IES d   1      32.237  47.989  -2.077  0.00  0.00     0.030 H 
ENDBRANCH  63  65
BRANCH  63  69
ATOM     69  C07 IES d   1      30.508  46.933  -4.839  0.00  0.00    -0.052 C 
ATOM     70  H   IES d   1      29.849  47.460  -5.545  0.00  0.00     0.030 H 
ATOM     71  H   IES d   1      29.944  46.132  -4.339  0.00  0.00     0.030 H 
ATOM     72  H   IES d   1      31.357  46.497  -5.386  0.00  0.00     0.030 H 
ENDBRANCH  63  69
ENDBRANCH  62  63
ENDBRANCH  59  62
ENDBRANCH   1  58
BRANCH   3  73
ATOM     73  C23 IES d   1      24.432  49.737   0.220  0.00  0.00    -0.057 C 
ATOM     74  H   IES d   1      23.862  49.118   0.928  0.00  0.00     0.030 H 
ATOM     75  H   IES d   1      23.740  50.211  -0.492  0.00  0.00     0.030 H 
ATOM     76  H   IES d   1      24.980  50.515   0.772  0.00  0.00     0.030 H 
ENDBRANCH   3  73
BRANCH   5  77
ATOM     77  C29 IES d   1      26.533  46.028   1.780  0.00  0.00    -0.002 C 
ATOM     78  H   IES d   1      25.965  45.133   2.074  0.00  0.00     0.040 H 
ATOM     79  H   IES d   1      26.793  46.608   2.678  0.00  0.00     0.040 H 
ATOM     80  H   IES d   1      27.453  45.724   1.260  0.00  0.00     0.040 H 
ENDBRANCH   5  77
TORSDOF 17
