REMARK  11 active torsions:
REMARK  status: ('A' for Active; 'I' for Inactive)
REMARK    1  A    between atoms: C01_1  and  N05_2 
REMARK    2  A    between atoms: N05_2  and  C07_3 
REMARK    3  A    between atoms: C07_3  and  C10_4 
REMARK    4  A    between atoms: C15_7  and  C20_10 
REMARK       I    between atoms: N26_14  and  C56_28 
REMARK    5  A    between atoms: C27_15  and  C29_16 
REMARK    6  A    between atoms: C36_18  and  N38_19 
REMARK       I    between atoms: N38_19  and  C40_20 
REMARK    7  A    between atoms: C40_20  and  O42_22 
REMARK    8  A    between atoms: O42_22  and  C43_23 
REMARK    9  A    between atoms: C43_23  and  C45_24 
REMARK   10  A    between atoms: C43_23  and  C49_25 
REMARK   11  A    between atoms: C56_28  and  C57_29 
ROOT
ATOM      1  C20 83T d   1     -15.929   8.912  -6.361  0.00  0.00    -0.025 A 
ATOM      2  C21 83T d   1     -15.491   9.272  -7.633  0.00  0.00    -0.070 A 
ATOM      3  C23 83T d   1     -15.017  10.542  -7.902  0.00  0.00    -0.056 A 
ATOM      4  C25 83T d   1     -14.949  11.490  -6.888  0.00  0.00     0.046 A 
ATOM      5  N26 83T d   1     -14.456  12.812  -7.108  0.00  0.00    -0.313 N 
ATOM      6  C27 83T d   1     -15.231  13.918  -6.493  0.00  0.00     0.018 C 
ATOM      7  C33 83T d   1     -15.787  13.547  -5.111  0.00  0.00    -0.023 C 
ATOM      8  C36 83T d   1     -15.315  12.212  -4.538  0.00  0.00     0.044 C 
ATOM      9  C53 83T d   1     -15.354  11.158  -5.592  0.00  0.00    -0.007 A 
ATOM     10  C54 83T d   1     -15.854   9.875  -5.346  0.00  0.00    -0.062 A 
ATOM     11  C56 83T d   1     -13.321  13.122  -7.818  0.00  0.00     0.220 C 
ATOM     12  O61 83T d   1     -12.975  14.285  -7.954  0.00  0.00    -0.273 OA
ATOM     13  H   83T d   1     -15.523   8.539  -8.431  0.00  0.00     0.084 H 
ATOM     14  H   83T d   1     -14.698  10.799  -8.905  0.00  0.00     0.087 H 
ATOM     15  H   83T d   1     -14.522  14.743  -6.327  0.00  0.00     0.073 H 
ATOM     16  H   83T d   1     -16.884  13.512  -5.187  0.00  0.00     0.039 H 
ATOM     17  H   83T d   1     -15.494  14.339  -4.406  0.00  0.00     0.039 H 
ATOM     18  H   83T d   1     -14.274  12.326  -4.200  0.00  0.00     0.080 H 
ATOM     19  H   83T d   1     -16.191   9.620  -4.348  0.00  0.00     0.085 H 
ENDROOT
BRANCH   1  20
ATOM     20  C15 83T d   1     -16.438   7.536  -6.081  0.00  0.00    -0.026 A 
ATOM     21  C13 83T d   1     -16.098   6.457  -6.897  0.00  0.00    -0.072 A 
ATOM     22  C11 83T d   1     -16.565   5.181  -6.636  0.00  0.00    -0.074 A 
ATOM     23  H   83T d   1     -15.454   6.622  -7.754  0.00  0.00     0.084 H 
ATOM     24  C10 83T d   1     -17.400   4.931  -5.560  0.00  0.00    -0.033 A 
ATOM     25  H   83T d   1     -16.272   4.363  -7.285  0.00  0.00     0.084 H 
ATOM     26  C18 83T d   1     -17.738   5.993  -4.737  0.00  0.00    -0.074 A 
ATOM     27  C16 83T d   1     -17.270   7.272  -4.993  0.00  0.00    -0.072 A 
ATOM     28  H   83T d   1     -18.378   5.821  -3.880  0.00  0.00     0.084 H 
ATOM     29  H   83T d   1     -17.556   8.084  -4.334  0.00  0.00     0.084 H 
BRANCH  24  30
ATOM     30  C07 83T d   1     -17.885   3.530  -5.270  0.00  0.00     0.105 C 
ATOM     31  H   83T d   1     -17.166   2.812  -5.691  0.00  0.00     0.083 H 
ATOM     32  H   83T d   1     -17.943   3.394  -4.180  0.00  0.00     0.083 H 
BRANCH  30  33
ATOM     33  N05 83T d   1     -19.209   3.267  -5.850  0.00  0.00    -0.075 N 
ATOM     34  H   83T d   1     -19.853   3.972  -5.527  0.00  0.00     0.277 HD
ATOM     35  H   83T d   1     -19.140   3.310  -6.855  0.00  0.00     0.277 HD
BRANCH  33  36
ATOM     36  C01 83T d   1     -19.718   1.946  -5.465  0.00  0.00     0.065 C 
ATOM     37  H   83T d   1     -20.708   1.788  -5.918  0.00  0.00     0.067 H 
ATOM     38  H   83T d   1     -19.803   1.891  -4.370  0.00  0.00     0.067 H 
ATOM     39  H   83T d   1     -19.025   1.169  -5.819  0.00  0.00     0.067 H 
ENDBRANCH  33  36
ENDBRANCH  30  33
ENDBRANCH  24  30
ENDBRANCH   1  20
BRANCH   8  40
ATOM     40  N38 83T d   1     -16.131  11.830  -3.388  0.00  0.00    -0.328 N 
ATOM     41  C40 83T d   1     -15.616  11.294  -2.268  0.00  0.00     0.361 C 
ATOM     42  O41 83T d   1     -16.255  11.056  -1.266  0.00  0.00    -0.238 OA
ATOM     43  H   83T d   1     -17.119  11.974  -3.436  0.00  0.00     0.165 HD
BRANCH  41  44
ATOM     44  O42 83T d   1     -14.347  10.875  -2.477  0.00  0.00    -0.299 OA
BRANCH  44  45
ATOM     45  C43 83T d   1     -13.801   9.911  -1.512  0.00  0.00     0.043 C 
ATOM     46  H   83T d   1     -14.198  10.105  -0.505  0.00  0.00     0.083 H 
BRANCH  45  47
ATOM     47  C45 83T d   1     -12.315  10.086  -1.499  0.00  0.00    -0.052 C 
ATOM     48  H   83T d   1     -11.869   9.378  -0.785  0.00  0.00     0.030 H 
ATOM     49  H   83T d   1     -12.070  11.115  -1.197  0.00  0.00     0.030 H 
ATOM     50  H   83T d   1     -11.914   9.893  -2.505  0.00  0.00     0.030 H 
ENDBRANCH  45  47
BRANCH  45  51
ATOM     51  C49 83T d   1     -14.232   8.558  -1.961  0.00  0.00    -0.052 C 
ATOM     52  H   83T d   1     -13.844   7.800  -1.265  0.00  0.00     0.030 H 
ATOM     53  H   83T d   1     -13.839   8.364  -2.970  0.00  0.00     0.030 H 
ATOM     54  H   83T d   1     -15.331   8.511  -1.980  0.00  0.00     0.030 H 
ENDBRANCH  45  51
ENDBRANCH  44  45
ENDBRANCH  41  44
ENDBRANCH   8  40
BRANCH   6  55
ATOM     55  C29 83T d   1     -16.292  14.448  -7.442  0.00  0.00    -0.057 C 
ATOM     56  H   83T d   1     -16.845  15.264  -6.954  0.00  0.00     0.030 H 
ATOM     57  H   83T d   1     -16.988  13.638  -7.703  0.00  0.00     0.030 H 
ATOM     58  H   83T d   1     -15.811  14.826  -8.356  0.00  0.00     0.030 H 
ENDBRANCH   6  55
BRANCH  11  59
ATOM     59  C57 83T d   1     -12.534  12.000  -8.427  0.00  0.00    -0.002 C 
ATOM     60  H   83T d   1     -11.662  12.410  -8.958  0.00  0.00     0.040 H 
ATOM     61  H   83T d   1     -13.169  11.449  -9.136  0.00  0.00     0.040 H 
ATOM     62  H   83T d   1     -12.194  11.318  -7.634  0.00  0.00     0.040 H 
ENDBRANCH  11  59
TORSDOF 11
