REMARK  4 active torsions:
REMARK  status: ('A' for Active; 'I' for Inactive)
REMARK    1  A    between atoms: C2_15  and  N17_27 
REMARK    2  A    between atoms: C8_18  and  C9_19 
REMARK    3  A    between atoms: N20_25  and  C25_20 
REMARK    4  A    between atoms: N26_26  and  C29_21 
ROOT
ATOM      1  C23 5P8 d   1      26.389  48.223   7.439  0.00  0.00     0.120 C 
ATOM      2  C12 5P8 d   1      34.400  46.812   8.788  0.00  0.00    -0.064 A 
ATOM      3  C13 5P8 d   1      34.869  46.627  10.104  0.00  0.00    -0.045 A 
ATOM      4  C6  5P8 d   1      29.912  45.453   8.520  0.00  0.00    -0.035 A 
ATOM      5  C15 5P8 d   1      33.647  44.501  10.261  0.00  0.00    -0.036 A 
ATOM      6  C4  5P8 d   1      27.822  45.968   9.493  0.00  0.00     0.015 A 
ATOM      7  C19 5P8 d   1      27.808  48.406   7.325  0.00  0.00     0.145 A 
ATOM      8  C5  5P8 d   1      28.848  46.368   8.605  0.00  0.00    -0.000 A 
ATOM      9  C18 5P8 d   1      28.892  47.636   7.807  0.00  0.00     0.043 A 
ATOM     10  C11 5P8 d   1      33.538  45.835   8.185  0.00  0.00     0.041 A 
ATOM     11  C10 5P8 d   1      33.140  44.640   8.922  0.00  0.00    -0.011 A 
ATOM     12  C1  5P8 d   1      29.993  44.234   9.242  0.00  0.00     0.116 A 
ATOM     13  C14 5P8 d   1      34.492  45.482  10.823  0.00  0.00     0.117 A 
ATOM     14  C22 5P8 d   1      30.060  48.389   7.335  0.00  0.00     0.086 A 
ATOM     15  C2  5P8 d   1      28.916  43.933  10.099  0.00  0.00     0.154 A 
ATOM     16  C27 5P8 d   1      33.094  46.124   6.782  0.00  0.00     0.254 C 
ATOM     17  C28 5P8 d   1      31.552  48.151   7.482  0.00  0.00     0.040 C 
ATOM     18  C8  5P8 d   1      32.209  43.539   8.352  0.00  0.00     0.068 C 
ATOM     19  N24 5P8 d   1      25.241  48.074   7.487  0.00  0.00    -0.190 NA
ATOM     20  N3  5P8 d   1      27.839  44.789  10.223  0.00  0.00    -0.240 NA
ATOM     21  N21 5P8 d   1      29.709  49.481   6.657  0.00  0.00    -0.174 NA
ATOM     22  N20 5P8 d   1      28.376  49.478   6.660  0.00  0.00    -0.263 N 
ATOM     23  N26 5P8 d   1      32.178  47.195   6.483  0.00  0.00    -0.347 N 
ATOM     24  O30 5P8 d   1      33.585  45.367   5.934  0.00  0.00    -0.267 OA
ATOM     25  O7  5P8 d   1      31.035  43.325   9.186  0.00  0.00    -0.338 OA
ATOM     26  F16 5P8 d   1      34.942  45.317  12.063  0.00  0.00    -0.206 F 
ATOM     27  H   5P8 d   1      34.691  47.694   8.229  0.00  0.00     0.085 H 
ATOM     28  H   5P8 d   1      35.518  47.366  10.559  0.00  0.00     0.088 H 
ATOM     29  H   5P8 d   1      30.731  45.697   7.853  0.00  0.00     0.089 H 
ATOM     30  H   5P8 d   1      33.376  43.630  10.847  0.00  0.00     0.089 H 
ATOM     31  H   5P8 d   1      26.968  46.625   9.610  0.00  0.00     0.116 H 
ATOM     32  H   5P8 d   1      31.730  47.748   8.490  0.00  0.00     0.074 H 
ATOM     33  H   5P8 d   1      32.059  49.122   7.381  0.00  0.00     0.074 H 
ATOM     34  H   5P8 d   1      31.890  43.848   7.346  0.00  0.00     0.091 H 
ENDROOT
BRANCH  22  35
ATOM     35  C25 5P8 d   1      27.689  50.569   5.986  0.00  0.00     0.004 C 
ATOM     36  H   5P8 d   1      28.430  51.259   5.557  0.00  0.00     0.059 H 
ATOM     37  H   5P8 d   1      27.061  51.109   6.709  0.00  0.00     0.059 H 
ATOM     38  H   5P8 d   1      27.057  50.163   5.182  0.00  0.00     0.059 H 
ENDBRANCH  22  35
BRANCH  23  39
ATOM     39  C29 5P8 d   1      31.832  47.371   5.063  0.00  0.00    -0.015 C 
ATOM     40  H   5P8 d   1      32.355  46.613   4.461  0.00  0.00     0.056 H 
ATOM     41  H   5P8 d   1      32.136  48.375   4.733  0.00  0.00     0.056 H 
ATOM     42  H   5P8 d   1      30.746  47.256   4.933  0.00  0.00     0.056 H 
ENDBRANCH  23  39
BRANCH  15  43
ATOM     43  N17 5P8 d   1      28.934  42.737  10.852  0.00  0.00    -0.382 N 
ATOM     44  H   5P8 d   1      28.149  42.512  11.480  0.00  0.00     0.157 HD
ATOM     45  H   5P8 d   1      29.732  42.090  10.773  0.00  0.00     0.157 HD
ENDBRANCH  15  43
BRANCH  18  46
ATOM     46  C9  5P8 d   1      32.918  42.172   8.267  0.00  0.00    -0.048 C 
ATOM     47  H   5P8 d   1      32.223  41.423   7.859  0.00  0.00     0.031 H 
ATOM     48  H   5P8 d   1      33.241  41.863   9.272  0.00  0.00     0.031 H 
ATOM     49  H   5P8 d   1      33.796  42.255   7.609  0.00  0.00     0.031 H 
ENDBRANCH  18  46
TORSDOF 4
