REMARK  2 active torsions:
REMARK  status: ('A' for Active; 'I' for Inactive)
REMARK    1  A    between atoms: C2'_10  and  O2'_11 
REMARK    2  A    between atoms: C1'_12  and  N9_13 
ROOT
ATOM      1  P   CMP d   1     -32.641 -18.926  21.803  0.00  0.00     0.408 P 
ATOM      2  O1P CMP d   1     -33.207 -18.084  20.678  0.00  0.00    -0.624 OA
ATOM      3  O2P CMP d   1     -32.639 -20.410  21.645  0.00  0.00    -0.624 OA
ATOM      4  O5' CMP d   1     -33.655 -18.712  23.041  0.00  0.00    -0.287 OA
ATOM      5  C5' CMP d   1     -33.268 -18.795  24.398  0.00  0.00     0.058 C 
ATOM      6  C4' CMP d   1     -32.322 -17.652  24.301  0.00  0.00     0.090 C 
ATOM      7  O4' CMP d   1     -31.918 -17.050  25.523  0.00  0.00    -0.353 OA
ATOM      8  C3' CMP d   1     -31.012 -18.053  23.617  0.00  0.00     0.106 C 
ATOM      9  O3' CMP d   1     -31.181 -18.336  22.213  0.00  0.00    -0.279 OA
ATOM     10  C2' CMP d   1     -30.166 -16.870  23.983  0.00  0.00     0.106 C 
ATOM     11  C1' CMP d   1     -31.199 -16.074  24.760  0.00  0.00     0.140 C 
ATOM     12  H   CMP d   1     -32.776 -19.745  24.651  0.00  0.00     0.079 H 
ATOM     13  H   CMP d   1     -34.097 -18.614  25.098  0.00  0.00     0.079 H 
ATOM     14  H   CMP d   1     -32.821 -16.883  23.693  0.00  0.00     0.090 H 
ATOM     15  H   CMP d   1     -30.597 -18.960  24.081  0.00  0.00     0.092 H 
ATOM     16  H   CMP d   1     -29.299 -17.132  24.608  0.00  0.00     0.093 H 
ATOM     17  H   CMP d   1     -31.917 -15.776  23.982  0.00  0.00     0.122 H 
ENDROOT
BRANCH  11  18
ATOM     18  N9  CMP d   1     -30.898 -14.762  25.354  0.00  0.00    -0.294 N 
ATOM     19  C8  CMP d   1     -31.808 -13.823  25.014  0.00  0.00     0.071 A 
ATOM     20  N7  CMP d   1     -31.513 -12.640  25.519  0.00  0.00    -0.236 NA
ATOM     21  H   CMP d   1     -32.683 -14.019  24.396  0.00  0.00     0.144 H 
ATOM     22  C5  CMP d   1     -30.378 -12.767  26.180  0.00  0.00     0.149 A 
ATOM     23  C6  CMP d   1     -29.586 -11.819  26.937  0.00  0.00     0.155 A 
ATOM     24  C4  CMP d   1     -29.944 -14.180  26.089  0.00  0.00     0.167 A 
ATOM     25  N6  CMP d   1     -30.022 -10.549  27.001  0.00  0.00    -0.382 N 
ATOM     26  N1  CMP d   1     -28.456 -12.286  27.551  0.00  0.00    -0.222 NA
ATOM     27  H   CMP d   1     -29.486  -9.846  27.530  0.00  0.00     0.157 HD
ATOM     28  H   CMP d   1     -30.892 -10.278  26.521  0.00  0.00     0.157 HD
ATOM     29  C2  CMP d   1     -28.097 -13.580  27.435  0.00  0.00     0.091 A 
ATOM     30  N3  CMP d   1     -28.820 -14.516  26.747  0.00  0.00    -0.222 NA
ATOM     31  H   CMP d   1     -27.179 -13.899  27.916  0.00  0.00     0.146 H 
ENDBRANCH  11  18
BRANCH  10  32
ATOM     32  O2' CMP d   1     -29.735 -16.265  22.790  0.00  0.00    -0.388 OA
ATOM     33  H   CMP d   1     -29.228 -16.890  22.285  0.00  0.00     0.210 HD
ENDBRANCH  10  32
TORSDOF 2
