REMARK  9 active torsions:
REMARK  status: ('A' for Active; 'I' for Inactive)
REMARK    1  A    between atoms: C1_1  and  O7_7 
REMARK    2  A    between atoms: C2_2  and  N8_8 
REMARK    3  A    between atoms: C5_5  and  C23_23 
REMARK    4  A    between atoms: O7_7  and  C9_9 
REMARK    5  A    between atoms: C9_9  and  C10_10 
REMARK    6  A    between atoms: C9_9  and  C11_11 
REMARK    7  A    between atoms: C12_12  and  N18_18 
REMARK    8  A    between atoms: C25_25  and  S29_29 
REMARK    9  A    between atoms: S29_29  and  C30_30 
ROOT
ATOM      1  C1  GWH d   1      30.079  44.704   9.278  0.00  0.00     0.116 A 
ATOM      2  C2  GWH d   1      28.981  44.383  10.122  0.00  0.00     0.154 A 
ATOM      3  N3  GWH d   1      27.897  45.219  10.255  0.00  0.00    -0.240 NA
ATOM      4  C4  GWH d   1      27.878  46.394   9.555  0.00  0.00     0.015 A 
ATOM      5  C5  GWH d   1      28.905  46.828   8.686  0.00  0.00    -0.005 A 
ATOM      6  C6  GWH d   1      30.004  45.939   8.573  0.00  0.00    -0.035 A 
ATOM      7  H   GWH d   1      27.014  47.038   9.675  0.00  0.00     0.116 H 
ATOM      8  H   GWH d   1      30.825  46.212   7.920  0.00  0.00     0.089 H 
ENDROOT
BRANCH   1   9
ATOM      9  O7  GWH d   1      31.114  43.783   9.225  0.00  0.00    -0.338 OA
BRANCH   9  10
ATOM     10  C9  GWH d   1      32.305  43.977   8.400  0.00  0.00     0.069 C 
ATOM     11  H   GWH d   1      31.999  44.308   7.397  0.00  0.00     0.091 H 
BRANCH  10  12
ATOM     12  C10 GWH d   1      33.262  45.035   8.983  0.00  0.00     0.004 A 
ATOM     13  C12 GWH d   1      33.788  46.153   8.235  0.00  0.00     0.088 A 
ATOM     14  C13 GWH d   1      34.669  47.100   8.849  0.00  0.00    -0.050 A 
ATOM     15  C14 GWH d   1      35.037  46.950  10.209  0.00  0.00    -0.043 A 
ATOM     16  H   GWH d   1      35.055  47.933   8.273  0.00  0.00     0.087 H 
ATOM     17  C15 GWH d   1      34.528  45.860  10.949  0.00  0.00     0.117 A 
ATOM     18  H   GWH d   1      35.703  47.665  10.677  0.00  0.00     0.088 H 
ATOM     19  C16 GWH d   1      33.659  44.916  10.363  0.00  0.00    -0.035 A 
ATOM     20  F17 GWH d   1      34.873  45.716  12.233  0.00  0.00    -0.206 F 
ATOM     21  H   GWH d   1      33.285  44.091  10.958  0.00  0.00     0.089 H 
BRANCH  13  22
ATOM     22  N18 GWH d   1      33.474  46.385   6.869  0.00  0.00    -0.151 N 
ATOM     23  N19 GWH d   1      32.788  47.492   6.477  0.00  0.00    -0.161 NA
ATOM     24  C20 GWH d   1      32.715  47.317   5.155  0.00  0.00     0.042 A 
ATOM     25  C21 GWH d   1      33.350  46.131   4.800  0.00  0.00     0.042 A 
ATOM     26  H   GWH d   1      32.231  48.000   4.459  0.00  0.00     0.119 H 
ATOM     27  N22 GWH d   1      33.838  45.529   5.887  0.00  0.00    -0.161 NA
ATOM     28  H   GWH d   1      33.436  45.749   3.784  0.00  0.00     0.119 H 
ENDBRANCH  13  22
ENDBRANCH  10  12
BRANCH  10  29
ATOM     29  C11 GWH d   1      32.980  42.602   8.299  0.00  0.00    -0.048 C 
ATOM     30  H   GWH d   1      33.889  42.684   7.685  0.00  0.00     0.031 H 
ATOM     31  H   GWH d   1      32.287  41.886   7.833  0.00  0.00     0.031 H 
ATOM     32  H   GWH d   1      33.248  42.250   9.306  0.00  0.00     0.031 H 
ENDBRANCH  10  29
ENDBRANCH   9  10
ENDBRANCH   1   9
BRANCH   2  33
ATOM     33  N8  GWH d   1      28.980  43.183  10.852  0.00  0.00    -0.382 N 
ATOM     34  H   GWH d   1      28.183  42.953  11.463  0.00  0.00     0.157 HD
ATOM     35  H   GWH d   1      29.776  42.534  10.776  0.00  0.00     0.157 HD
ENDBRANCH   2  33
BRANCH   5  36
ATOM     36  C23 GWH d   1      28.847  48.114   7.951  0.00  0.00    -0.023 A 
ATOM     37  C24 GWH d   1      27.598  48.686   7.573  0.00  0.00    -0.051 A 
ATOM     38  C25 GWH d   1      27.541  49.912   6.877  0.00  0.00     0.059 A 
ATOM     39  H   GWH d   1      26.677  48.171   7.824  0.00  0.00     0.087 H 
ATOM     40  C26 GWH d   1      28.726  50.618   6.529  0.00  0.00    -0.062 A 
ATOM     41  C27 GWH d   1      29.984  50.074   6.891  0.00  0.00    -0.081 A 
ATOM     42  H   GWH d   1      28.668  51.559   5.994  0.00  0.00     0.085 H 
ATOM     43  C28 GWH d   1      30.042  48.838   7.594  0.00  0.00    -0.072 A 
ATOM     44  H   GWH d   1      30.898  50.597   6.633  0.00  0.00     0.083 H 
ATOM     45  H   GWH d   1      31.009  48.431   7.868  0.00  0.00     0.084 H 
BRANCH  38  46
ATOM     46  S29 GWH d   1      25.960  50.561   6.455  0.00  0.00     0.171 S 
ATOM     47  O31 GWH d   1      25.006  49.467   6.462  0.00  0.00    -0.223 OA
ATOM     48  O32 GWH d   1      25.768  51.708   7.325  0.00  0.00    -0.223 OA
BRANCH  46  49
ATOM     49  C30 GWH d   1      26.071  51.133   4.782  0.00  0.00     0.020 C 
ATOM     50  H   GWH d   1      25.101  51.550   4.472  0.00  0.00     0.049 H 
ATOM     51  H   GWH d   1      26.336  50.292   4.124  0.00  0.00     0.049 H 
ATOM     52  H   GWH d   1      26.844  51.912   4.711  0.00  0.00     0.049 H 
ENDBRANCH  46  49
ENDBRANCH  38  46
ENDBRANCH   5  36
TORSDOF 9
